MODEL 1
REMARK VINA RESULT:    -9.104      0.000      0.000
REMARK INTER + INTRA:         -13.303
REMARK INTER:                 -12.830
REMARK INTRA:                  -0.473
REMARK UNBOUND:                -0.473
REMARK  Name = 
REMARK  7 active torsions:
REMARK  status: ('A' for Active; 'I' for Inactive)
REMARK    1  A    between atoms: C_2  and  C_4
REMARK    2  A    between atoms: C_7  and  C_8
REMARK    3  A    between atoms: C_8  and  N_9
REMARK    4  A    between atoms: C_10  and  C_12
REMARK    5  A    between atoms: C_23  and  C_24
REMARK    6  A    between atoms: C_24  and  N_25
REMARK    7  A    between atoms: C_26  and  C_28
REMARK                            x       y       z     vdW  Elec       q    Type
REMARK                         _______ _______ _______ _____ _____    ______ ____
ROOT
ATOM      1  C   UNL     1      45.186   7.111  12.108  0.00  0.00    +0.000 A 
ATOM      2  C   UNL     1      46.316   7.397  12.895  0.00  0.00    +0.000 A 
ATOM      3  C   UNL     1      46.945   6.403  13.640  0.00  0.00    +0.000 A 
ATOM      4  C   UNL     1      46.455   5.098  13.618  0.00  0.00    +0.000 A 
ATOM      5  C   UNL     1      45.373   4.792  12.777  0.00  0.00    +0.000 A 
ATOM      6  C   UNL     1      44.734   5.780  11.994  0.00  0.00    +0.000 A 
ENDROOT
BRANCH   1   8
ATOM      7  N   UNL     1      43.219   8.041  11.019  0.00  0.00    +0.000 N 
ATOM      8  C   UNL     1      44.514   8.253  11.417  0.00  0.00    +0.000 C 
ATOM      9  O   UNL     1      45.063   9.316  11.180  0.00  0.00    +0.000 OA
ATOM     10  H   UNL     1      42.762   8.784  10.507  0.00  0.00    +0.000 HD
ATOM     11  H   UNL     1      42.781   7.131  11.030  0.00  0.00    +0.000 HD
ENDBRANCH   1   8
BRANCH   4  12
ATOM     12  C   UNL     1      47.120   4.037  14.452  0.00  0.00    +0.000 C 
BRANCH  12  13
ATOM     13  N   UNL     1      47.625   4.583  15.684  0.00  0.00    +0.000 N 
ATOM     14  C   UNL     1      47.202   4.170  16.917  0.00  0.00    +0.000 C 
ATOM     15  O   UNL     1      46.364   3.285  17.072  0.00  0.00    +0.000 OA
ATOM     16  H   UNL     1      48.137   5.453  15.600  0.00  0.00    +0.000 HD
BRANCH  14  17
ATOM     17  C   UNL     1      47.871   4.799  18.067  0.00  0.00    +0.000 A 
ATOM     18  C   UNL     1      47.168   5.682  18.879  0.00  0.00    +0.000 A 
ATOM     19  S   UNL     1      48.066   6.241  20.217  0.00  0.00    +0.000 S 
ATOM     20  C   UNL     1      49.444   5.372  19.727  0.00  0.00    +0.000 A 
ATOM     21  N   UNL     1      50.596   5.422  20.448  0.00  0.00    +0.000 NA
ATOM     22  C   UNL     1      51.573   4.744  19.943  0.00  0.00    +0.000 A 
ATOM     23  N   UNL     1      51.502   4.019  18.783  0.00  0.00    +0.000 N 
ATOM     24  C   UNL     1      50.347   3.900  18.049  0.00  0.00    +0.000 A 
ATOM     25  O   UNL     1      50.298   3.177  17.059  0.00  0.00    +0.000 OA
ATOM     26  C   UNL     1      49.221   4.657  18.564  0.00  0.00    +0.000 A 
ATOM     27  H   UNL     1      52.298   3.498  18.445  0.00  0.00    +0.000 HD
ENDBRANCH  14  17
ENDBRANCH  12  13
ENDBRANCH   4  12
BRANCH   6  28
ATOM     28  C   UNL     1      43.613   5.337  11.086  0.00  0.00    +0.000 C 
BRANCH  28  29
ATOM     29  N   UNL     1      44.081   4.804   9.829  0.00  0.00    +0.000 N 
ATOM     30  C   UNL     1      44.182   3.455   9.579  0.00  0.00    +0.000 C 
ATOM     31  O   UNL     1      43.827   2.587  10.374  0.00  0.00    +0.000 OA
ATOM     32  H   UNL     1      44.318   5.443   9.076  0.00  0.00    +0.000 HD
BRANCH  30  33
ATOM     33  C   UNL     1      44.873   3.106   8.252  0.00  0.00    +0.000 C 
ATOM     34  C   UNL     1      45.876   1.977   8.443  0.00  0.00    +0.000 C 
ATOM     35  C   UNL     1      46.814   2.189   7.284  0.00  0.00    +0.000 C 
ATOM     36  C   UNL     1      46.870   3.698   7.194  0.00  0.00    +0.000 C 
ATOM     37  O   UNL     1      45.614   4.198   7.679  0.00  0.00    +0.000 OA
ENDBRANCH  30  33
ENDBRANCH  28  29
ENDBRANCH   6  28
TORSDOF 7
ENDMDL
MODEL 2
REMARK VINA RESULT:    -8.783      2.823      3.634
REMARK INTER + INTRA:         -12.850
REMARK INTER:                 -11.476
REMARK INTRA:                  -1.375
REMARK UNBOUND:                -0.473
REMARK  Name = 
REMARK  7 active torsions:
REMARK  status: ('A' for Active; 'I' for Inactive)
REMARK    1  A    between atoms: C_2  and  C_4
REMARK    2  A    between atoms: C_7  and  C_8
REMARK    3  A    between atoms: C_8  and  N_9
REMARK    4  A    between atoms: C_10  and  C_12
REMARK    5  A    between atoms: C_23  and  C_24
REMARK    6  A    between atoms: C_24  and  N_25
REMARK    7  A    between atoms: C_26  and  C_28
REMARK                            x       y       z     vdW  Elec       q    Type
REMARK                         _______ _______ _______ _____ _____    ______ ____
ROOT
ATOM      1  C   UNL     1      45.813   4.965  12.821  0.00  0.00    +0.000 A 
ATOM      2  C   UNL     1      46.769   5.050  13.849  0.00  0.00    +0.000 A 
ATOM      3  C   UNL     1      47.818   5.964  13.784  0.00  0.00    +0.000 A 
ATOM      4  C   UNL     1      47.938   6.812  12.684  0.00  0.00    +0.000 A 
ATOM      5  C   UNL     1      46.946   6.783  11.691  0.00  0.00    +0.000 A 
ATOM      6  C   UNL     1      45.859   5.880  11.749  0.00  0.00    +0.000 A 
ENDROOT
BRANCH   1   8
ATOM      7  N   UNL     1      45.139   2.655  12.460  0.00  0.00    +0.000 N 
ATOM      8  C   UNL     1      44.777   3.894  12.923  0.00  0.00    +0.000 C 
ATOM      9  O   UNL     1      43.654   4.080  13.363  0.00  0.00    +0.000 OA
ATOM     10  H   UNL     1      44.437   1.928  12.475  0.00  0.00    +0.000 HD
ATOM     11  H   UNL     1      45.983   2.491  11.929  0.00  0.00    +0.000 HD
ENDBRANCH   1   8
BRANCH   4  12
ATOM     12  C   UNL     1      49.094   7.772  12.605  0.00  0.00    +0.000 C 
BRANCH  12  13
ATOM     13  N   UNL     1      50.168   7.367  13.472  0.00  0.00    +0.000 N 
ATOM     14  C   UNL     1      50.382   7.914  14.707  0.00  0.00    +0.000 C 
ATOM     15  O   UNL     1      49.662   8.789  15.182  0.00  0.00    +0.000 OA
ATOM     16  H   UNL     1      50.903   6.824  13.034  0.00  0.00    +0.000 HD
BRANCH  14  17
ATOM     17  C   UNL     1      51.493   7.335  15.479  0.00  0.00    +0.000 A 
ATOM     18  C   UNL     1      52.784   7.822  15.305  0.00  0.00    +0.000 A 
ATOM     19  S   UNL     1      53.930   7.106  16.346  0.00  0.00    +0.000 S 
ATOM     20  C   UNL     1      52.755   6.079  17.024  0.00  0.00    +0.000 A 
ATOM     21  N   UNL     1      53.084   5.185  17.995  0.00  0.00    +0.000 NA
ATOM     22  C   UNL     1      52.103   4.444  18.393  0.00  0.00    +0.000 A 
ATOM     23  N   UNL     1      50.823   4.518  17.910  0.00  0.00    +0.000 N 
ATOM     24  C   UNL     1      50.435   5.437  16.966  0.00  0.00    +0.000 A 
ATOM     25  O   UNL     1      49.263   5.527  16.616  0.00  0.00    +0.000 OA
ATOM     26  C   UNL     1      51.504   6.285  16.471  0.00  0.00    +0.000 A 
ATOM     27  H   UNL     1      50.095   3.919  18.272  0.00  0.00    +0.000 HD
ENDBRANCH  14  17
ENDBRANCH  12  13
ENDBRANCH   4  12
BRANCH   6  28
ATOM     28  C   UNL     1      44.821   5.964  10.656  0.00  0.00    +0.000 C 
BRANCH  28  29
ATOM     29  N   UNL     1      45.174   5.203   9.482  0.00  0.00    +0.000 N 
ATOM     30  C   UNL     1      44.587   3.999   9.165  0.00  0.00    +0.000 C 
ATOM     31  O   UNL     1      43.671   3.498   9.814  0.00  0.00    +0.000 OA
ATOM     32  H   UNL     1      45.862   5.577   8.836  0.00  0.00    +0.000 HD
BRANCH  30  33
ATOM     33  C   UNL     1      45.235   3.270   7.979  0.00  0.00    +0.000 C 
ATOM     34  C   UNL     1      45.864   1.958   8.428  0.00  0.00    +0.000 C 
ATOM     35  C   UNL     1      46.897   1.720   7.357  0.00  0.00    +0.000 C 
ATOM     36  C   UNL     1      47.382   3.124   7.070  0.00  0.00    +0.000 C 
ATOM     37  O   UNL     1      46.291   4.015   7.346  0.00  0.00    +0.000 OA
ENDBRANCH  30  33
ENDBRANCH  28  29
ENDBRANCH   6  28
TORSDOF 7
ENDMDL
MODEL 3
REMARK VINA RESULT:    -8.731      2.027      2.817
REMARK INTER + INTRA:         -12.777
REMARK INTER:                 -11.724
REMARK INTRA:                  -1.053
REMARK UNBOUND:                -0.473
REMARK  Name = 
REMARK  7 active torsions:
REMARK  status: ('A' for Active; 'I' for Inactive)
REMARK    1  A    between atoms: C_2  and  C_4
REMARK    2  A    between atoms: C_7  and  C_8
REMARK    3  A    between atoms: C_8  and  N_9
REMARK    4  A    between atoms: C_10  and  C_12
REMARK    5  A    between atoms: C_23  and  C_24
REMARK    6  A    between atoms: C_24  and  N_25
REMARK    7  A    between atoms: C_26  and  C_28
REMARK                            x       y       z     vdW  Elec       q    Type
REMARK                         _______ _______ _______ _____ _____    ______ ____
ROOT
ATOM      1  C   UNL     1      44.722   7.190  11.687  0.00  0.00    +0.000 A 
ATOM      2  C   UNL     1      45.239   8.490  11.833  0.00  0.00    +0.000 A 
ATOM      3  C   UNL     1      46.543   8.701  12.272  0.00  0.00    +0.000 A 
ATOM      4  C   UNL     1      47.361   7.615  12.580  0.00  0.00    +0.000 A 
ATOM      5  C   UNL     1      46.876   6.315  12.365  0.00  0.00    +0.000 A 
ATOM      6  C   UNL     1      45.563   6.078  11.897  0.00  0.00    +0.000 A 
ENDROOT
BRANCH   1   8
ATOM      7  N   UNL     1      42.632   8.216  10.980  0.00  0.00    +0.000 N 
ATOM      8  C   UNL     1      43.285   7.054  11.303  0.00  0.00    +0.000 C 
ATOM      9  O   UNL     1      42.687   5.990  11.291  0.00  0.00    +0.000 OA
ATOM     10  H   UNL     1      41.646   8.152  10.764  0.00  0.00    +0.000 HD
ATOM     11  H   UNL     1      43.025   9.132  11.143  0.00  0.00    +0.000 HD
ENDBRANCH   1   8
BRANCH   4  12
ATOM     12  C   UNL     1      48.758   7.852  13.087  0.00  0.00    +0.000 C 
BRANCH  12  13
ATOM     13  N   UNL     1      49.051   7.010  14.216  0.00  0.00    +0.000 N 
ATOM     14  C   UNL     1      48.887   7.411  15.514  0.00  0.00    +0.000 C 
ATOM     15  O   UNL     1      48.459   8.522  15.818  0.00  0.00    +0.000 OA
ATOM     16  H   UNL     1      49.609   6.188  14.017  0.00  0.00    +0.000 HD
BRANCH  14  17
ATOM     17  C   UNL     1      49.182   6.397  16.538  0.00  0.00    +0.000 A 
ATOM     18  C   UNL     1      50.199   6.619  17.459  0.00  0.00    +0.000 A 
ATOM     19  S   UNL     1      50.340   5.388  18.631  0.00  0.00    +0.000 S 
ATOM     20  C   UNL     1      49.087   4.486  17.916  0.00  0.00    +0.000 A 
ATOM     21  N   UNL     1      48.700   3.290  18.437  0.00  0.00    +0.000 NA
ATOM     22  C   UNL     1      47.763   2.697  17.774  0.00  0.00    +0.000 A 
ATOM     23  N   UNL     1      47.177   3.192  16.639  0.00  0.00    +0.000 N 
ATOM     24  C   UNL     1      47.500   4.416  16.106  0.00  0.00    +0.000 A 
ATOM     25  O   UNL     1      46.898   4.863  15.136  0.00  0.00    +0.000 OA
ATOM     26  C   UNL     1      48.561   5.119  16.804  0.00  0.00    +0.000 A 
ATOM     27  H   UNL     1      46.438   2.686  16.172  0.00  0.00    +0.000 HD
ENDBRANCH  14  17
ENDBRANCH  12  13
ENDBRANCH   4  12
BRANCH   6  28
ATOM     28  C   UNL     1      45.156   4.645  11.652  0.00  0.00    +0.000 C 
BRANCH  28  29
ATOM     29  N   UNL     1      45.298   4.246  10.272  0.00  0.00    +0.000 N 
ATOM     30  C   UNL     1      44.599   3.197   9.720  0.00  0.00    +0.000 C 
ATOM     31  O   UNL     1      43.750   2.549  10.330  0.00  0.00    +0.000 OA
ATOM     32  H   UNL     1      45.914   4.775   9.663  0.00  0.00    +0.000 HD
BRANCH  30  33
ATOM     33  C   UNL     1      45.034   2.825   8.295  0.00  0.00    +0.000 C 
ATOM     34  C   UNL     1      46.120   1.759   8.319  0.00  0.00    +0.000 C 
ATOM     35  C   UNL     1      46.796   1.966   6.990  0.00  0.00    +0.000 C 
ATOM     36  C   UNL     1      46.744   3.471   6.840  0.00  0.00    +0.000 C 
ATOM     37  O   UNL     1      45.582   3.927   7.549  0.00  0.00    +0.000 OA
ENDBRANCH  30  33
ENDBRANCH  28  29
ENDBRANCH   6  28
TORSDOF 7
ENDMDL
MODEL 4
REMARK VINA RESULT:    -8.521      2.826      6.273
REMARK INTER + INTRA:         -12.481
REMARK INTER:                 -10.391
REMARK INTRA:                  -2.089
REMARK UNBOUND:                -0.473
REMARK  Name = 
REMARK  7 active torsions:
REMARK  status: ('A' for Active; 'I' for Inactive)
REMARK    1  A    between atoms: C_2  and  C_4
REMARK    2  A    between atoms: C_7  and  C_8
REMARK    3  A    between atoms: C_8  and  N_9
REMARK    4  A    between atoms: C_10  and  C_12
REMARK    5  A    between atoms: C_23  and  C_24
REMARK    6  A    between atoms: C_24  and  N_25
REMARK    7  A    between atoms: C_26  and  C_28
REMARK                            x       y       z     vdW  Elec       q    Type
REMARK                         _______ _______ _______ _____ _____    ______ ____
ROOT
ATOM      1  C   UNL     1      44.912   4.611  12.101  0.00  0.00    +0.000 A 
ATOM      2  C   UNL     1      44.276   5.660  11.415  0.00  0.00    +0.000 A 
ATOM      3  C   UNL     1      44.589   6.990  11.682  0.00  0.00    +0.000 A 
ATOM      4  C   UNL     1      45.545   7.303  12.648  0.00  0.00    +0.000 A 
ATOM      5  C   UNL     1      46.237   6.258  13.283  0.00  0.00    +0.000 A 
ATOM      6  C   UNL     1      45.952   4.901  13.009  0.00  0.00    +0.000 A 
ENDROOT
BRANCH   1   8
ATOM      7  N   UNL     1      44.905   2.651  10.660  0.00  0.00    +0.000 N 
ATOM      8  C   UNL     1      44.450   3.218  11.823  0.00  0.00    +0.000 C 
ATOM      9  O   UNL     1      43.691   2.600  12.551  0.00  0.00    +0.000 OA
ATOM     10  H   UNL     1      44.566   1.726  10.429  0.00  0.00    +0.000 HD
ATOM     11  H   UNL     1      45.385   3.175   9.942  0.00  0.00    +0.000 HD
ENDBRANCH   1   8
BRANCH   4  12
ATOM     12  C   UNL     1      45.853   8.743  12.956  0.00  0.00    +0.000 C 
BRANCH  12  13
ATOM     13  N   UNL     1      46.775   8.854  14.055  0.00  0.00    +0.000 N 
ATOM     14  C   UNL     1      48.088   9.203  13.899  0.00  0.00    +0.000 C 
ATOM     15  O   UNL     1      48.583   9.463  12.805  0.00  0.00    +0.000 OA
ATOM     16  H   UNL     1      46.471   8.434  14.925  0.00  0.00    +0.000 HD
BRANCH  14  17
ATOM     17  C   UNL     1      48.869   9.323  15.141  0.00  0.00    +0.000 A 
ATOM     18  C   UNL     1      49.029  10.568  15.740  0.00  0.00    +0.000 A 
ATOM     19  S   UNL     1      49.877  10.510  17.218  0.00  0.00    +0.000 S 
ATOM     20  C   UNL     1      50.113   8.831  17.082  0.00  0.00    +0.000 A 
ATOM     21  N   UNL     1      50.790   8.139  18.038  0.00  0.00    +0.000 NA
ATOM     22  C   UNL     1      50.926   6.879  17.790  0.00  0.00    +0.000 A 
ATOM     23  N   UNL     1      50.445   6.246  16.674  0.00  0.00    +0.000 N 
ATOM     24  C   UNL     1      49.713   6.894  15.708  0.00  0.00    +0.000 A 
ATOM     25  O   UNL     1      49.229   6.279  14.764  0.00  0.00    +0.000 OA
ATOM     26  C   UNL     1      49.545   8.319  15.930  0.00  0.00    +0.000 A 
ATOM     27  H   UNL     1      50.572   5.253  16.543  0.00  0.00    +0.000 HD
ENDBRANCH  14  17
ENDBRANCH  12  13
ENDBRANCH   4  12
BRANCH   6  28
ATOM     28  C   UNL     1      46.787   3.856  13.709  0.00  0.00    +0.000 C 
BRANCH  28  29
ATOM     29  N   UNL     1      46.865   4.058  15.135  0.00  0.00    +0.000 N 
ATOM     30  C   UNL     1      47.688   3.317  15.953  0.00  0.00    +0.000 C 
ATOM     31  O   UNL     1      48.471   2.465  15.537  0.00  0.00    +0.000 OA
ATOM     32  H   UNL     1      46.318   4.799  15.563  0.00  0.00    +0.000 HD
BRANCH  30  33
ATOM     33  C   UNL     1      47.482   3.568  17.454  0.00  0.00    +0.000 C 
ATOM     34  C   UNL     1      47.254   5.047  17.731  0.00  0.00    +0.000 C 
ATOM     35  C   UNL     1      47.666   5.166  19.174  0.00  0.00    +0.000 C 
ATOM     36  C   UNL     1      48.834   4.207  19.249  0.00  0.00    +0.000 C 
ATOM     37  O   UNL     1      48.607   3.185  18.266  0.00  0.00    +0.000 OA
ENDBRANCH  30  33
ENDBRANCH  28  29
ENDBRANCH   6  28
TORSDOF 7
ENDMDL
MODEL 5
REMARK VINA RESULT:    -8.459      5.327      7.191
REMARK INTER + INTRA:         -12.393
REMARK INTER:                 -10.894
REMARK INTRA:                  -1.499
REMARK UNBOUND:                -0.473
REMARK  Name = 
REMARK  7 active torsions:
REMARK  status: ('A' for Active; 'I' for Inactive)
REMARK    1  A    between atoms: C_2  and  C_4
REMARK    2  A    between atoms: C_7  and  C_8
REMARK    3  A    between atoms: C_8  and  N_9
REMARK    4  A    between atoms: C_10  and  C_12
REMARK    5  A    between atoms: C_23  and  C_24
REMARK    6  A    between atoms: C_24  and  N_25
REMARK    7  A    between atoms: C_26  and  C_28
REMARK                            x       y       z     vdW  Elec       q    Type
REMARK                         _______ _______ _______ _____ _____    ______ ____
ROOT
ATOM      1  C   UNL     1      46.521   5.415  12.765  0.00  0.00    +0.000 A 
ATOM      2  C   UNL     1      47.635   5.654  13.589  0.00  0.00    +0.000 A 
ATOM      3  C   UNL     1      48.635   6.545  13.208  0.00  0.00    +0.000 A 
ATOM      4  C   UNL     1      48.545   7.217  11.990  0.00  0.00    +0.000 A 
ATOM      5  C   UNL     1      47.399   7.039  11.198  0.00  0.00    +0.000 A 
ATOM      6  C   UNL     1      46.361   6.158  11.577  0.00  0.00    +0.000 A 
ENDROOT
BRANCH   1   8
ATOM      7  N   UNL     1      45.786   3.096  12.768  0.00  0.00    +0.000 N 
ATOM      8  C   UNL     1      45.544   4.374  13.203  0.00  0.00    +0.000 C 
ATOM      9  O   UNL     1      44.562   4.613  13.886  0.00  0.00    +0.000 OA
ATOM     10  H   UNL     1      45.111   2.384  13.013  0.00  0.00    +0.000 HD
ATOM     11  H   UNL     1      46.475   2.875  12.063  0.00  0.00    +0.000 HD
ENDBRANCH   1   8
BRANCH   4  12
ATOM     12  C   UNL     1      49.646   8.153  11.570  0.00  0.00    +0.000 C 
BRANCH  12  13
ATOM     13  N   UNL     1      50.847   7.430  11.244  0.00  0.00    +0.000 N 
ATOM     14  C   UNL     1      51.888   7.981  10.547  0.00  0.00    +0.000 C 
ATOM     15  O   UNL     1      51.885   9.146  10.157  0.00  0.00    +0.000 OA
ATOM     16  H   UNL     1      50.794   6.424  11.346  0.00  0.00    +0.000 HD
BRANCH  14  17
ATOM     17  C   UNL     1      53.059   7.112  10.355  0.00  0.00    +0.000 A 
ATOM     18  C   UNL     1      53.981   6.954  11.384  0.00  0.00    +0.000 A 
ATOM     19  S   UNL     1      55.220   5.840  11.026  0.00  0.00    +0.000 S 
ATOM     20  C   UNL     1      54.605   5.572   9.462  0.00  0.00    +0.000 A 
ATOM     21  N   UNL     1      55.218   4.710   8.606  0.00  0.00    +0.000 NA
ATOM     22  C   UNL     1      54.666   4.631   7.442  0.00  0.00    +0.000 A 
ATOM     23  N   UNL     1      53.555   5.333   7.055  0.00  0.00    +0.000 N 
ATOM     24  C   UNL     1      52.875   6.176   7.900  0.00  0.00    +0.000 A 
ATOM     25  O   UNL     1      51.838   6.727   7.545  0.00  0.00    +0.000 OA
ATOM     26  C   UNL     1      53.464   6.316   9.219  0.00  0.00    +0.000 A 
ATOM     27  H   UNL     1      53.161   5.217   6.132  0.00  0.00    +0.000 HD
ENDBRANCH  14  17
ENDBRANCH  12  13
ENDBRANCH   4  12
BRANCH   6  28
ATOM     28  C   UNL     1      45.150   6.076  10.679  0.00  0.00    +0.000 C 
BRANCH  28  29
ATOM     29  N   UNL     1      45.384   5.304   9.483  0.00  0.00    +0.000 N 
ATOM     30  C   UNL     1      44.852   4.050   9.285  0.00  0.00    +0.000 C 
ATOM     31  O   UNL     1      44.084   3.505  10.075  0.00  0.00    +0.000 OA
ATOM     32  H   UNL     1      45.938   5.706   8.733  0.00  0.00    +0.000 HD
BRANCH  30  33
ATOM     33  C   UNL     1      45.374   3.331   8.032  0.00  0.00    +0.000 C 
ATOM     34  C   UNL     1      45.980   1.982   8.394  0.00  0.00    +0.000 C 
ATOM     35  C   UNL     1      46.913   1.736   7.238  0.00  0.00    +0.000 C 
ATOM     36  C   UNL     1      47.434   3.126   6.950  0.00  0.00    +0.000 C 
ATOM     37  O   UNL     1      46.406   4.052   7.336  0.00  0.00    +0.000 OA
ENDBRANCH  30  33
ENDBRANCH  28  29
ENDBRANCH   6  28
TORSDOF 7
ENDMDL
MODEL 6
REMARK VINA RESULT:    -8.441      2.392      3.137
REMARK INTER + INTRA:         -12.369
REMARK INTER:                 -11.083
REMARK INTRA:                  -1.286
REMARK UNBOUND:                -0.473
REMARK  Name = 
REMARK  7 active torsions:
REMARK  status: ('A' for Active; 'I' for Inactive)
REMARK    1  A    between atoms: C_2  and  C_4
REMARK    2  A    between atoms: C_7  and  C_8
REMARK    3  A    between atoms: C_8  and  N_9
REMARK    4  A    between atoms: C_10  and  C_12
REMARK    5  A    between atoms: C_23  and  C_24
REMARK    6  A    between atoms: C_24  and  N_25
REMARK    7  A    between atoms: C_26  and  C_28
REMARK                            x       y       z     vdW  Elec       q    Type
REMARK                         _______ _______ _______ _____ _____    ______ ____
ROOT
ATOM      1  C   UNL     1      45.443   4.710  12.763  0.00  0.00    +0.000 A 
ATOM      2  C   UNL     1      46.047   4.481  14.013  0.00  0.00    +0.000 A 
ATOM      3  C   UNL     1      47.179   5.190  14.406  0.00  0.00    +0.000 A 
ATOM      4  C   UNL     1      47.738   6.143  13.555  0.00  0.00    +0.000 A 
ATOM      5  C   UNL     1      47.096   6.427  12.338  0.00  0.00    +0.000 A 
ATOM      6  C   UNL     1      45.932   5.737  11.930  0.00  0.00    +0.000 A 
ENDROOT
BRANCH   1   8
ATOM      7  N   UNL     1      44.604   2.582  11.934  0.00  0.00    +0.000 N 
ATOM      8  C   UNL     1      44.291   3.840  12.380  0.00  0.00    +0.000 C 
ATOM      9  O   UNL     1      43.126   4.204  12.423  0.00  0.00    +0.000 OA
ATOM     10  H   UNL     1      43.842   1.994  11.624  0.00  0.00    +0.000 HD
ATOM     11  H   UNL     1      45.547   2.295  11.712  0.00  0.00    +0.000 HD
ENDBRANCH   1   8
BRANCH   4  12
ATOM     12  C   UNL     1      48.981   6.880  13.972  0.00  0.00    +0.000 C 
BRANCH  12  13
ATOM     13  N   UNL     1      48.922   7.256  15.360  0.00  0.00    +0.000 N 
ATOM     14  C   UNL     1      49.695   6.675  16.328  0.00  0.00    +0.000 C 
ATOM     15  O   UNL     1      50.515   5.793  16.085  0.00  0.00    +0.000 OA
ATOM     16  H   UNL     1      48.115   7.805  15.631  0.00  0.00    +0.000 HD
BRANCH  14  17
ATOM     17  C   UNL     1      49.543   7.226  17.684  0.00  0.00    +0.000 A 
ATOM     18  C   UNL     1      50.298   8.326  18.073  0.00  0.00    +0.000 A 
ATOM     19  S   UNL     1      49.925   8.891  19.638  0.00  0.00    +0.000 S 
ATOM     20  C   UNL     1      48.785   7.651  19.876  0.00  0.00    +0.000 A 
ATOM     21  N   UNL     1      48.091   7.551  21.042  0.00  0.00    +0.000 NA
ATOM     22  C   UNL     1      47.286   6.543  21.099  0.00  0.00    +0.000 A 
ATOM     23  N   UNL     1      47.110   5.626  20.097  0.00  0.00    +0.000 N 
ATOM     24  C   UNL     1      47.751   5.715  18.885  0.00  0.00    +0.000 A 
ATOM     25  O   UNL     1      47.508   4.922  17.982  0.00  0.00    +0.000 OA
ATOM     26  C   UNL     1      48.683   6.822  18.773  0.00  0.00    +0.000 A 
ATOM     27  H   UNL     1      46.454   4.865  20.197  0.00  0.00    +0.000 HD
ENDBRANCH  14  17
ENDBRANCH  12  13
ENDBRANCH   4  12
BRANCH   6  28
ATOM     28  C   UNL     1      45.292   6.153  10.627  0.00  0.00    +0.000 C 
BRANCH  28  29
ATOM     29  N   UNL     1      45.630   5.282   9.529  0.00  0.00    +0.000 N 
ATOM     30  C   UNL     1      44.702   4.498   8.881  0.00  0.00    +0.000 C 
ATOM     31  O   UNL     1      43.500   4.517   9.137  0.00  0.00    +0.000 OA
ATOM     32  H   UNL     1      46.586   5.261   9.186  0.00  0.00    +0.000 HD
BRANCH  30  33
ATOM     33  C   UNL     1      45.302   3.512   7.867  0.00  0.00    +0.000 C 
ATOM     34  C   UNL     1      45.782   2.245   8.561  0.00  0.00    +0.000 C 
ATOM     35  C   UNL     1      46.810   1.725   7.591  0.00  0.00    +0.000 C 
ATOM     36  C   UNL     1      47.444   3.003   7.087  0.00  0.00    +0.000 C 
ATOM     37  O   UNL     1      46.443   4.030   7.159  0.00  0.00    +0.000 OA
ENDBRANCH  30  33
ENDBRANCH  28  29
ENDBRANCH   6  28
TORSDOF 7
ENDMDL
MODEL 7
REMARK VINA RESULT:    -8.396      3.543      4.202
REMARK INTER + INTRA:         -12.305
REMARK INTER:                 -10.903
REMARK INTRA:                  -1.401
REMARK UNBOUND:                -0.473
REMARK  Name = 
REMARK  7 active torsions:
REMARK  status: ('A' for Active; 'I' for Inactive)
REMARK    1  A    between atoms: C_2  and  C_4
REMARK    2  A    between atoms: C_7  and  C_8
REMARK    3  A    between atoms: C_8  and  N_9
REMARK    4  A    between atoms: C_10  and  C_12
REMARK    5  A    between atoms: C_23  and  C_24
REMARK    6  A    between atoms: C_24  and  N_25
REMARK    7  A    between atoms: C_26  and  C_28
REMARK                            x       y       z     vdW  Elec       q    Type
REMARK                         _______ _______ _______ _____ _____    ______ ____
ROOT
ATOM      1  C   UNL     1      45.644   4.877  12.830  0.00  0.00    +0.000 A 
ATOM      2  C   UNL     1      46.593   4.962  13.864  0.00  0.00    +0.000 A 
ATOM      3  C   UNL     1      47.655   5.861  13.796  0.00  0.00    +0.000 A 
ATOM      4  C   UNL     1      47.794   6.694  12.687  0.00  0.00    +0.000 A 
ATOM      5  C   UNL     1      46.808   6.667  11.687  0.00  0.00    +0.000 A 
ATOM      6  C   UNL     1      45.709   5.779  11.748  0.00  0.00    +0.000 A 
ENDROOT
BRANCH   1   8
ATOM      7  N   UNL     1      44.926   2.584  12.450  0.00  0.00    +0.000 N 
ATOM      8  C   UNL     1      44.593   3.822  12.937  0.00  0.00    +0.000 C 
ATOM      9  O   UNL     1      43.482   4.019  13.402  0.00  0.00    +0.000 OA
ATOM     10  H   UNL     1      44.213   1.868  12.469  0.00  0.00    +0.000 HD
ATOM     11  H   UNL     1      45.756   2.414  11.900  0.00  0.00    +0.000 HD
ENDBRANCH   1   8
BRANCH   4  12
ATOM     12  C   UNL     1      48.963   7.638  12.604  0.00  0.00    +0.000 C 
BRANCH  12  13
ATOM     13  N   UNL     1      50.006   7.257  13.519  0.00  0.00    +0.000 N 
ATOM     14  C   UNL     1      50.176   7.837  14.746  0.00  0.00    +0.000 C 
ATOM     15  O   UNL     1      49.440   8.724  15.171  0.00  0.00    +0.000 OA
ATOM     16  H   UNL     1      50.755   6.702  13.123  0.00  0.00    +0.000 HD
BRANCH  14  17
ATOM     17  C   UNL     1      51.259   7.280  15.572  0.00  0.00    +0.000 A 
ATOM     18  C   UNL     1      50.954   6.564  16.723  0.00  0.00    +0.000 A 
ATOM     19  S   UNL     1      52.322   5.910  17.504  0.00  0.00    +0.000 S 
ATOM     20  C   UNL     1      53.376   6.609  16.366  0.00  0.00    +0.000 A 
ATOM     21  N   UNL     1      54.722   6.439  16.462  0.00  0.00    +0.000 NA
ATOM     22  C   UNL     1      55.404   7.055  15.553  0.00  0.00    +0.000 A 
ATOM     23  N   UNL     1      54.862   7.823  14.557  0.00  0.00    +0.000 N 
ATOM     24  C   UNL     1      53.507   7.982  14.392  0.00  0.00    +0.000 A 
ATOM     25  O   UNL     1      53.055   8.612  13.441  0.00  0.00    +0.000 OA
ATOM     26  C   UNL     1      52.693   7.325  15.398  0.00  0.00    +0.000 A 
ATOM     27  H   UNL     1      55.448   8.269  13.867  0.00  0.00    +0.000 HD
ENDBRANCH  14  17
ENDBRANCH  12  13
ENDBRANCH   4  12
BRANCH   6  28
ATOM     28  C   UNL     1      44.680   5.864  10.647  0.00  0.00    +0.000 C 
BRANCH  28  29
ATOM     29  N   UNL     1      45.061   5.136   9.461  0.00  0.00    +0.000 N 
ATOM     30  C   UNL     1      44.554   3.895   9.149  0.00  0.00    +0.000 C 
ATOM     31  O   UNL     1      43.691   3.326   9.814  0.00  0.00    +0.000 OA
ATOM     32  H   UNL     1      45.705   5.562   8.802  0.00  0.00    +0.000 HD
BRANCH  30  33
ATOM     33  C   UNL     1      45.227   3.221   7.944  0.00  0.00    +0.000 C 
ATOM     34  C   UNL     1      45.926   1.935   8.363  0.00  0.00    +0.000 C 
ATOM     35  C   UNL     1      46.958   1.769   7.279  0.00  0.00    +0.000 C 
ATOM     36  C   UNL     1      47.369   3.201   7.012  0.00  0.00    +0.000 C 
ATOM     37  O   UNL     1      46.236   4.030   7.314  0.00  0.00    +0.000 OA
ENDBRANCH  30  33
ENDBRANCH  28  29
ENDBRANCH   6  28
TORSDOF 7
ENDMDL
MODEL 8
REMARK VINA RESULT:    -8.387      4.615      6.137
REMARK INTER + INTRA:         -12.292
REMARK INTER:                 -10.827
REMARK INTRA:                  -1.465
REMARK UNBOUND:                -0.473
REMARK  Name = 
REMARK  7 active torsions:
REMARK  status: ('A' for Active; 'I' for Inactive)
REMARK    1  A    between atoms: C_2  and  C_4
REMARK    2  A    between atoms: C_7  and  C_8
REMARK    3  A    between atoms: C_8  and  N_9
REMARK    4  A    between atoms: C_10  and  C_12
REMARK    5  A    between atoms: C_23  and  C_24
REMARK    6  A    between atoms: C_24  and  N_25
REMARK    7  A    between atoms: C_26  and  C_28
REMARK                            x       y       z     vdW  Elec       q    Type
REMARK                         _______ _______ _______ _____ _____    ______ ____
ROOT
ATOM      1  C   UNL     1      45.375   5.280  12.667  0.00  0.00    +0.000 A 
ATOM      2  C   UNL     1      46.267   5.982  13.498  0.00  0.00    +0.000 A 
ATOM      3  C   UNL     1      46.535   7.332  13.290  0.00  0.00    +0.000 A 
ATOM      4  C   UNL     1      45.920   8.013  12.240  0.00  0.00    +0.000 A 
ATOM      5  C   UNL     1      44.972   7.337  11.454  0.00  0.00    +0.000 A 
ATOM      6  C   UNL     1      44.667   5.973  11.663  0.00  0.00    +0.000 A 
ENDROOT
BRANCH   1   8
ATOM      7  N   UNL     1      43.948   3.379  13.184  0.00  0.00    +0.000 N 
ATOM      8  C   UNL     1      45.217   3.813  12.900  0.00  0.00    +0.000 C 
ATOM      9  O   UNL     1      46.145   3.021  12.873  0.00  0.00    +0.000 OA
ATOM     10  H   UNL     1      43.826   2.397  13.392  0.00  0.00    +0.000 HD
ATOM     11  H   UNL     1      43.184   4.007  13.393  0.00  0.00    +0.000 HD
ENDBRANCH   1   8
BRANCH   4  12
ATOM     12  C   UNL     1      46.241   9.463  12.000  0.00  0.00    +0.000 C 
BRANCH  12  13
ATOM     13  N   UNL     1      47.610   9.632  11.591  0.00  0.00    +0.000 N 
ATOM     14  C   UNL     1      48.548  10.271  12.355  0.00  0.00    +0.000 C 
ATOM     15  O   UNL     1      48.297  10.741  13.462  0.00  0.00    +0.000 OA
ATOM     16  H   UNL     1      47.797   9.465  10.610  0.00  0.00    +0.000 HD
BRANCH  14  17
ATOM     17  C   UNL     1      49.911  10.299  11.802  0.00  0.00    +0.000 A 
ATOM     18  C   UNL     1      50.579  11.511  11.668  0.00  0.00    +0.000 A 
ATOM     19  S   UNL     1      52.180  11.349  11.103  0.00  0.00    +0.000 S 
ATOM     20  C   UNL     1      52.019   9.661  10.961  0.00  0.00    +0.000 A 
ATOM     21  N   UNL     1      53.050   8.895  10.513  0.00  0.00    +0.000 NA
ATOM     22  C   UNL     1      52.779   7.635  10.421  0.00  0.00    +0.000 A 
ATOM     23  N   UNL     1      51.571   7.072  10.737  0.00  0.00    +0.000 N 
ATOM     24  C   UNL     1      50.519   7.799  11.239  0.00  0.00    +0.000 A 
ATOM     25  O   UNL     1      49.479   7.248  11.587  0.00  0.00    +0.000 OA
ATOM     26  C   UNL     1      50.765   9.225  11.348  0.00  0.00    +0.000 A 
ATOM     27  H   UNL     1      51.424   6.076  10.656  0.00  0.00    +0.000 HD
ENDBRANCH  14  17
ENDBRANCH  12  13
ENDBRANCH   4  12
BRANCH   6  28
ATOM     28  C   UNL     1      43.598   5.354  10.795  0.00  0.00    +0.000 C 
BRANCH  28  29
ATOM     29  N   UNL     1      44.121   4.777   9.581  0.00  0.00    +0.000 N 
ATOM     30  C   UNL     1      44.229   3.419   9.382  0.00  0.00    +0.000 C 
ATOM     31  O   UNL     1      43.835   2.581  10.190  0.00  0.00    +0.000 OA
ATOM     32  H   UNL     1      44.395   5.388   8.817  0.00  0.00    +0.000 HD
BRANCH  30  33
ATOM     33  C   UNL     1      44.979   3.023   8.102  0.00  0.00    +0.000 C 
ATOM     34  C   UNL     1      45.996   1.927   8.386  0.00  0.00    +0.000 C 
ATOM     35  C   UNL     1      46.975   2.103   7.254  0.00  0.00    +0.000 C 
ATOM     36  C   UNL     1      47.004   3.607   7.094  0.00  0.00    +0.000 C 
ATOM     37  O   UNL     1      45.721   4.103   7.506  0.00  0.00    +0.000 OA
ENDBRANCH  30  33
ENDBRANCH  28  29
ENDBRANCH   6  28
TORSDOF 7
ENDMDL
MODEL 9
REMARK VINA RESULT:    -8.334      1.786      2.274
REMARK INTER + INTRA:         -12.217
REMARK INTER:                 -11.527
REMARK INTRA:                  -0.690
REMARK UNBOUND:                -0.473
REMARK  Name = 
REMARK  7 active torsions:
REMARK  status: ('A' for Active; 'I' for Inactive)
REMARK    1  A    between atoms: C_2  and  C_4
REMARK    2  A    between atoms: C_7  and  C_8
REMARK    3  A    between atoms: C_8  and  N_9
REMARK    4  A    between atoms: C_10  and  C_12
REMARK    5  A    between atoms: C_23  and  C_24
REMARK    6  A    between atoms: C_24  and  N_25
REMARK    7  A    between atoms: C_26  and  C_28
REMARK                            x       y       z     vdW  Elec       q    Type
REMARK                         _______ _______ _______ _____ _____    ______ ____
ROOT
ATOM      1  C   UNL     1      44.618   6.390  12.060  0.00  0.00    +0.000 A 
ATOM      2  C   UNL     1      45.050   7.678  12.423  0.00  0.00    +0.000 A 
ATOM      3  C   UNL     1      46.293   7.881  13.017  0.00  0.00    +0.000 A 
ATOM      4  C   UNL     1      47.133   6.797  13.267  0.00  0.00    +0.000 A 
ATOM      5  C   UNL     1      46.739   5.518  12.839  0.00  0.00    +0.000 A 
ATOM      6  C   UNL     1      45.492   5.293  12.212  0.00  0.00    +0.000 A 
ENDROOT
BRANCH   1   8
ATOM      7  N   UNL     1      42.659   7.391  11.023  0.00  0.00    +0.000 N 
ATOM      8  C   UNL     1      43.234   6.248  11.516  0.00  0.00    +0.000 C 
ATOM      9  O   UNL     1      42.611   5.199  11.519  0.00  0.00    +0.000 OA
ATOM     10  H   UNL     1      41.705   7.328  10.694  0.00  0.00    +0.000 HD
ATOM     11  H   UNL     1      43.056   8.310  11.157  0.00  0.00    +0.000 HD
ENDBRANCH   1   8
BRANCH   4  12
ATOM     12  C   UNL     1      48.460   7.020  13.940  0.00  0.00    +0.000 C 
BRANCH  12  13
ATOM     13  N   UNL     1      48.309   7.115  15.368  0.00  0.00    +0.000 N 
ATOM     14  C   UNL     1      49.267   6.702  16.253  0.00  0.00    +0.000 C 
ATOM     15  O   UNL     1      50.343   6.228  15.896  0.00  0.00    +0.000 OA
ATOM     16  H   UNL     1      47.366   7.284  15.699  0.00  0.00    +0.000 HD
BRANCH  14  17
ATOM     17  C   UNL     1      48.965   6.929  17.675  0.00  0.00    +0.000 A 
ATOM     18  C   UNL     1      48.793   8.225  18.147  0.00  0.00    +0.000 A 
ATOM     19  S   UNL     1      48.354   8.300  19.793  0.00  0.00    +0.000 S 
ATOM     20  C   UNL     1      48.436   6.607  19.950  0.00  0.00    +0.000 A 
ATOM     21  N   UNL     1      48.175   6.001  21.139  0.00  0.00    +0.000 NA
ATOM     22  C   UNL     1      48.310   4.716  21.124  0.00  0.00    +0.000 A 
ATOM     23  N   UNL     1      48.681   3.983  20.028  0.00  0.00    +0.000 N 
ATOM     24  C   UNL     1      48.906   4.547  18.796  0.00  0.00    +0.000 A 
ATOM     25  O   UNL     1      49.158   3.850  17.818  0.00  0.00    +0.000 OA
ATOM     26  C   UNL     1      48.785   5.993  18.760  0.00  0.00    +0.000 A 
ATOM     27  H   UNL     1      48.756   2.977  20.076  0.00  0.00    +0.000 HD
ENDBRANCH  14  17
ENDBRANCH  12  13
ENDBRANCH   4  12
BRANCH   6  28
ATOM     28  C   UNL     1      45.186   3.890  11.747  0.00  0.00    +0.000 C 
BRANCH  28  29
ATOM     29  N   UNL     1      45.370   3.714  10.326  0.00  0.00    +0.000 N 
ATOM     30  C   UNL     1      44.641   2.815   9.582  0.00  0.00    +0.000 C 
ATOM     31  O   UNL     1      43.730   2.131  10.045  0.00  0.00    +0.000 OA
ATOM     32  H   UNL     1      46.042   4.297   9.836  0.00  0.00    +0.000 HD
BRANCH  30  33
ATOM     33  C   UNL     1      45.120   2.656   8.132  0.00  0.00    +0.000 C 
ATOM     34  C   UNL     1      46.267   1.659   8.046  0.00  0.00    +0.000 C 
ATOM     35  C   UNL     1      46.951   2.075   6.770  0.00  0.00    +0.000 C 
ATOM     36  C   UNL     1      46.812   3.580   6.813  0.00  0.00    +0.000 C 
ATOM     37  O   UNL     1      45.613   3.875   7.546  0.00  0.00    +0.000 OA
ENDBRANCH  30  33
ENDBRANCH  28  29
ENDBRANCH   6  28
TORSDOF 7
ENDMDL
