MODEL 1
REMARK VINA RESULT:    -9.175      0.000      0.000
REMARK INTER + INTRA:         -12.663
REMARK INTER:                 -12.393
REMARK INTRA:                  -0.270
REMARK UNBOUND:                -0.270
REMARK  Name = 
REMARK  7 active torsions:
REMARK  status: ('A' for Active; 'I' for Inactive)
REMARK    1  A    between atoms: C_1  and  O_2
REMARK    2  A    between atoms: O_2  and  C_3
REMARK    3  A    between atoms: C_6  and  C_7
REMARK    4  A    between atoms: C_11  and  C_12
REMARK    5  A    between atoms: C_12  and  N_13
REMARK    6  A    between atoms: N_13  and  C_14
REMARK    7  A    between atoms: C_17  and  C_18
REMARK                            x       y       z     vdW  Elec       q    Type
REMARK                         _______ _______ _______ _____ _____    ______ ____
ROOT
ATOM      1  C   UNL     1      43.959   5.003  11.517  0.00  0.00    +0.000 C 
ATOM      2  C   UNL     1      42.782   5.183  12.450  0.00  0.00    +0.000 C 
ATOM      3  C   UNL     1      43.299   3.805  12.222  0.00  0.00    +0.000 C 
ENDROOT
BRANCH   1   8
ATOM      4  C   UNL     1      47.058   5.512  13.741  0.00  0.00    +0.000 A 
ATOM      5  C   UNL     1      47.808   6.405  12.968  0.00  0.00    +0.000 A 
ATOM      6  C   UNL     1      47.317   6.870  11.748  0.00  0.00    +0.000 A 
ATOM      7  C   UNL     1      46.072   6.440  11.283  0.00  0.00    +0.000 A 
ATOM      8  C   UNL     1      45.296   5.531  12.015  0.00  0.00    +0.000 A 
ATOM      9  C   UNL     1      45.818   5.089  13.234  0.00  0.00    +0.000 A 
BRANCH   4  13
ATOM     10  C   UNL     1      48.251   3.982  17.494  0.00  0.00    +0.000 A 
ATOM     11  C   UNL     1      48.730   5.230  17.131  0.00  0.00    +0.000 A 
ATOM     12  C   UNL     1      48.352   5.759  15.896  0.00  0.00    +0.000 A 
ATOM     13  C   UNL     1      47.505   5.031  15.055  0.00  0.00    +0.000 A 
ATOM     14  C   UNL     1      47.091   3.787  15.531  0.00  0.00    +0.000 A 
ATOM     15  N   UNL     1      47.434   3.257  16.713  0.00  0.00    +0.000 NA
BRANCH  10  17
ATOM     16  C   UNL     1      48.801   4.440  19.702  0.00  0.00    +0.000 C 
ATOM     17  O   UNL     1      48.634   3.432  18.697  0.00  0.00    +0.000 OA
ENDBRANCH  10  17
ENDBRANCH   4  13
ENDBRANCH   1   8
BRANCH   1  18
ATOM     18  N   UNL     1      43.911   4.829  10.063  0.00  0.00    +0.000 N 
ATOM     19  H   UNL     1      43.020   5.070   9.635  0.00  0.00    +0.000 HD
BRANCH  18  20
ATOM     20  C   UNL     1      44.665   3.964   9.262  0.00  0.00    +0.000 A 
ATOM     21  C   UNL     1      44.756   2.580   9.418  0.00  0.00    +0.000 A 
ATOM     22  C   UNL     1      45.663   1.857   8.629  0.00  0.00    +0.000 A 
ATOM     23  C   UNL     1      46.459   2.540   7.714  0.00  0.00    +0.000 A 
ATOM     24  N   UNL     1      46.394   3.884   7.529  0.00  0.00    +0.000 NA
ATOM     25  C   UNL     1      45.512   4.540   8.305  0.00  0.00    +0.000 A 
BRANCH  23  26
ATOM     26  C   UNL     1      47.450   1.815   6.881  0.00  0.00    +0.000 C 
ATOM     27  N   UNL     1      48.529   2.544   6.455  0.00  0.00    +0.000 N 
ATOM     28  O   UNL     1      47.336   0.642   6.586  0.00  0.00    +0.000 OA
ATOM     29  H   UNL     1      48.591   3.523   6.738  0.00  0.00    +0.000 HD
ATOM     30  H   UNL     1      49.247   2.113   5.902  0.00  0.00    +0.000 HD
ENDBRANCH  23  26
ENDBRANCH  18  20
ENDBRANCH   1  18
TORSDOF 6
ENDMDL
MODEL 2
REMARK VINA RESULT:    -9.166      3.159      4.507
REMARK INTER + INTRA:         -12.652
REMARK INTER:                 -11.474
REMARK INTRA:                  -1.177
REMARK UNBOUND:                -0.270
REMARK  Name = 
REMARK  7 active torsions:
REMARK  status: ('A' for Active; 'I' for Inactive)
REMARK    1  A    between atoms: C_1  and  O_2
REMARK    2  A    between atoms: O_2  and  C_3
REMARK    3  A    between atoms: C_6  and  C_7
REMARK    4  A    between atoms: C_11  and  C_12
REMARK    5  A    between atoms: C_12  and  N_13
REMARK    6  A    between atoms: N_13  and  C_14
REMARK    7  A    between atoms: C_17  and  C_18
REMARK                            x       y       z     vdW  Elec       q    Type
REMARK                         _______ _______ _______ _____ _____    ______ ____
ROOT
ATOM      1  C   UNL     1      43.817   5.082  11.253  0.00  0.00    +0.000 C 
ATOM      2  C   UNL     1      43.075   6.380  11.020  0.00  0.00    +0.000 C 
ATOM      3  C   UNL     1      42.497   5.397  11.977  0.00  0.00    +0.000 C 
ENDROOT
BRANCH   1   8
ATOM      4  C   UNL     1      47.195   6.463  12.474  0.00  0.00    +0.000 A 
ATOM      5  C   UNL     1      47.562   5.498  13.418  0.00  0.00    +0.000 A 
ATOM      6  C   UNL     1      46.748   4.388  13.649  0.00  0.00    +0.000 A 
ATOM      7  C   UNL     1      45.553   4.236  12.943  0.00  0.00    +0.000 A 
ATOM      8  C   UNL     1      45.135   5.189  12.003  0.00  0.00    +0.000 A 
ATOM      9  C   UNL     1      45.977   6.286  11.796  0.00  0.00    +0.000 A 
BRANCH   4  13
ATOM     10  C   UNL     1      49.482   9.903  11.588  0.00  0.00    +0.000 A 
ATOM     11  C   UNL     1      50.123   8.676  11.529  0.00  0.00    +0.000 A 
ATOM     12  C   UNL     1      49.391   7.524  11.817  0.00  0.00    +0.000 A 
ATOM     13  C   UNL     1      48.038   7.623  12.156  0.00  0.00    +0.000 A 
ATOM     14  C   UNL     1      47.506   8.912  12.183  0.00  0.00    +0.000 A 
ATOM     15  N   UNL     1      48.184  10.035  11.906  0.00  0.00    +0.000 NA
BRANCH  10  17
ATOM     16  C   UNL     1      51.251  10.814  10.393  0.00  0.00    +0.000 C 
ATOM     17  O   UNL     1      50.194  11.053  11.331  0.00  0.00    +0.000 OA
ENDBRANCH  10  17
ENDBRANCH   4  13
ENDBRANCH   1   8
BRANCH   1  18
ATOM     18  N   UNL     1      43.690   3.844  10.479  0.00  0.00    +0.000 N 
ATOM     19  H   UNL     1      43.179   3.100  10.947  0.00  0.00    +0.000 HD
BRANCH  18  20
ATOM     20  C   UNL     1      44.529   3.356   9.470  0.00  0.00    +0.000 A 
ATOM     21  C   UNL     1      45.016   2.051   9.378  0.00  0.00    +0.000 A 
ATOM     22  C   UNL     1      45.964   1.739   8.391  0.00  0.00    +0.000 A 
ATOM     23  C   UNL     1      46.401   2.742   7.531  0.00  0.00    +0.000 A 
ATOM     24  N   UNL     1      45.945   4.020   7.586  0.00  0.00    +0.000 NA
ATOM     25  C   UNL     1      45.039   4.278   8.547  0.00  0.00    +0.000 A 
BRANCH  23  26
ATOM     26  C   UNL     1      47.421   2.459   6.492  0.00  0.00    +0.000 C 
ATOM     27  N   UNL     1      47.376   3.246   5.372  0.00  0.00    +0.000 N 
ATOM     28  O   UNL     1      48.263   1.591   6.609  0.00  0.00    +0.000 OA
ATOM     29  H   UNL     1      46.661   3.973   5.322  0.00  0.00    +0.000 HD
ATOM     30  H   UNL     1      48.047   3.122   4.636  0.00  0.00    +0.000 HD
ENDBRANCH  23  26
ENDBRANCH  18  20
ENDBRANCH   1  18
TORSDOF 6
ENDMDL
MODEL 3
REMARK VINA RESULT:    -8.437      1.616      8.006
REMARK INTER + INTRA:         -11.667
REMARK INTER:                 -10.731
REMARK INTRA:                  -0.937
REMARK UNBOUND:                -0.270
REMARK  Name = 
REMARK  7 active torsions:
REMARK  status: ('A' for Active; 'I' for Inactive)
REMARK    1  A    between atoms: C_1  and  O_2
REMARK    2  A    between atoms: O_2  and  C_3
REMARK    3  A    between atoms: C_6  and  C_7
REMARK    4  A    between atoms: C_11  and  C_12
REMARK    5  A    between atoms: C_12  and  N_13
REMARK    6  A    between atoms: N_13  and  C_14
REMARK    7  A    between atoms: C_17  and  C_18
REMARK                            x       y       z     vdW  Elec       q    Type
REMARK                         _______ _______ _______ _____ _____    ______ ____
ROOT
ATOM      1  C   UNL     1      46.210   7.447  12.501  0.00  0.00    +0.000 C 
ATOM      2  C   UNL     1      45.656   8.769  12.983  0.00  0.00    +0.000 C 
ATOM      3  C   UNL     1      46.655   8.781  11.878  0.00  0.00    +0.000 C 
ENDROOT
BRANCH   1   8
ATOM      4  C   UNL     1      44.882   4.723  10.127  0.00  0.00    +0.000 A 
ATOM      5  C   UNL     1      43.506   4.791  10.374  0.00  0.00    +0.000 A 
ATOM      6  C   UNL     1      42.993   5.722  11.276  0.00  0.00    +0.000 A 
ATOM      7  C   UNL     1      43.853   6.594  11.949  0.00  0.00    +0.000 A 
ATOM      8  C   UNL     1      45.240   6.548  11.749  0.00  0.00    +0.000 A 
ATOM      9  C   UNL     1      45.717   5.604  10.835  0.00  0.00    +0.000 A 
BRANCH   4  13
ATOM     10  C   UNL     1      46.629   2.195   7.228  0.00  0.00    +0.000 A 
ATOM     11  C   UNL     1      45.983   1.594   8.295  0.00  0.00    +0.000 A 
ATOM     12  C   UNL     1      45.397   2.405   9.268  0.00  0.00    +0.000 A 
ATOM     13  C   UNL     1      45.469   3.796   9.151  0.00  0.00    +0.000 A 
ATOM     14  C   UNL     1      46.147   4.283   8.034  0.00  0.00    +0.000 A 
ATOM     15  N   UNL     1      46.714   3.528   7.083  0.00  0.00    +0.000 NA
BRANCH  10  17
ATOM     16  C   UNL     1      47.956   2.209   5.324  0.00  0.00    +0.000 C 
ATOM     17  O   UNL     1      47.235   1.411   6.272  0.00  0.00    +0.000 OA
ENDBRANCH  10  17
ENDBRANCH   4  13
ENDBRANCH   1   8
BRANCH   1  18
ATOM     18  N   UNL     1      47.365   6.726  13.042  0.00  0.00    +0.000 N 
ATOM     19  H   UNL     1      48.051   6.440  12.347  0.00  0.00    +0.000 HD
BRANCH  18  20
ATOM     20  C   UNL     1      47.449   5.964  14.213  0.00  0.00    +0.000 A 
ATOM     21  C   UNL     1      48.276   6.235  15.304  0.00  0.00    +0.000 A 
ATOM     22  C   UNL     1      48.360   5.305  16.351  0.00  0.00    +0.000 A 
ATOM     23  C   UNL     1      47.622   4.128  16.273  0.00  0.00    +0.000 A 
ATOM     24  N   UNL     1      46.802   3.833  15.232  0.00  0.00    +0.000 NA
ATOM     25  C   UNL     1      46.749   4.750  14.248  0.00  0.00    +0.000 A 
BRANCH  23  26
ATOM     26  C   UNL     1      47.705   3.108  17.346  0.00  0.00    +0.000 C 
ATOM     27  N   UNL     1      48.953   2.867  17.855  0.00  0.00    +0.000 N 
ATOM     28  O   UNL     1      46.734   2.513  17.771  0.00  0.00    +0.000 OA
ATOM     29  H   UNL     1      49.739   3.400  17.478  0.00  0.00    +0.000 HD
ATOM     30  H   UNL     1      49.081   2.202  18.596  0.00  0.00    +0.000 HD
ENDBRANCH  23  26
ENDBRANCH  18  20
ENDBRANCH   1  18
TORSDOF 6
ENDMDL
MODEL 4
REMARK VINA RESULT:    -8.046      2.388      2.975
REMARK INTER + INTRA:         -11.138
REMARK INTER:                 -10.970
REMARK INTRA:                  -0.168
REMARK UNBOUND:                -0.270
REMARK  Name = 
REMARK  7 active torsions:
REMARK  status: ('A' for Active; 'I' for Inactive)
REMARK    1  A    between atoms: C_1  and  O_2
REMARK    2  A    between atoms: O_2  and  C_3
REMARK    3  A    between atoms: C_6  and  C_7
REMARK    4  A    between atoms: C_11  and  C_12
REMARK    5  A    between atoms: C_12  and  N_13
REMARK    6  A    between atoms: N_13  and  C_14
REMARK    7  A    between atoms: C_17  and  C_18
REMARK                            x       y       z     vdW  Elec       q    Type
REMARK                         _______ _______ _______ _____ _____    ______ ____
ROOT
ATOM      1  C   UNL     1      44.080   4.467  11.724  0.00  0.00    +0.000 C 
ATOM      2  C   UNL     1      43.502   3.897  13.001  0.00  0.00    +0.000 C 
ATOM      3  C   UNL     1      44.754   3.297  12.462  0.00  0.00    +0.000 C 
ENDROOT
BRANCH   1   8
ATOM      4  C   UNL     1      46.551   7.315  12.494  0.00  0.00    +0.000 A 
ATOM      5  C   UNL     1      45.872   8.418  11.967  0.00  0.00    +0.000 A 
ATOM      6  C   UNL     1      44.612   8.264  11.389  0.00  0.00    +0.000 A 
ATOM      7  C   UNL     1      44.019   7.001  11.325  0.00  0.00    +0.000 A 
ATOM      8  C   UNL     1      44.672   5.864  11.822  0.00  0.00    +0.000 A 
ATOM      9  C   UNL     1      45.932   6.057  12.396  0.00  0.00    +0.000 A 
BRANCH   4  13
ATOM     10  C   UNL     1      50.258   7.514  14.512  0.00  0.00    +0.000 A 
ATOM     11  C   UNL     1      50.065   8.372  13.442  0.00  0.00    +0.000 A 
ATOM     12  C   UNL     1      48.850   8.328  12.757  0.00  0.00    +0.000 A 
ATOM     13  C   UNL     1      47.857   7.428  13.158  0.00  0.00    +0.000 A 
ATOM     14  C   UNL     1      48.169   6.615  14.246  0.00  0.00    +0.000 A 
ATOM     15  N   UNL     1      49.325   6.641  14.925  0.00  0.00    +0.000 NA
BRANCH  10  17
ATOM     16  C   UNL     1      52.398   8.410  14.558  0.00  0.00    +0.000 C 
ATOM     17  O   UNL     1      51.459   7.526  15.184  0.00  0.00    +0.000 OA
ENDBRANCH  10  17
ENDBRANCH   4  13
ENDBRANCH   1   8
BRANCH   1  18
ATOM     18  N   UNL     1      43.740   4.077  10.353  0.00  0.00    +0.000 N 
ATOM     19  H   UNL     1      42.760   3.847  10.206  0.00  0.00    +0.000 HD
BRANCH  18  20
ATOM     20  C   UNL     1      44.567   3.510   9.376  0.00  0.00    +0.000 A 
ATOM     21  C   UNL     1      44.852   2.151   9.239  0.00  0.00    +0.000 A 
ATOM     22  C   UNL     1      45.812   1.740   8.301  0.00  0.00    +0.000 A 
ATOM     23  C   UNL     1      46.463   2.702   7.534  0.00  0.00    +0.000 A 
ATOM     24  N   UNL     1      46.208   4.032   7.634  0.00  0.00    +0.000 NA
ATOM     25  C   UNL     1      45.282   4.384   8.545  0.00  0.00    +0.000 A 
BRANCH  23  26
ATOM     26  C   UNL     1      47.503   2.311   6.551  0.00  0.00    +0.000 C 
ATOM     27  N   UNL     1      47.561   3.058   5.404  0.00  0.00    +0.000 N 
ATOM     28  O   UNL     1      48.275   1.391   6.734  0.00  0.00    +0.000 OA
ATOM     29  H   UNL     1      46.902   3.831   5.299  0.00  0.00    +0.000 HD
ATOM     30  H   UNL     1      48.251   2.861   4.703  0.00  0.00    +0.000 HD
ENDBRANCH  23  26
ENDBRANCH  18  20
ENDBRANCH   1  18
TORSDOF 6
ENDMDL
MODEL 5
REMARK VINA RESULT:    -7.436      3.306      8.522
REMARK INTER + INTRA:         -10.315
REMARK INTER:                  -9.314
REMARK INTRA:                  -1.000
REMARK UNBOUND:                -0.270
REMARK  Name = 
REMARK  7 active torsions:
REMARK  status: ('A' for Active; 'I' for Inactive)
REMARK    1  A    between atoms: C_1  and  O_2
REMARK    2  A    between atoms: O_2  and  C_3
REMARK    3  A    between atoms: C_6  and  C_7
REMARK    4  A    between atoms: C_11  and  C_12
REMARK    5  A    between atoms: C_12  and  N_13
REMARK    6  A    between atoms: N_13  and  C_14
REMARK    7  A    between atoms: C_17  and  C_18
REMARK                            x       y       z     vdW  Elec       q    Type
REMARK                         _______ _______ _______ _____ _____    ______ ____
ROOT
ATOM      1  C   UNL     1      48.356   4.927  17.313  0.00  0.00    +0.000 C 
ATOM      2  C   UNL     1      47.144   4.110  17.702  0.00  0.00    +0.000 C 
ATOM      3  C   UNL     1      47.418   5.369  18.449  0.00  0.00    +0.000 C 
ENDROOT
BRANCH   1   8
ATOM      4  C   UNL     1      47.293   5.764  13.710  0.00  0.00    +0.000 A 
ATOM      5  C   UNL     1      48.051   6.912  13.459  0.00  0.00    +0.000 A 
ATOM      6  C   UNL     1      48.925   7.409  14.426  0.00  0.00    +0.000 A 
ATOM      7  C   UNL     1      49.044   6.766  15.661  0.00  0.00    +0.000 A 
ATOM      8  C   UNL     1      48.289   5.624  15.963  0.00  0.00    +0.000 A 
ATOM      9  C   UNL     1      47.427   5.153  14.969  0.00  0.00    +0.000 A 
BRANCH   4  13
ATOM     10  C   UNL     1      44.702   3.912  10.933  0.00  0.00    +0.000 A 
ATOM     11  C   UNL     1      45.150   5.189  10.637  0.00  0.00    +0.000 A 
ATOM     12  C   UNL     1      46.007   5.824  11.537  0.00  0.00    +0.000 A 
ATOM     13  C   UNL     1      46.396   5.169  12.710  0.00  0.00    +0.000 A 
ATOM     14  C   UNL     1      45.878   3.889  12.897  0.00  0.00    +0.000 A 
ATOM     15  N   UNL     1      45.059   3.253  12.047  0.00  0.00    +0.000 NA
BRANCH  10  17
ATOM     16  C   UNL     1      44.511   2.282   9.293  0.00  0.00    +0.000 C 
ATOM     17  O   UNL     1      43.837   3.280  10.069  0.00  0.00    +0.000 OA
ENDBRANCH  10  17
ENDBRANCH   4  13
ENDBRANCH   1   8
BRANCH   1  18
ATOM     18  N   UNL     1      49.724   4.768  17.815  0.00  0.00    +0.000 N 
ATOM     19  H   UNL     1      50.229   5.639  17.958  0.00  0.00    +0.000 HD
BRANCH  18  20
ATOM     20  C   UNL     1      50.586   3.675  17.667  0.00  0.00    +0.000 A 
ATOM     21  C   UNL     1      50.213   2.391  17.267  0.00  0.00    +0.000 A 
ATOM     22  C   UNL     1      51.162   1.357  17.300  0.00  0.00    +0.000 A 
ATOM     23  C   UNL     1      52.453   1.637  17.738  0.00  0.00    +0.000 A 
ATOM     24  N   UNL     1      52.855   2.874  18.127  0.00  0.00    +0.000 NA
ATOM     25  C   UNL     1      51.915   3.837  18.082  0.00  0.00    +0.000 A 
BRANCH  23  26
ATOM     26  C   UNL     1      53.477   0.566  17.813  0.00  0.00    +0.000 C 
ATOM     27  N   UNL     1      53.104  -0.582  18.459  0.00  0.00    +0.000 N 
ATOM     28  O   UNL     1      54.586   0.676  17.329  0.00  0.00    +0.000 OA
ATOM     29  H   UNL     1      52.157  -0.637  18.838  0.00  0.00    +0.000 HD
ATOM     30  H   UNL     1      53.740  -1.355  18.532  0.00  0.00    +0.000 HD
ENDBRANCH  23  26
ENDBRANCH  18  20
ENDBRANCH   1  18
TORSDOF 6
ENDMDL
MODEL 6
REMARK VINA RESULT:    -7.385      2.120      7.830
REMARK INTER + INTRA:         -10.246
REMARK INTER:                  -9.510
REMARK INTRA:                  -0.736
REMARK UNBOUND:                -0.270
REMARK  Name = 
REMARK  7 active torsions:
REMARK  status: ('A' for Active; 'I' for Inactive)
REMARK    1  A    between atoms: C_1  and  O_2
REMARK    2  A    between atoms: O_2  and  C_3
REMARK    3  A    between atoms: C_6  and  C_7
REMARK    4  A    between atoms: C_11  and  C_12
REMARK    5  A    between atoms: C_12  and  N_13
REMARK    6  A    between atoms: N_13  and  C_14
REMARK    7  A    between atoms: C_17  and  C_18
REMARK                            x       y       z     vdW  Elec       q    Type
REMARK                         _______ _______ _______ _____ _____    ______ ____
ROOT
ATOM      1  C   UNL     1      48.376   8.498  13.077  0.00  0.00    +0.000 C 
ATOM      2  C   UNL     1      48.657   9.936  13.457  0.00  0.00    +0.000 C 
ATOM      3  C   UNL     1      49.419   9.342  12.324  0.00  0.00    +0.000 C 
ENDROOT
BRANCH   1   8
ATOM      4  C   UNL     1      45.520   6.654  11.275  0.00  0.00    +0.000 A 
ATOM      5  C   UNL     1      44.505   7.616  11.311  0.00  0.00    +0.000 A 
ATOM      6  C   UNL     1      44.735   8.866  11.886  0.00  0.00    +0.000 A 
ATOM      7  C   UNL     1      45.982   9.166  12.438  0.00  0.00    +0.000 A 
ATOM      8  C   UNL     1      47.022   8.225  12.441  0.00  0.00    +0.000 A 
ATOM      9  C   UNL     1      46.756   6.985  11.855  0.00  0.00    +0.000 A 
BRANCH   4  13
ATOM     10  C   UNL     1      45.082   2.949   9.292  0.00  0.00    +0.000 A 
ATOM     11  C   UNL     1      44.759   2.996  10.639  0.00  0.00    +0.000 A 
ATOM     12  C   UNL     1      44.895   4.207  11.318  0.00  0.00    +0.000 A 
ATOM     13  C   UNL     1      45.348   5.342  10.638  0.00  0.00    +0.000 A 
ATOM     14  C   UNL     1      45.642   5.168   9.286  0.00  0.00    +0.000 A 
ATOM     15  N   UNL     1      45.515   4.019   8.607  0.00  0.00    +0.000 NA
BRANCH  10  17
ATOM     16  C   UNL     1      46.255   1.318   8.132  0.00  0.00    +0.000 C 
ATOM     17  O   UNL     1      44.978   1.757   8.611  0.00  0.00    +0.000 OA
ENDBRANCH  10  17
ENDBRANCH   4  13
ENDBRANCH   1   8
BRANCH   1  18
ATOM     18  N   UNL     1      49.003   7.300  13.643  0.00  0.00    +0.000 N 
ATOM     19  H   UNL     1      49.579   6.774  12.990  0.00  0.00    +0.000 HD
BRANCH  18  20
ATOM     20  C   UNL     1      48.574   6.517  14.721  0.00  0.00    +0.000 A 
ATOM     21  C   UNL     1      48.921   6.713  16.059  0.00  0.00    +0.000 A 
ATOM     22  C   UNL     1      48.532   5.764  17.016  0.00  0.00    +0.000 A 
ATOM     23  C   UNL     1      47.816   4.644  16.607  0.00  0.00    +0.000 A 
ATOM     24  N   UNL     1      47.454   4.422  15.317  0.00  0.00    +0.000 NA
ATOM     25  C   UNL     1      47.847   5.355  14.430  0.00  0.00    +0.000 A 
BRANCH  23  26
ATOM     26  C   UNL     1      47.409   3.604  17.584  0.00  0.00    +0.000 C 
ATOM     27  N   UNL     1      48.207   3.471  18.690  0.00  0.00    +0.000 N 
ATOM     28  O   UNL     1      46.427   2.906  17.438  0.00  0.00    +0.000 OA
ATOM     29  H   UNL     1      49.015   4.089  18.780  0.00  0.00    +0.000 HD
ATOM     30  H   UNL     1      47.982   2.800  19.402  0.00  0.00    +0.000 HD
ENDBRANCH  23  26
ENDBRANCH  18  20
ENDBRANCH   1  18
TORSDOF 6
ENDMDL
MODEL 7
REMARK VINA RESULT:    -7.183      2.515      7.980
REMARK INTER + INTRA:          -9.972
REMARK INTER:                  -8.912
REMARK INTRA:                  -1.060
REMARK UNBOUND:                -0.270
REMARK  Name = 
REMARK  7 active torsions:
REMARK  status: ('A' for Active; 'I' for Inactive)
REMARK    1  A    between atoms: C_1  and  O_2
REMARK    2  A    between atoms: O_2  and  C_3
REMARK    3  A    between atoms: C_6  and  C_7
REMARK    4  A    between atoms: C_11  and  C_12
REMARK    5  A    between atoms: C_12  and  N_13
REMARK    6  A    between atoms: N_13  and  C_14
REMARK    7  A    between atoms: C_17  and  C_18
REMARK                            x       y       z     vdW  Elec       q    Type
REMARK                         _______ _______ _______ _____ _____    ______ ____
ROOT
ATOM      1  C   UNL     1      45.908   7.933  12.007  0.00  0.00    +0.000 C 
ATOM      2  C   UNL     1      45.237   8.978  12.871  0.00  0.00    +0.000 C 
ATOM      3  C   UNL     1      45.728   9.382  11.524  0.00  0.00    +0.000 C 
ENDROOT
BRANCH   1   8
ATOM      4  C   UNL     1      44.767   4.784  10.112  0.00  0.00    +0.000 A 
ATOM      5  C   UNL     1      43.416   4.722  10.470  0.00  0.00    +0.000 A 
ATOM      6  C   UNL     1      42.856   5.698  11.295  0.00  0.00    +0.000 A 
ATOM      7  C   UNL     1      43.645   6.745  11.777  0.00  0.00    +0.000 A 
ATOM      8  C   UNL     1      45.008   6.836  11.461  0.00  0.00    +0.000 A 
ATOM      9  C   UNL     1      45.533   5.842  10.630  0.00  0.00    +0.000 A 
BRANCH   4  13
ATOM     10  C   UNL     1      46.510   1.859   7.612  0.00  0.00    +0.000 A 
ATOM     11  C   UNL     1      46.665   3.186   7.247  0.00  0.00    +0.000 A 
ATOM     12  C   UNL     1      46.099   4.173   8.055  0.00  0.00    +0.000 A 
ATOM     13  C   UNL     1      45.394   3.812   9.207  0.00  0.00    +0.000 A 
ATOM     14  C   UNL     1      45.304   2.445   9.467  0.00  0.00    +0.000 A 
ATOM     15  N   UNL     1      45.843   1.476   8.712  0.00  0.00    +0.000 NA
BRANCH  10  17
ATOM     16  C   UNL     1      46.733  -0.434   7.325  0.00  0.00    +0.000 C 
ATOM     17  O   UNL     1      47.039   0.870   6.814  0.00  0.00    +0.000 OA
ENDBRANCH  10  17
ENDBRANCH   4  13
ENDBRANCH   1   8
BRANCH   1  18
ATOM     18  N   UNL     1      47.328   7.569  12.009  0.00  0.00    +0.000 N 
ATOM     19  H   UNL     1      47.674   7.205  11.125  0.00  0.00    +0.000 HD
BRANCH  18  20
ATOM     20  C   UNL     1      48.130   7.185  13.090  0.00  0.00    +0.000 A 
ATOM     21  C   UNL     1      47.737   6.353  14.140  0.00  0.00    +0.000 A 
ATOM     22  C   UNL     1      48.601   6.167  15.230  0.00  0.00    +0.000 A 
ATOM     23  C   UNL     1      49.827   6.825  15.243  0.00  0.00    +0.000 A 
ATOM     24  N   UNL     1      50.246   7.636  14.237  0.00  0.00    +0.000 NA
ATOM     25  C   UNL     1      49.389   7.788  13.211  0.00  0.00    +0.000 A 
BRANCH  23  26
ATOM     26  C   UNL     1      50.756   6.677  16.389  0.00  0.00    +0.000 C 
ATOM     27  N   UNL     1      51.120   7.834  17.025  0.00  0.00    +0.000 N 
ATOM     28  O   UNL     1      51.177   5.601  16.765  0.00  0.00    +0.000 OA
ATOM     29  H   UNL     1      50.731   8.715  16.684  0.00  0.00    +0.000 HD
ATOM     30  H   UNL     1      51.732   7.807  17.820  0.00  0.00    +0.000 HD
ENDBRANCH  23  26
ENDBRANCH  18  20
ENDBRANCH   1  18
TORSDOF 6
ENDMDL
MODEL 8
REMARK VINA RESULT:    -6.989      3.308      7.788
REMARK INTER + INTRA:          -9.711
REMARK INTER:                  -8.688
REMARK INTRA:                  -1.023
REMARK UNBOUND:                -0.270
REMARK  Name = 
REMARK  7 active torsions:
REMARK  status: ('A' for Active; 'I' for Inactive)
REMARK    1  A    between atoms: C_1  and  O_2
REMARK    2  A    between atoms: O_2  and  C_3
REMARK    3  A    between atoms: C_6  and  C_7
REMARK    4  A    between atoms: C_11  and  C_12
REMARK    5  A    between atoms: C_12  and  N_13
REMARK    6  A    between atoms: N_13  and  C_14
REMARK    7  A    between atoms: C_17  and  C_18
REMARK                            x       y       z     vdW  Elec       q    Type
REMARK                         _______ _______ _______ _____ _____    ______ ____
ROOT
ATOM      1  C   UNL     1      46.576   5.001  14.039  0.00  0.00    +0.000 C 
ATOM      2  C   UNL     1      47.378   3.785  14.447  0.00  0.00    +0.000 C 
ATOM      3  C   UNL     1      46.443   4.382  15.441  0.00  0.00    +0.000 C 
ENDROOT
BRANCH   1   8
ATOM      4  C   UNL     1      44.857   4.034  10.735  0.00  0.00    +0.000 A 
ATOM      5  C   UNL     1      43.511   4.238  11.055  0.00  0.00    +0.000 A 
ATOM      6  C   UNL     1      43.146   4.710  12.316  0.00  0.00    +0.000 A 
ATOM      7  C   UNL     1      44.126   4.978  13.275  0.00  0.00    +0.000 A 
ATOM      8  C   UNL     1      45.486   4.769  13.004  0.00  0.00    +0.000 A 
ATOM      9  C   UNL     1      45.814   4.297  11.730  0.00  0.00    +0.000 A 
BRANCH   4  13
ATOM     10  C   UNL     1      46.155   2.913   6.873  0.00  0.00    +0.000 A 
ATOM     11  C   UNL     1      45.792   1.900   7.745  0.00  0.00    +0.000 A 
ATOM     12  C   UNL     1      45.360   2.241   9.027  0.00  0.00    +0.000 A 
ATOM     13  C   UNL     1      45.299   3.586   9.407  0.00  0.00    +0.000 A 
ATOM     14  C   UNL     1      45.692   4.513   8.443  0.00  0.00    +0.000 A 
ATOM     15  N   UNL     1      46.105   4.213   7.203  0.00  0.00    +0.000 NA
BRANCH  10  17
ATOM     16  C   UNL     1      48.004   2.271   5.627  0.00  0.00    +0.000 C 
ATOM     17  O   UNL     1      46.608   2.594   5.613  0.00  0.00    +0.000 OA
ENDBRANCH  10  17
ENDBRANCH   4  13
ENDBRANCH   1   8
BRANCH   1  18
ATOM     18  N   UNL     1      46.990   6.403  14.139  0.00  0.00    +0.000 N 
ATOM     19  H   UNL     1      46.258   7.043  14.440  0.00  0.00    +0.000 HD
BRANCH  18  20
ATOM     20  C   UNL     1      48.016   7.061  13.451  0.00  0.00    +0.000 A 
ATOM     21  C   UNL     1      48.017   7.370  12.090  0.00  0.00    +0.000 A 
ATOM     22  C   UNL     1      49.176   7.905  11.507  0.00  0.00    +0.000 A 
ATOM     23  C   UNL     1      50.302   8.108  12.300  0.00  0.00    +0.000 A 
ATOM     24  N   UNL     1      50.336   7.826  13.628  0.00  0.00    +0.000 NA
ATOM     25  C   UNL     1      49.206   7.315  14.148  0.00  0.00    +0.000 A 
BRANCH  23  26
ATOM     26  C   UNL     1      51.554   8.646  11.716  0.00  0.00    +0.000 C 
ATOM     27  N   UNL     1      52.690   7.915  11.944  0.00  0.00    +0.000 N 
ATOM     28  O   UNL     1      51.594   9.669  11.062  0.00  0.00    +0.000 OA
ATOM     29  H   UNL     1      52.608   7.054  12.487  0.00  0.00    +0.000 HD
ATOM     30  H   UNL     1      53.570   8.210  11.564  0.00  0.00    +0.000 HD
ENDBRANCH  23  26
ENDBRANCH  18  20
ENDBRANCH   1  18
TORSDOF 6
ENDMDL
MODEL 9
REMARK VINA RESULT:    -6.981      2.563      8.635
REMARK INTER + INTRA:          -9.700
REMARK INTER:                  -8.608
REMARK INTRA:                  -1.092
REMARK UNBOUND:                -0.270
REMARK  Name = 
REMARK  7 active torsions:
REMARK  status: ('A' for Active; 'I' for Inactive)
REMARK    1  A    between atoms: C_1  and  O_2
REMARK    2  A    between atoms: O_2  and  C_3
REMARK    3  A    between atoms: C_6  and  C_7
REMARK    4  A    between atoms: C_11  and  C_12
REMARK    5  A    between atoms: C_12  and  N_13
REMARK    6  A    between atoms: N_13  and  C_14
REMARK    7  A    between atoms: C_17  and  C_18
REMARK                            x       y       z     vdW  Elec       q    Type
REMARK                         _______ _______ _______ _____ _____    ______ ____
ROOT
ATOM      1  C   UNL     1      49.267   8.333  12.910  0.00  0.00    +0.000 C 
ATOM      2  C   UNL     1      49.934   9.602  12.426  0.00  0.00    +0.000 C 
ATOM      3  C   UNL     1      50.330   8.311  11.799  0.00  0.00    +0.000 C 
ENDROOT
BRANCH   1   8
ATOM      4  C   UNL     1      46.004   6.779  11.587  0.00  0.00    +0.000 A 
ATOM      5  C   UNL     1      45.071   7.763  11.932  0.00  0.00    +0.000 A 
ATOM      6  C   UNL     1      45.481   8.938  12.564  0.00  0.00    +0.000 A 
ATOM      7  C   UNL     1      46.831   9.138  12.864  0.00  0.00    +0.000 A 
ATOM      8  C   UNL     1      47.797   8.171  12.554  0.00  0.00    +0.000 A 
ATOM      9  C   UNL     1      47.350   7.008  11.920  0.00  0.00    +0.000 A 
BRANCH   4  13
ATOM     10  C   UNL     1      44.902   3.164   9.700  0.00  0.00    +0.000 A 
ATOM     11  C   UNL     1      45.309   4.211   8.889  0.00  0.00    +0.000 A 
ATOM     12  C   UNL     1      45.679   5.416   9.486  0.00  0.00    +0.000 A 
ATOM     13  C   UNL     1      45.634   5.548  10.877  0.00  0.00    +0.000 A 
ATOM     14  C   UNL     1      45.206   4.426  11.585  0.00  0.00    +0.000 A 
ATOM     15  N   UNL     1      44.851   3.254  11.038  0.00  0.00    +0.000 NA
BRANCH  10  17
ATOM     16  C   UNL     1      45.603   1.330   8.463  0.00  0.00    +0.000 C 
ATOM     17  O   UNL     1      44.509   1.975   9.127  0.00  0.00    +0.000 OA
ENDBRANCH  10  17
ENDBRANCH   4  13
ENDBRANCH   1   8
BRANCH   1  18
ATOM     18  N   UNL     1      49.687   7.492  14.034  0.00  0.00    +0.000 N 
ATOM     19  H   UNL     1      50.171   6.638  13.769  0.00  0.00    +0.000 HD
BRANCH  18  20
ATOM     20  C   UNL     1      49.132   7.407  15.316  0.00  0.00    +0.000 A 
ATOM     21  C   UNL     1      48.891   8.483  16.173  0.00  0.00    +0.000 A 
ATOM     22  C   UNL     1      48.463   8.235  17.486  0.00  0.00    +0.000 A 
ATOM     23  C   UNL     1      48.295   6.919  17.906  0.00  0.00    +0.000 A 
ATOM     24  N   UNL     1      48.512   5.847  17.100  0.00  0.00    +0.000 NA
ATOM     25  C   UNL     1      48.922   6.128  15.850  0.00  0.00    +0.000 A 
BRANCH  23  26
ATOM     26  C   UNL     1      47.869   6.614  19.294  0.00  0.00    +0.000 C 
ATOM     27  N   UNL     1      46.921   5.635  19.433  0.00  0.00    +0.000 N 
ATOM     28  O   UNL     1      48.326   7.181  20.266  0.00  0.00    +0.000 OA
ATOM     29  H   UNL     1      46.574   5.176  18.589  0.00  0.00    +0.000 HD
ATOM     30  H   UNL     1      46.599   5.365  20.344  0.00  0.00    +0.000 HD
ENDBRANCH  23  26
ENDBRANCH  18  20
ENDBRANCH   1  18
TORSDOF 6
ENDMDL
