MODEL 1
REMARK VINA RESULT:    -9.056      0.000      0.000
REMARK INTER + INTRA:         -13.285
REMARK INTER:                 -12.232
REMARK INTRA:                  -1.053
REMARK UNBOUND:                -1.053
REMARK  Name = 
REMARK  6 active torsions:
REMARK  status: ('A' for Active; 'I' for Inactive)
REMARK    1  A    between atoms: C_7  and  C_8
REMARK    2  A    between atoms: N_10  and  C_11
REMARK    3  A    between atoms: C_11  and  C_12
REMARK    4  A    between atoms: C_15  and  O_16
REMARK    5  A    between atoms: O_16  and  C_17
REMARK    6  A    between atoms: C_17  and  C_18
REMARK                            x       y       z     vdW  Elec       q    Type
REMARK                         _______ _______ _______ _____ _____    ______ ____
ROOT
ATOM      1  C   UNL     1      48.406   6.681  14.146  0.00  0.00    +0.000 C 
ATOM      2  O   UNL     1      49.078   6.651  13.118  0.00  0.00    +0.000 OA
ATOM      3  N   UNL     1      47.099   7.100  14.142  0.00  0.00    +0.000 N 
ATOM      4  H   UNL     1      46.541   7.077  14.993  0.00  0.00    +0.000 HD
ENDROOT
BRANCH   1  11
ATOM      5  N   UNL     1      48.307   2.953  19.728  0.00  0.00    +0.000 N 
ATOM      6  C   UNL     1      48.460   3.750  18.641  0.00  0.00    +0.000 A 
ATOM      7  N   UNL     1      49.408   4.643  18.610  0.00  0.00    +0.000 NA
ATOM      8  C   UNL     1      49.429   5.375  17.472  0.00  0.00    +0.000 A 
ATOM      9  N   UNL     1      50.335   6.363  17.232  0.00  0.00    +0.000 N 
ATOM     10  C   UNL     1      50.068   6.922  16.009  0.00  0.00    +0.000 A 
ATOM     11  C   UNL     1      48.968   6.287  15.439  0.00  0.00    +0.000 A 
ATOM     12  C   UNL     1      48.591   5.284  16.383  0.00  0.00    +0.000 A 
ATOM     13  C   UNL     1      47.569   4.269  16.432  0.00  0.00    +0.000 A 
ATOM     14  O   UNL     1      46.786   4.035  15.519  0.00  0.00    +0.000 OA
ATOM     15  N   UNL     1      47.559   3.558  17.617  0.00  0.00    +0.000 N 
ATOM     16  H   UNL     1      48.842   3.290  20.523  0.00  0.00    +0.000 HD
ATOM     17  H   UNL     1      47.362   2.694  19.976  0.00  0.00    +0.000 HD
ATOM     18  H   UNL     1      51.072   6.632  17.869  0.00  0.00    +0.000 HD
ATOM     19  H   UNL     1      46.886   2.815  17.673  0.00  0.00    +0.000 HD
ENDBRANCH   1  11
BRANCH   3  20
ATOM     20  C   UNL     1      46.474   7.547  12.925  0.00  0.00    +0.000 C 
BRANCH  20  21
ATOM     21  C   UNL     1      45.916   6.400  12.127  0.00  0.00    +0.000 A 
ATOM     22  C   UNL     1      46.017   6.366  10.730  0.00  0.00    +0.000 A 
ATOM     23  C   UNL     1      45.513   5.277  10.010  0.00  0.00    +0.000 A 
ATOM     24  C   UNL     1      44.909   4.209  10.675  0.00  0.00    +0.000 A 
ATOM     25  C   UNL     1      44.750   4.270  12.060  0.00  0.00    +0.000 A 
ATOM     26  C   UNL     1      45.257   5.354  12.782  0.00  0.00    +0.000 A 
BRANCH  24  27
ATOM     27  O   UNL     1      44.513   3.156   9.889  0.00  0.00    +0.000 OA
BRANCH  27  28
ATOM     28  C   UNL     1      44.583   3.405   8.482  0.00  0.00    +0.000 C 
BRANCH  28  29
ATOM     29  C   UNL     1      45.752   2.670   7.882  0.00  0.00    +0.000 A 
ATOM     30  C   UNL     1      45.992   1.333   8.212  0.00  0.00    +0.000 A 
ATOM     31  C   UNL     1      47.056   0.678   7.612  0.00  0.00    +0.000 A 
ATOM     32  N   UNL     1      47.885   1.258   6.720  0.00  0.00    +0.000 NA
ATOM     33  C   UNL     1      47.642   2.553   6.420  0.00  0.00    +0.000 A 
ATOM     34  C   UNL     1      46.604   3.292   6.966  0.00  0.00    +0.000 A 
ENDBRANCH  28  29
ENDBRANCH  27  28
ENDBRANCH  24  27
ENDBRANCH  20  21
ENDBRANCH   3  20
TORSDOF 6
ENDMDL
MODEL 2
REMARK VINA RESULT:    -8.800      0.245      1.272
REMARK INTER + INTRA:         -12.939
REMARK INTER:                 -11.813
REMARK INTRA:                  -1.126
REMARK UNBOUND:                -1.053
REMARK  Name = 
REMARK  6 active torsions:
REMARK  status: ('A' for Active; 'I' for Inactive)
REMARK    1  A    between atoms: C_7  and  C_8
REMARK    2  A    between atoms: N_10  and  C_11
REMARK    3  A    between atoms: C_11  and  C_12
REMARK    4  A    between atoms: C_15  and  O_16
REMARK    5  A    between atoms: O_16  and  C_17
REMARK    6  A    between atoms: C_17  and  C_18
REMARK                            x       y       z     vdW  Elec       q    Type
REMARK                         _______ _______ _______ _____ _____    ______ ____
ROOT
ATOM      1  C   UNL     1      48.503   6.978  14.309  0.00  0.00    +0.000 C 
ATOM      2  O   UNL     1      49.238   7.371  13.406  0.00  0.00    +0.000 OA
ATOM      3  N   UNL     1      47.136   6.987  14.182  0.00  0.00    +0.000 N 
ATOM      4  H   UNL     1      46.541   6.615  14.919  0.00  0.00    +0.000 HD
ENDROOT
BRANCH   1  11
ATOM      5  N   UNL     1      48.310   2.865  19.611  0.00  0.00    +0.000 N 
ATOM      6  C   UNL     1      48.481   3.737  18.586  0.00  0.00    +0.000 A 
ATOM      7  N   UNL     1      49.431   4.626  18.632  0.00  0.00    +0.000 NA
ATOM      8  C   UNL     1      49.472   5.436  17.549  0.00  0.00    +0.000 A 
ATOM      9  N   UNL     1      50.383   6.435  17.393  0.00  0.00    +0.000 N 
ATOM     10  C   UNL     1      50.136   7.080  16.209  0.00  0.00    +0.000 A 
ATOM     11  C   UNL     1      49.044   6.491  15.579  0.00  0.00    +0.000 A 
ATOM     12  C   UNL     1      48.650   5.425  16.443  0.00  0.00    +0.000 A 
ATOM     13  C   UNL     1      47.625   4.413  16.406  0.00  0.00    +0.000 A 
ATOM     14  O   UNL     1      46.856   4.247  15.466  0.00  0.00    +0.000 OA
ATOM     15  N   UNL     1      47.596   3.620  17.537  0.00  0.00    +0.000 N 
ATOM     16  H   UNL     1      48.833   3.143  20.436  0.00  0.00    +0.000 HD
ATOM     17  H   UNL     1      47.360   2.592  19.826  0.00  0.00    +0.000 HD
ATOM     18  H   UNL     1      51.111   6.657  18.058  0.00  0.00    +0.000 HD
ATOM     19  H   UNL     1      46.919   2.877  17.531  0.00  0.00    +0.000 HD
ENDBRANCH   1  11
BRANCH   3  20
ATOM     20  C   UNL     1      46.512   7.487  12.985  0.00  0.00    +0.000 C 
BRANCH  20  21
ATOM     21  C   UNL     1      46.017   6.373  12.103  0.00  0.00    +0.000 A 
ATOM     22  C   UNL     1      45.397   5.238  12.641  0.00  0.00    +0.000 A 
ATOM     23  C   UNL     1      44.922   4.224  11.800  0.00  0.00    +0.000 A 
ATOM     24  C   UNL     1      45.055   4.336  10.415  0.00  0.00    +0.000 A 
ATOM     25  C   UNL     1      45.728   5.435   9.881  0.00  0.00    +0.000 A 
ATOM     26  C   UNL     1      46.199   6.450  10.717  0.00  0.00    +0.000 A 
BRANCH  24  27
ATOM     27  O   UNL     1      44.492   3.328   9.674  0.00  0.00    +0.000 OA
BRANCH  27  28
ATOM     28  C   UNL     1      44.597   3.500   8.258  0.00  0.00    +0.000 C 
BRANCH  28  29
ATOM     29  C   UNL     1      45.773   2.725   7.727  0.00  0.00    +0.000 A 
ATOM     30  C   UNL     1      46.679   3.328   6.848  0.00  0.00    +0.000 A 
ATOM     31  C   UNL     1      47.769   2.595   6.408  0.00  0.00    +0.000 A 
ATOM     32  N   UNL     1      48.015   1.322   6.778  0.00  0.00    +0.000 NA
ATOM     33  C   UNL     1      47.125   0.754   7.622  0.00  0.00    +0.000 A 
ATOM     34  C   UNL     1      46.005   1.404   8.117  0.00  0.00    +0.000 A 
ENDBRANCH  28  29
ENDBRANCH  27  28
ENDBRANCH  24  27
ENDBRANCH  20  21
ENDBRANCH   3  20
TORSDOF 6
ENDMDL
MODEL 3
REMARK VINA RESULT:    -8.390      1.836      2.717
REMARK INTER + INTRA:         -12.386
REMARK INTER:                 -11.677
REMARK INTRA:                  -0.708
REMARK UNBOUND:                -1.053
REMARK  Name = 
REMARK  6 active torsions:
REMARK  status: ('A' for Active; 'I' for Inactive)
REMARK    1  A    between atoms: C_7  and  C_8
REMARK    2  A    between atoms: N_10  and  C_11
REMARK    3  A    between atoms: C_11  and  C_12
REMARK    4  A    between atoms: C_15  and  O_16
REMARK    5  A    between atoms: O_16  and  C_17
REMARK    6  A    between atoms: C_17  and  C_18
REMARK                            x       y       z     vdW  Elec       q    Type
REMARK                         _______ _______ _______ _____ _____    ______ ____
ROOT
ATOM      1  C   UNL     1      47.256   4.327  16.251  0.00  0.00    +0.000 C 
ATOM      2  O   UNL     1      46.491   3.635  16.920  0.00  0.00    +0.000 OA
ATOM      3  N   UNL     1      46.897   4.816  15.020  0.00  0.00    +0.000 N 
ATOM      4  H   UNL     1      47.522   5.425  14.498  0.00  0.00    +0.000 HD
ENDROOT
BRANCH   1  11
ATOM      5  N   UNL     1      53.319   2.529  18.502  0.00  0.00    +0.000 N 
ATOM      6  C   UNL     1      52.147   3.028  18.035  0.00  0.00    +0.000 A 
ATOM      7  N   UNL     1      51.948   4.315  18.000  0.00  0.00    +0.000 NA
ATOM      8  C   UNL     1      50.730   4.665  17.527  0.00  0.00    +0.000 A 
ATOM      9  N   UNL     1      50.314   5.955  17.408  0.00  0.00    +0.000 N 
ATOM     10  C   UNL     1      49.031   5.965  16.925  0.00  0.00    +0.000 A 
ATOM     11  C   UNL     1      48.601   4.656  16.725  0.00  0.00    +0.000 A 
ATOM     12  C   UNL     1      49.714   3.842  17.093  0.00  0.00    +0.000 A 
ATOM     13  C   UNL     1      49.972   2.424  17.117  0.00  0.00    +0.000 A 
ATOM     14  O   UNL     1      49.185   1.575  16.713  0.00  0.00    +0.000 OA
ATOM     15  N   UNL     1      51.213   2.101  17.628  0.00  0.00    +0.000 N 
ATOM     16  H   UNL     1      53.864   3.235  18.989  0.00  0.00    +0.000 HD
ATOM     17  H   UNL     1      53.276   1.654  19.006  0.00  0.00    +0.000 HD
ATOM     18  H   UNL     1      50.872   6.763  17.650  0.00  0.00    +0.000 HD
ATOM     19  H   UNL     1      51.445   1.123  17.624  0.00  0.00    +0.000 HD
ENDBRANCH   1  11
BRANCH   3  20
ATOM     20  C   UNL     1      45.609   4.509  14.455  0.00  0.00    +0.000 C 
BRANCH  20  21
ATOM     21  C   UNL     1      45.613   4.628  12.954  0.00  0.00    +0.000 A 
ATOM     22  C   UNL     1      45.121   3.599  12.140  0.00  0.00    +0.000 A 
ATOM     23  C   UNL     1      45.110   3.740  10.748  0.00  0.00    +0.000 A 
ATOM     24  C   UNL     1      45.585   4.911  10.154  0.00  0.00    +0.000 A 
ATOM     25  C   UNL     1      46.133   5.910  10.959  0.00  0.00    +0.000 A 
ATOM     26  C   UNL     1      46.140   5.773  12.349  0.00  0.00    +0.000 A 
BRANCH  24  27
ATOM     27  O   UNL     1      45.464   4.984   8.789  0.00  0.00    +0.000 OA
BRANCH  27  28
ATOM     28  C   UNL     1      44.855   3.841   8.183  0.00  0.00    +0.000 C 
BRANCH  28  29
ATOM     29  C   UNL     1      45.908   2.954   7.572  0.00  0.00    +0.000 A 
ATOM     30  C   UNL     1      46.687   3.413   6.505  0.00  0.00    +0.000 A 
ATOM     31  C   UNL     1      47.671   2.583   5.993  0.00  0.00    +0.000 A 
ATOM     32  N   UNL     1      47.927   1.345   6.464  0.00  0.00    +0.000 NA
ATOM     33  C   UNL     1      47.158   0.917   7.489  0.00  0.00    +0.000 A 
ATOM     34  C   UNL     1      46.151   1.672   8.070  0.00  0.00    +0.000 A 
ENDBRANCH  28  29
ENDBRANCH  27  28
ENDBRANCH  24  27
ENDBRANCH  20  21
ENDBRANCH   3  20
TORSDOF 6
ENDMDL
MODEL 4
REMARK VINA RESULT:    -7.960      1.532      2.238
REMARK INTER + INTRA:         -11.805
REMARK INTER:                 -10.931
REMARK INTRA:                  -0.874
REMARK UNBOUND:                -1.053
REMARK  Name = 
REMARK  6 active torsions:
REMARK  status: ('A' for Active; 'I' for Inactive)
REMARK    1  A    between atoms: C_7  and  C_8
REMARK    2  A    between atoms: N_10  and  C_11
REMARK    3  A    between atoms: C_11  and  C_12
REMARK    4  A    between atoms: C_15  and  O_16
REMARK    5  A    between atoms: O_16  and  C_17
REMARK    6  A    between atoms: C_17  and  C_18
REMARK                            x       y       z     vdW  Elec       q    Type
REMARK                         _______ _______ _______ _____ _____    ______ ____
ROOT
ATOM      1  C   UNL     1      48.346   6.468  15.493  0.00  0.00    +0.000 C 
ATOM      2  O   UNL     1      48.814   7.590  15.310  0.00  0.00    +0.000 OA
ATOM      3  N   UNL     1      47.481   5.891  14.597  0.00  0.00    +0.000 N 
ATOM      4  H   UNL     1      47.138   4.943  14.739  0.00  0.00    +0.000 HD
ENDROOT
BRANCH   1  11
ATOM      5  N   UNL     1      52.788   3.722  19.711  0.00  0.00    +0.000 N 
ATOM      6  C   UNL     1      51.788   4.242  18.957  0.00  0.00    +0.000 A 
ATOM      7  N   UNL     1      50.545   3.968  19.234  0.00  0.00    +0.000 NA
ATOM      8  C   UNL     1      49.659   4.543  18.389  0.00  0.00    +0.000 A 
ATOM      9  N   UNL     1      48.311   4.387  18.495  0.00  0.00    +0.000 N 
ATOM     10  C   UNL     1      47.703   5.073  17.476  0.00  0.00    +0.000 A 
ATOM     11  C   UNL     1      48.672   5.689  16.689  0.00  0.00    +0.000 A 
ATOM     12  C   UNL     1      49.915   5.357  17.307  0.00  0.00    +0.000 A 
ATOM     13  C   UNL     1      51.297   5.666  17.040  0.00  0.00    +0.000 A 
ATOM     14  O   UNL     1      51.674   6.416  16.147  0.00  0.00    +0.000 OA
ATOM     15  N   UNL     1      52.176   5.043  17.905  0.00  0.00    +0.000 N 
ATOM     16  H   UNL     1      52.458   2.974  20.314  0.00  0.00    +0.000 HD
ATOM     17  H   UNL     1      53.647   3.486  19.232  0.00  0.00    +0.000 HD
ATOM     18  H   UNL     1      47.851   3.842  19.211  0.00  0.00    +0.000 HD
ATOM     19  H   UNL     1      53.146   5.266  17.775  0.00  0.00    +0.000 HD
ENDBRANCH   1  11
BRANCH   3  20
ATOM     20  C   UNL     1      47.070   6.599  13.413  0.00  0.00    +0.000 C 
BRANCH  20  21
ATOM     21  C   UNL     1      46.315   5.710  12.462  0.00  0.00    +0.000 A 
ATOM     22  C   UNL     1      45.986   6.138  11.169  0.00  0.00    +0.000 A 
ATOM     23  C   UNL     1      45.306   5.285  10.292  0.00  0.00    +0.000 A 
ATOM     24  C   UNL     1      44.951   3.997  10.693  0.00  0.00    +0.000 A 
ATOM     25  C   UNL     1      45.221   3.591  12.001  0.00  0.00    +0.000 A 
ATOM     26  C   UNL     1      45.905   4.438  12.876  0.00  0.00    +0.000 A 
BRANCH  24  27
ATOM     27  O   UNL     1      44.353   3.213   9.739  0.00  0.00    +0.000 OA
BRANCH  27  28
ATOM     28  C   UNL     1      44.643   3.590   8.391  0.00  0.00    +0.000 C 
BRANCH  28  29
ATOM     29  C   UNL     1      45.816   2.801   7.871  0.00  0.00    +0.000 A 
ATOM     30  C   UNL     1      45.941   1.441   8.170  0.00  0.00    +0.000 A 
ATOM     31  C   UNL     1      47.014   0.739   7.644  0.00  0.00    +0.000 A 
ATOM     32  N   UNL     1      47.956   1.292   6.853  0.00  0.00    +0.000 NA
ATOM     33  C   UNL     1      47.822   2.609   6.583  0.00  0.00    +0.000 A 
ATOM     34  C   UNL     1      46.785   3.396   7.060  0.00  0.00    +0.000 A 
ENDBRANCH  28  29
ENDBRANCH  27  28
ENDBRANCH  24  27
ENDBRANCH  20  21
ENDBRANCH   3  20
TORSDOF 6
ENDMDL
MODEL 5
REMARK VINA RESULT:    -7.831      3.421      7.769
REMARK INTER + INTRA:         -11.630
REMARK INTER:                 -10.148
REMARK INTRA:                  -1.482
REMARK UNBOUND:                -1.053
REMARK  Name = 
REMARK  6 active torsions:
REMARK  status: ('A' for Active; 'I' for Inactive)
REMARK    1  A    between atoms: C_7  and  C_8
REMARK    2  A    between atoms: N_10  and  C_11
REMARK    3  A    between atoms: C_11  and  C_12
REMARK    4  A    between atoms: C_15  and  O_16
REMARK    5  A    between atoms: O_16  and  C_17
REMARK    6  A    between atoms: C_17  and  C_18
REMARK                            x       y       z     vdW  Elec       q    Type
REMARK                         _______ _______ _______ _____ _____    ______ ____
ROOT
ATOM      1  C   UNL     1      47.153   7.622  12.856  0.00  0.00    +0.000 C 
ATOM      2  O   UNL     1      48.215   7.496  12.250  0.00  0.00    +0.000 OA
ATOM      3  N   UNL     1      47.058   8.383  13.994  0.00  0.00    +0.000 N 
ATOM      4  H   UNL     1      46.163   8.516  14.460  0.00  0.00    +0.000 HD
ENDROOT
BRANCH   1  11
ATOM      5  N   UNL     1      43.440   2.103  11.954  0.00  0.00    +0.000 N 
ATOM      6  C   UNL     1      44.072   3.294  12.101  0.00  0.00    +0.000 A 
ATOM      7  N   UNL     1      43.534   4.385  11.632  0.00  0.00    +0.000 NA
ATOM      8  C   UNL     1      44.283   5.492  11.837  0.00  0.00    +0.000 A 
ATOM      9  N   UNL     1      43.911   6.736  11.425  0.00  0.00    +0.000 N 
ATOM     10  C   UNL     1      44.897   7.628  11.762  0.00  0.00    +0.000 A 
ATOM     11  C   UNL     1      45.931   6.954  12.405  0.00  0.00    +0.000 A 
ATOM     12  C   UNL     1      45.505   5.593  12.464  0.00  0.00    +0.000 A 
ATOM     13  C   UNL     1      46.063   4.376  12.998  0.00  0.00    +0.000 A 
ATOM     14  O   UNL     1      47.114   4.319  13.626  0.00  0.00    +0.000 OA
ATOM     15  N   UNL     1      45.286   3.261  12.749  0.00  0.00    +0.000 N 
ATOM     16  H   UNL     1      42.680   2.157  11.284  0.00  0.00    +0.000 HD
ATOM     17  H   UNL     1      44.025   1.289  11.816  0.00  0.00    +0.000 HD
ATOM     18  H   UNL     1      43.048   6.947  10.943  0.00  0.00    +0.000 HD
ATOM     19  H   UNL     1      45.623   2.400  13.141  0.00  0.00    +0.000 HD
ENDBRANCH   1  11
BRANCH   3  20
ATOM     20  C   UNL     1      48.217   9.044  14.536  0.00  0.00    +0.000 C 
BRANCH  20  21
ATOM     21  C   UNL     1      48.848   8.247  15.646  0.00  0.00    +0.000 A 
ATOM     22  C   UNL     1      48.389   8.346  16.966  0.00  0.00    +0.000 A 
ATOM     23  C   UNL     1      48.974   7.577  17.979  0.00  0.00    +0.000 A 
ATOM     24  C   UNL     1      50.018   6.699  17.685  0.00  0.00    +0.000 A 
ATOM     25  C   UNL     1      50.519   6.646  16.383  0.00  0.00    +0.000 A 
ATOM     26  C   UNL     1      49.933   7.408  15.370  0.00  0.00    +0.000 A 
BRANCH  24  27
ATOM     27  O   UNL     1      50.475   5.936  18.730  0.00  0.00    +0.000 OA
BRANCH  27  28
ATOM     28  C   UNL     1      49.572   4.915  19.161  0.00  0.00    +0.000 C 
BRANCH  28  29
ATOM     29  C   UNL     1      49.524   3.802  18.148  0.00  0.00    +0.000 A 
ATOM     30  C   UNL     1      48.343   3.531  17.451  0.00  0.00    +0.000 A 
ATOM     31  C   UNL     1      48.346   2.523  16.500  0.00  0.00    +0.000 A 
ATOM     32  N   UNL     1      49.430   1.778  16.202  0.00  0.00    +0.000 NA
ATOM     33  C   UNL     1      50.560   2.050  16.892  0.00  0.00    +0.000 A 
ATOM     34  C   UNL     1      50.657   3.037  17.861  0.00  0.00    +0.000 A 
ENDBRANCH  28  29
ENDBRANCH  27  28
ENDBRANCH  24  27
ENDBRANCH  20  21
ENDBRANCH   3  20
TORSDOF 6
ENDMDL
MODEL 6
REMARK VINA RESULT:    -7.816      2.037      3.856
REMARK INTER + INTRA:         -11.610
REMARK INTER:                 -10.413
REMARK INTRA:                  -1.197
REMARK UNBOUND:                -1.053
REMARK  Name = 
REMARK  6 active torsions:
REMARK  status: ('A' for Active; 'I' for Inactive)
REMARK    1  A    between atoms: C_7  and  C_8
REMARK    2  A    between atoms: N_10  and  C_11
REMARK    3  A    between atoms: C_11  and  C_12
REMARK    4  A    between atoms: C_15  and  O_16
REMARK    5  A    between atoms: O_16  and  C_17
REMARK    6  A    between atoms: C_17  and  C_18
REMARK                            x       y       z     vdW  Elec       q    Type
REMARK                         _______ _______ _______ _____ _____    ______ ____
ROOT
ATOM      1  C   UNL     1      48.277   5.748  15.584  0.00  0.00    +0.000 C 
ATOM      2  O   UNL     1      48.453   4.694  16.191  0.00  0.00    +0.000 OA
ATOM      3  N   UNL     1      47.286   5.883  14.644  0.00  0.00    +0.000 N 
ATOM      4  H   UNL     1      47.123   6.775  14.183  0.00  0.00    +0.000 HD
ENDROOT
BRANCH   1  11
ATOM      5  N   UNL     1      52.374  10.594  13.395  0.00  0.00    +0.000 N 
ATOM      6  C   UNL     1      51.545   9.684  13.965  0.00  0.00    +0.000 A 
ATOM      7  N   UNL     1      51.390   9.657  15.259  0.00  0.00    +0.000 NA
ATOM      8  C   UNL     1      50.547   8.689  15.685  0.00  0.00    +0.000 A 
ATOM      9  N   UNL     1      50.245   8.482  16.997  0.00  0.00    +0.000 N 
ATOM     10  C   UNL     1      49.389   7.415  17.092  0.00  0.00    +0.000 A 
ATOM     11  C   UNL     1      49.127   6.916  15.818  0.00  0.00    +0.000 A 
ATOM     12  C   UNL     1      49.860   7.763  14.933  0.00  0.00    +0.000 A 
ATOM     13  C   UNL     1      50.029   7.833  13.503  0.00  0.00    +0.000 A 
ATOM     14  O   UNL     1      49.442   7.112  12.705  0.00  0.00    +0.000 OA
ATOM     15  N   UNL     1      50.914   8.816  13.103  0.00  0.00    +0.000 N 
ATOM     16  H   UNL     1      52.972  11.045  14.082  0.00  0.00    +0.000 HD
ATOM     17  H   UNL     1      52.882  10.298  12.572  0.00  0.00    +0.000 HD
ATOM     18  H   UNL     1      50.609   9.031  17.763  0.00  0.00    +0.000 HD
ATOM     19  H   UNL     1      51.028   8.921  12.111  0.00  0.00    +0.000 HD
ENDBRANCH   1  11
BRANCH   3  20
ATOM     20  C   UNL     1      46.428   4.775  14.316  0.00  0.00    +0.000 C 
BRANCH  20  21
ATOM     21  C   UNL     1      46.015   4.794  12.870  0.00  0.00    +0.000 A 
ATOM     22  C   UNL     1      46.323   5.879  12.038  0.00  0.00    +0.000 A 
ATOM     23  C   UNL     1      45.952   5.865  10.689  0.00  0.00    +0.000 A 
ATOM     24  C   UNL     1      45.274   4.768  10.154  0.00  0.00    +0.000 A 
ATOM     25  C   UNL     1      44.911   3.715  10.994  0.00  0.00    +0.000 A 
ATOM     26  C   UNL     1      45.285   3.724  12.340  0.00  0.00    +0.000 A 
BRANCH  24  27
ATOM     27  O   UNL     1      45.019   4.817   8.807  0.00  0.00    +0.000 OA
BRANCH  27  28
ATOM     28  C   UNL     1      44.605   3.574   8.234  0.00  0.00    +0.000 C 
BRANCH  28  29
ATOM     29  C   UNL     1      45.797   2.824   7.701  0.00  0.00    +0.000 A 
ATOM     30  C   UNL     1      46.710   3.458   6.853  0.00  0.00    +0.000 A 
ATOM     31  C   UNL     1      47.815   2.748   6.412  0.00  0.00    +0.000 A 
ATOM     32  N   UNL     1      48.067   1.468   6.753  0.00  0.00    +0.000 NA
ATOM     33  C   UNL     1      47.169   0.870   7.566  0.00  0.00    +0.000 A 
ATOM     34  C   UNL     1      46.035   1.495   8.060  0.00  0.00    +0.000 A 
ENDBRANCH  28  29
ENDBRANCH  27  28
ENDBRANCH  24  27
ENDBRANCH  20  21
ENDBRANCH   3  20
TORSDOF 6
ENDMDL
MODEL 7
REMARK VINA RESULT:    -7.618      2.125      2.572
REMARK INTER + INTRA:         -11.343
REMARK INTER:                 -10.289
REMARK INTRA:                  -1.054
REMARK UNBOUND:                -1.053
REMARK  Name = 
REMARK  6 active torsions:
REMARK  status: ('A' for Active; 'I' for Inactive)
REMARK    1  A    between atoms: C_7  and  C_8
REMARK    2  A    between atoms: N_10  and  C_11
REMARK    3  A    between atoms: C_11  and  C_12
REMARK    4  A    between atoms: C_15  and  O_16
REMARK    5  A    between atoms: O_16  and  C_17
REMARK    6  A    between atoms: C_17  and  C_18
REMARK                            x       y       z     vdW  Elec       q    Type
REMARK                         _______ _______ _______ _____ _____    ______ ____
ROOT
ATOM      1  C   UNL     1      49.156   6.234  16.408  0.00  0.00    +0.000 C 
ATOM      2  O   UNL     1      48.308   6.720  17.155  0.00  0.00    +0.000 OA
ATOM      3  N   UNL     1      49.120   6.432  15.051  0.00  0.00    +0.000 N 
ATOM      4  H   UNL     1      49.854   6.062  14.450  0.00  0.00    +0.000 HD
ENDROOT
BRANCH   1  11
ATOM      5  N   UNL     1      51.739   0.260  18.053  0.00  0.00    +0.000 N 
ATOM      6  C   UNL     1      51.351   1.522  17.742  0.00  0.00    +0.000 A 
ATOM      7  N   UNL     1      52.120   2.535  18.024  0.00  0.00    +0.000 NA
ATOM      8  C   UNL     1      51.597   3.731  17.669  0.00  0.00    +0.000 A 
ATOM      9  N   UNL     1      52.232   4.918  17.875  0.00  0.00    +0.000 N 
ATOM     10  C   UNL     1      51.426   5.934  17.430  0.00  0.00    +0.000 A 
ATOM     11  C   UNL     1      50.243   5.401  16.925  0.00  0.00    +0.000 A 
ATOM     12  C   UNL     1      50.386   3.988  17.066  0.00  0.00    +0.000 A 
ATOM     13  C   UNL     1      49.567   2.847  16.740  0.00  0.00    +0.000 A 
ATOM     14  O   UNL     1      48.492   2.917  16.156  0.00  0.00    +0.000 OA
ATOM     15  N   UNL     1      50.119   1.645  17.137  0.00  0.00    +0.000 N 
ATOM     16  H   UNL     1      52.532   0.254  18.688  0.00  0.00    +0.000 HD
ATOM     17  H   UNL     1      51.013  -0.387  18.331  0.00  0.00    +0.000 HD
ATOM     18  H   UNL     1      53.145   5.014  18.296  0.00  0.00    +0.000 HD
ATOM     19  H   UNL     1      49.596   0.824  16.892  0.00  0.00    +0.000 HD
ENDBRANCH   1  11
BRANCH   3  20
ATOM     20  C   UNL     1      48.064   7.202  14.448  0.00  0.00    +0.000 C 
BRANCH  20  21
ATOM     21  C   UNL     1      47.157   6.346  13.606  0.00  0.00    +0.000 A 
ATOM     22  C   UNL     1      46.732   5.084  14.043  0.00  0.00    +0.000 A 
ATOM     23  C   UNL     1      45.868   4.315  13.256  0.00  0.00    +0.000 A 
ATOM     24  C   UNL     1      45.415   4.798  12.027  0.00  0.00    +0.000 A 
ATOM     25  C   UNL     1      45.886   6.026  11.561  0.00  0.00    +0.000 A 
ATOM     26  C   UNL     1      46.744   6.797  12.348  0.00  0.00    +0.000 A 
BRANCH  24  27
ATOM     27  O   UNL     1      44.514   4.003  11.364  0.00  0.00    +0.000 OA
BRANCH  27  28
ATOM     28  C   UNL     1      44.258   4.393  10.012  0.00  0.00    +0.000 C 
BRANCH  28  29
ATOM     29  C   UNL     1      45.140   3.615   9.072  0.00  0.00    +0.000 A 
ATOM     30  C   UNL     1      45.213   2.221   9.161  0.00  0.00    +0.000 A 
ATOM     31  C   UNL     1      46.006   1.536   8.255  0.00  0.00    +0.000 A 
ATOM     32  N   UNL     1      46.722   2.135   7.282  0.00  0.00    +0.000 NA
ATOM     33  C   UNL     1      46.645   3.483   7.217  0.00  0.00    +0.000 A 
ATOM     34  C   UNL     1      45.880   4.257   8.076  0.00  0.00    +0.000 A 
ENDBRANCH  28  29
ENDBRANCH  27  28
ENDBRANCH  24  27
ENDBRANCH  20  21
ENDBRANCH   3  20
TORSDOF 6
ENDMDL
MODEL 8
REMARK VINA RESULT:    -7.610      2.116      3.150
REMARK INTER + INTRA:         -11.332
REMARK INTER:                 -10.417
REMARK INTRA:                  -0.915
REMARK UNBOUND:                -1.053
REMARK  Name = 
REMARK  6 active torsions:
REMARK  status: ('A' for Active; 'I' for Inactive)
REMARK    1  A    between atoms: C_7  and  C_8
REMARK    2  A    between atoms: N_10  and  C_11
REMARK    3  A    between atoms: C_11  and  C_12
REMARK    4  A    between atoms: C_15  and  O_16
REMARK    5  A    between atoms: O_16  and  C_17
REMARK    6  A    between atoms: C_17  and  C_18
REMARK                            x       y       z     vdW  Elec       q    Type
REMARK                         _______ _______ _______ _____ _____    ______ ____
ROOT
ATOM      1  C   UNL     1      48.205   5.643  15.586  0.00  0.00    +0.000 C 
ATOM      2  O   UNL     1      48.500   4.553  16.072  0.00  0.00    +0.000 OA
ATOM      3  N   UNL     1      47.155   5.784  14.713  0.00  0.00    +0.000 N 
ATOM      4  H   UNL     1      46.894   6.699  14.355  0.00  0.00    +0.000 HD
ENDROOT
BRANCH   1  11
ATOM      5  N   UNL     1      49.823  10.693  19.702  0.00  0.00    +0.000 N 
ATOM      6  C   UNL     1      49.609   9.714  18.788  0.00  0.00    +0.000 A 
ATOM      7  N   UNL     1      50.191   9.764  17.623  0.00  0.00    +0.000 NA
ATOM      8  C   UNL     1      49.872   8.731  16.811  0.00  0.00    +0.000 A 
ATOM      9  N   UNL     1      50.366   8.588  15.550  0.00  0.00    +0.000 N 
ATOM     10  C   UNL     1      49.829   7.459  14.988  0.00  0.00    +0.000 A 
ATOM     11  C   UNL     1      48.969   6.852  15.900  0.00  0.00    +0.000 A 
ATOM     12  C   UNL     1      49.032   7.670  17.067  0.00  0.00    +0.000 A 
ATOM     13  C   UNL     1      48.423   7.625  18.373  0.00  0.00    +0.000 A 
ATOM     14  O   UNL     1      47.697   6.719  18.763  0.00  0.00    +0.000 OA
ATOM     15  N   UNL     1      48.750   8.707  19.168  0.00  0.00    +0.000 N 
ATOM     16  H   UNL     1      50.273  11.505  19.289  0.00  0.00    +0.000 HD
ATOM     17  H   UNL     1      49.045  10.940  20.299  0.00  0.00    +0.000 HD
ATOM     18  H   UNL     1      51.016   9.227  15.112  0.00  0.00    +0.000 HD
ATOM     19  H   UNL     1      48.375   8.691  20.100  0.00  0.00    +0.000 HD
ENDBRANCH   1  11
BRANCH   3  20
ATOM     20  C   UNL     1      46.374   4.643  14.313  0.00  0.00    +0.000 C 
BRANCH  20  21
ATOM     21  C   UNL     1      45.984   4.711  12.862  0.00  0.00    +0.000 A 
ATOM     22  C   UNL     1      46.317   5.817  12.068  0.00  0.00    +0.000 A 
ATOM     23  C   UNL     1      45.967   5.849  10.714  0.00  0.00    +0.000 A 
ATOM     24  C   UNL     1      45.286   4.777  10.135  0.00  0.00    +0.000 A 
ATOM     25  C   UNL     1      44.898   3.702  10.937  0.00  0.00    +0.000 A 
ATOM     26  C   UNL     1      45.251   3.666  12.288  0.00  0.00    +0.000 A 
BRANCH  24  27
ATOM     27  O   UNL     1      45.053   4.869   8.786  0.00  0.00    +0.000 OA
BRANCH  27  28
ATOM     28  C   UNL     1      44.624   3.652   8.171  0.00  0.00    +0.000 C 
BRANCH  28  29
ATOM     29  C   UNL     1      45.813   2.870   7.680  0.00  0.00    +0.000 A 
ATOM     30  C   UNL     1      46.764   3.475   6.852  0.00  0.00    +0.000 A 
ATOM     31  C   UNL     1      47.865   2.735   6.449  0.00  0.00    +0.000 A 
ATOM     32  N   UNL     1      48.079   1.454   6.811  0.00  0.00    +0.000 NA
ATOM     33  C   UNL     1      47.145   0.885   7.604  0.00  0.00    +0.000 A 
ATOM     34  C   UNL     1      46.011   1.540   8.060  0.00  0.00    +0.000 A 
ENDBRANCH  28  29
ENDBRANCH  27  28
ENDBRANCH  24  27
ENDBRANCH  20  21
ENDBRANCH   3  20
TORSDOF 6
ENDMDL
MODEL 9
REMARK VINA RESULT:    -7.472      2.729      3.801
REMARK INTER + INTRA:         -11.146
REMARK INTER:                 -10.196
REMARK INTRA:                  -0.949
REMARK UNBOUND:                -1.053
REMARK  Name = 
REMARK  6 active torsions:
REMARK  status: ('A' for Active; 'I' for Inactive)
REMARK    1  A    between atoms: C_7  and  C_8
REMARK    2  A    between atoms: N_10  and  C_11
REMARK    3  A    between atoms: C_11  and  C_12
REMARK    4  A    between atoms: C_15  and  O_16
REMARK    5  A    between atoms: O_16  and  C_17
REMARK    6  A    between atoms: C_17  and  C_18
REMARK                            x       y       z     vdW  Elec       q    Type
REMARK                         _______ _______ _______ _____ _____    ______ ____
ROOT
ATOM      1  C   UNL     1      47.153   7.770  13.236  0.00  0.00    +0.000 C 
ATOM      2  O   UNL     1      46.127   8.444  13.293  0.00  0.00    +0.000 OA
ATOM      3  N   UNL     1      47.128   6.404  13.367  0.00  0.00    +0.000 N 
ATOM      4  H   UNL     1      47.979   5.854  13.272  0.00  0.00    +0.000 HD
ENDROOT
BRANCH   1  11
ATOM      5  N   UNL     1      53.617   8.533  14.878  0.00  0.00    +0.000 N 
ATOM      6  C   UNL     1      52.340   8.459  14.428  0.00  0.00    +0.000 A 
ATOM      7  N   UNL     1      51.929   9.256  13.482  0.00  0.00    +0.000 NA
ATOM      8  C   UNL     1      50.631   9.078  13.147  0.00  0.00    +0.000 A 
ATOM      9  N   UNL     1      49.998   9.806  12.186  0.00  0.00    +0.000 N 
ATOM     10  C   UNL     1      48.691   9.401  12.111  0.00  0.00    +0.000 A 
ATOM     11  C   UNL     1      48.465   8.389  13.040  0.00  0.00    +0.000 A 
ATOM     12  C   UNL     1      49.727   8.183  13.674  0.00  0.00    +0.000 A 
ATOM     13  C   UNL     1      50.216   7.295  14.699  0.00  0.00    +0.000 A 
ATOM     14  O   UNL     1      49.545   6.413  15.222  0.00  0.00    +0.000 OA
ATOM     15  N   UNL     1      51.537   7.519  15.035  0.00  0.00    +0.000 N 
ATOM     16  H   UNL     1      54.082   9.379  14.560  0.00  0.00    +0.000 HD
ATOM     17  H   UNL     1      53.768   8.352  15.861  0.00  0.00    +0.000 HD
ATOM     18  H   UNL     1      50.436  10.531  11.633  0.00  0.00    +0.000 HD
ATOM     19  H   UNL     1      51.925   6.893  15.718  0.00  0.00    +0.000 HD
ENDBRANCH   1  11
BRANCH   3  20
ATOM     20  C   UNL     1      45.888   5.711  13.605  0.00  0.00    +0.000 C 
BRANCH  20  21
ATOM     21  C   UNL     1      45.404   4.992  12.375  0.00  0.00    +0.000 A 
ATOM     22  C   UNL     1      45.588   5.530  11.095  0.00  0.00    +0.000 A 
ATOM     23  C   UNL     1      45.153   4.832   9.963  0.00  0.00    +0.000 A 
ATOM     24  C   UNL     1      44.533   3.589  10.095  0.00  0.00    +0.000 A 
ATOM     25  C   UNL     1      44.291   3.079  11.372  0.00  0.00    +0.000 A 
ATOM     26  C   UNL     1      44.730   3.772  12.503  0.00  0.00    +0.000 A 
BRANCH  24  27
ATOM     27  O   UNL     1      44.209   2.950   8.925  0.00  0.00    +0.000 OA
BRANCH  27  28
ATOM     28  C   UNL     1      44.716   3.577   7.744  0.00  0.00    +0.000 C 
BRANCH  28  29
ATOM     29  C   UNL     1      45.926   2.835   7.241  0.00  0.00    +0.000 A 
ATOM     30  C   UNL     1      46.351   1.664   7.874  0.00  0.00    +0.000 A 
ATOM     31  C   UNL     1      47.447   0.988   7.361  0.00  0.00    +0.000 A 
ATOM     32  N   UNL     1      48.137   1.395   6.277  0.00  0.00    +0.000 NA
ATOM     33  C   UNL     1      47.716   2.533   5.683  0.00  0.00    +0.000 A 
ATOM     34  C   UNL     1      46.632   3.279   6.120  0.00  0.00    +0.000 A 
ENDBRANCH  28  29
ENDBRANCH  27  28
ENDBRANCH  24  27
ENDBRANCH  20  21
ENDBRANCH   3  20
TORSDOF 6
ENDMDL
