MODEL 1
REMARK VINA RESULT:    -9.596      0.000      0.000
REMARK INTER + INTRA:         -13.927
REMARK INTER:                 -12.961
REMARK INTRA:                  -0.966
REMARK UNBOUND:                -0.966
REMARK  Name = 
REMARK  6 active torsions:
REMARK  status: ('A' for Active; 'I' for Inactive)
REMARK    1  A    between atoms: C_2  and  C_4
REMARK    2  A    between atoms: N_8  and  C_9
REMARK    3  A    between atoms: C_9  and  C_10
REMARK    4  A    between atoms: C_10  and  C_13
REMARK    5  A    between atoms: C_18  and  O_19
REMARK    6  A    between atoms: O_19  and  C_20
REMARK                            x       y       z     vdW  Elec       q    Type
REMARK                         _______ _______ _______ _____ _____    ______ ____
ROOT
ATOM      1  C   UNL     1      43.420   5.566  12.118  0.00  0.00    +0.000 C 
ATOM      2  F   UNL     1      42.835   6.683  11.587  0.00  0.00    +0.000 F 
ATOM      3  F   UNL     1      42.729   5.310  13.268  0.00  0.00    +0.000 F 
ENDROOT
BRANCH   1   4
ATOM      4  C   UNL     1      44.898   5.781  12.399  0.00  0.00    +0.000 A 
ATOM      5  C   UNL     1      45.589   6.865  11.840  0.00  0.00    +0.000 A 
ATOM      6  C   UNL     1      46.941   7.064  12.135  0.00  0.00    +0.000 A 
ATOM      7  C   UNL     1      47.613   6.180  12.979  0.00  0.00    +0.000 A 
ATOM      8  F   UNL     1      48.901   6.429  13.256  0.00  0.00    +0.000 F 
ATOM      9  C   UNL     1      46.952   5.085  13.531  0.00  0.00    +0.000 A 
ATOM     10  C   UNL     1      45.594   4.897  13.244  0.00  0.00    +0.000 A 
BRANCH   9  11
ATOM     11  O   UNL     1      47.489   4.158  14.390  0.00  0.00    +0.000 OA
BRANCH  11  12
ATOM     12  C   UNL     1      47.321   4.330  15.817  0.00  0.00    +0.000 C 
ATOM     13  C   UNL     1      48.357   5.192  16.568  0.00  0.00    +0.000 C 
ATOM     14  N   UNL     1      48.580   4.109  17.538  0.00  0.00    +0.000 NA
ATOM     15  C   UNL     1      47.864   3.162  16.669  0.00  0.00    +0.000 C 
ATOM     16  H   UNL     1      48.130   4.260  18.439  0.00  0.00    +0.000 HD
ENDBRANCH  11  12
ENDBRANCH   9  11
ENDBRANCH   1   4
BRANCH   1  17
ATOM     17  C   UNL     1      43.199   4.391  11.128  0.00  0.00    +0.000 C 
BRANCH  17  22
ATOM     18  C   UNL     1      46.505   2.507   7.704  0.00  0.00    +0.000 A 
ATOM     19  C   UNL     1      45.683   1.832   8.603  0.00  0.00    +0.000 A 
ATOM     20  C   UNL     1      44.743   2.556   9.336  0.00  0.00    +0.000 A 
ATOM     21  C   UNL     1      44.646   3.935   9.170  0.00  0.00    +0.000 A 
ATOM     22  N   UNL     1      43.670   4.700   9.771  0.00  0.00    +0.000 N 
ATOM     23  N   UNL     1      45.465   4.600   8.334  0.00  0.00    +0.000 NA
ATOM     24  C   UNL     1      46.377   3.883   7.626  0.00  0.00    +0.000 A 
ATOM     25  H   UNL     1      43.868   5.684   9.587  0.00  0.00    +0.000 HD
BRANCH  18  27
ATOM     26  N   UNL     1      48.533   2.554   6.374  0.00  0.00    +0.000 N 
ATOM     27  C   UNL     1      47.479   1.816   6.838  0.00  0.00    +0.000 C 
ATOM     28  O   UNL     1      47.373   0.624   6.580  0.00  0.00    +0.000 OA
ATOM     29  H   UNL     1      49.258   2.042   5.886  0.00  0.00    +0.000 HD
ATOM     30  H   UNL     1      48.790   3.444   6.780  0.00  0.00    +0.000 HD
ENDBRANCH  18  27
ENDBRANCH  17  22
ENDBRANCH   1  17
TORSDOF 6
ENDMDL
MODEL 2
REMARK VINA RESULT:    -8.498      2.014      2.882
REMARK INTER + INTRA:         -12.445
REMARK INTER:                 -11.635
REMARK INTRA:                  -0.810
REMARK UNBOUND:                -0.966
REMARK  Name = 
REMARK  6 active torsions:
REMARK  status: ('A' for Active; 'I' for Inactive)
REMARK    1  A    between atoms: C_2  and  C_4
REMARK    2  A    between atoms: N_8  and  C_9
REMARK    3  A    between atoms: C_9  and  C_10
REMARK    4  A    between atoms: C_10  and  C_13
REMARK    5  A    between atoms: C_18  and  O_19
REMARK    6  A    between atoms: O_19  and  C_20
REMARK                            x       y       z     vdW  Elec       q    Type
REMARK                         _______ _______ _______ _____ _____    ______ ____
ROOT
ATOM      1  C   UNL     1      43.391   5.638  11.980  0.00  0.00    +0.000 C 
ATOM      2  F   UNL     1      43.049   6.766  11.284  0.00  0.00    +0.000 F 
ATOM      3  F   UNL     1      42.396   5.470  12.900  0.00  0.00    +0.000 F 
ENDROOT
BRANCH   1   4
ATOM      4  C   UNL     1      44.746   5.777  12.653  0.00  0.00    +0.000 A 
ATOM      5  C   UNL     1      45.405   4.661  13.188  0.00  0.00    +0.000 A 
ATOM      6  C   UNL     1      46.665   4.804  13.776  0.00  0.00    +0.000 A 
ATOM      7  C   UNL     1      47.270   6.059  13.843  0.00  0.00    +0.000 A 
ATOM      8  F   UNL     1      48.492   6.141  14.389  0.00  0.00    +0.000 F 
ATOM      9  C   UNL     1      46.626   7.185  13.336  0.00  0.00    +0.000 A 
ATOM     10  C   UNL     1      45.370   7.035  12.735  0.00  0.00    +0.000 A 
BRANCH   9  11
ATOM     11  O   UNL     1      47.120   8.466  13.319  0.00  0.00    +0.000 OA
BRANCH  11  12
ATOM     12  C   UNL     1      48.126   8.828  12.344  0.00  0.00    +0.000 C 
ATOM     13  C   UNL     1      48.697   7.711  11.447  0.00  0.00    +0.000 C 
ATOM     14  N   UNL     1      50.069   8.096  11.813  0.00  0.00    +0.000 NA
ATOM     15  C   UNL     1      49.558   8.931  12.911  0.00  0.00    +0.000 C 
ATOM     16  H   UNL     1      50.559   8.622  11.091  0.00  0.00    +0.000 HD
ENDBRANCH  11  12
ENDBRANCH   9  11
ENDBRANCH   1   4
BRANCH   1  17
ATOM     17  C   UNL     1      43.371   4.441  10.993  0.00  0.00    +0.000 C 
BRANCH  17  22
ATOM     18  C   UNL     1      46.659   2.687   7.484  0.00  0.00    +0.000 A 
ATOM     19  C   UNL     1      45.833   1.979   8.352  0.00  0.00    +0.000 A 
ATOM     20  C   UNL     1      44.898   2.676   9.118  0.00  0.00    +0.000 A 
ATOM     21  C   UNL     1      44.812   4.062   9.014  0.00  0.00    +0.000 A 
ATOM     22  N   UNL     1      43.843   4.807   9.651  0.00  0.00    +0.000 N 
ATOM     23  N   UNL     1      45.636   4.758   8.208  0.00  0.00    +0.000 NA
ATOM     24  C   UNL     1      46.542   4.067   7.468  0.00  0.00    +0.000 A 
ATOM     25  H   UNL     1      44.048   5.796   9.511  0.00  0.00    +0.000 HD
BRANCH  18  27
ATOM     26  N   UNL     1      48.055   2.742   5.501  0.00  0.00    +0.000 N 
ATOM     27  C   UNL     1      47.627   2.028   6.586  0.00  0.00    +0.000 C 
ATOM     28  O   UNL     1      48.061   0.908   6.825  0.00  0.00    +0.000 OA
ATOM     29  H   UNL     1      48.809   2.331   4.964  0.00  0.00    +0.000 HD
ATOM     30  H   UNL     1      47.929   3.742   5.428  0.00  0.00    +0.000 HD
ENDBRANCH  18  27
ENDBRANCH  17  22
ENDBRANCH   1  17
TORSDOF 6
ENDMDL
MODEL 3
REMARK VINA RESULT:    -8.319      2.979      4.600
REMARK INTER + INTRA:         -12.203
REMARK INTER:                 -11.465
REMARK INTRA:                  -0.738
REMARK UNBOUND:                -0.966
REMARK  Name = 
REMARK  6 active torsions:
REMARK  status: ('A' for Active; 'I' for Inactive)
REMARK    1  A    between atoms: C_2  and  C_4
REMARK    2  A    between atoms: N_8  and  C_9
REMARK    3  A    between atoms: C_9  and  C_10
REMARK    4  A    between atoms: C_10  and  C_13
REMARK    5  A    between atoms: C_18  and  O_19
REMARK    6  A    between atoms: O_19  and  C_20
REMARK                            x       y       z     vdW  Elec       q    Type
REMARK                         _______ _______ _______ _____ _____    ______ ____
ROOT
ATOM      1  C   UNL     1      44.479   4.647  12.268  0.00  0.00    +0.000 C 
ATOM      2  F   UNL     1      43.841   4.526  13.473  0.00  0.00    +0.000 F 
ATOM      3  F   UNL     1      45.320   3.573  12.199  0.00  0.00    +0.000 F 
ENDROOT
BRANCH   1   4
ATOM      4  C   UNL     1      45.245   5.955  12.162  0.00  0.00    +0.000 A 
ATOM      5  C   UNL     1      46.647   5.974  12.183  0.00  0.00    +0.000 A 
ATOM      6  C   UNL     1      47.334   7.184  12.054  0.00  0.00    +0.000 A 
ATOM      7  C   UNL     1      46.631   8.380  11.913  0.00  0.00    +0.000 A 
ATOM      8  F   UNL     1      47.335   9.511  11.762  0.00  0.00    +0.000 F 
ATOM      9  C   UNL     1      45.238   8.387  11.908  0.00  0.00    +0.000 A 
ATOM     10  C   UNL     1      44.553   7.172  12.024  0.00  0.00    +0.000 A 
BRANCH   9  11
ATOM     11  O   UNL     1      44.431   9.488  11.754  0.00  0.00    +0.000 OA
BRANCH  11  12
ATOM     12  C   UNL     1      43.771   9.714  10.486  0.00  0.00    +0.000 C 
ATOM     13  C   UNL     1      43.908  11.107   9.839  0.00  0.00    +0.000 C 
ATOM     14  N   UNL     1      42.447  11.206   9.702  0.00  0.00    +0.000 NA
ATOM     15  C   UNL     1      42.269  10.055  10.600  0.00  0.00    +0.000 C 
ATOM     16  H   UNL     1      42.108  11.044   8.754  0.00  0.00    +0.000 HD
ENDBRANCH  11  12
ENDBRANCH   9  11
ENDBRANCH   1   4
BRANCH   1  17
ATOM     17  C   UNL     1      43.413   4.524  11.146  0.00  0.00    +0.000 C 
BRANCH  17  22
ATOM     18  C   UNL     1      46.569   2.535   7.642  0.00  0.00    +0.000 A 
ATOM     19  C   UNL     1      45.660   1.893   8.478  0.00  0.00    +0.000 A 
ATOM     20  C   UNL     1      44.788   2.662   9.248  0.00  0.00    +0.000 A 
ATOM     21  C   UNL     1      44.844   4.051   9.181  0.00  0.00    +0.000 A 
ATOM     22  N   UNL     1      43.944   4.874   9.822  0.00  0.00    +0.000 N 
ATOM     23  N   UNL     1      45.748   4.680   8.406  0.00  0.00    +0.000 NA
ATOM     24  C   UNL     1      46.592   3.920   7.661  0.00  0.00    +0.000 A 
ATOM     25  H   UNL     1      44.250   5.841   9.712  0.00  0.00    +0.000 HD
BRANCH  18  27
ATOM     26  N   UNL     1      48.548   2.498   6.240  0.00  0.00    +0.000 N 
ATOM     27  C   UNL     1      47.482   1.805   6.741  0.00  0.00    +0.000 C 
ATOM     28  O   UNL     1      47.316   0.619   6.487  0.00  0.00    +0.000 OA
ATOM     29  H   UNL     1      49.233   1.957   5.726  0.00  0.00    +0.000 HD
ATOM     30  H   UNL     1      48.857   3.375   6.636  0.00  0.00    +0.000 HD
ENDBRANCH  18  27
ENDBRANCH  17  22
ENDBRANCH   1  17
TORSDOF 6
ENDMDL
MODEL 4
REMARK VINA RESULT:    -8.231      2.464      2.803
REMARK INTER + INTRA:         -12.085
REMARK INTER:                 -11.707
REMARK INTRA:                  -0.378
REMARK UNBOUND:                -0.966
REMARK  Name = 
REMARK  6 active torsions:
REMARK  status: ('A' for Active; 'I' for Inactive)
REMARK    1  A    between atoms: C_2  and  C_4
REMARK    2  A    between atoms: N_8  and  C_9
REMARK    3  A    between atoms: C_9  and  C_10
REMARK    4  A    between atoms: C_10  and  C_13
REMARK    5  A    between atoms: C_18  and  O_19
REMARK    6  A    between atoms: O_19  and  C_20
REMARK                            x       y       z     vdW  Elec       q    Type
REMARK                         _______ _______ _______ _____ _____    ______ ____
ROOT
ATOM      1  C   UNL     1      44.239   4.742  12.256  0.00  0.00    +0.000 C 
ATOM      2  F   UNL     1      43.607   4.477  13.441  0.00  0.00    +0.000 F 
ATOM      3  F   UNL     1      45.239   3.816  12.169  0.00  0.00    +0.000 F 
ENDROOT
BRANCH   1   4
ATOM      4  C   UNL     1      44.792   6.157  12.214  0.00  0.00    +0.000 A 
ATOM      5  C   UNL     1      44.155   7.160  11.470  0.00  0.00    +0.000 A 
ATOM      6  C   UNL     1      44.661   8.462  11.467  0.00  0.00    +0.000 A 
ATOM      7  C   UNL     1      45.810   8.770  12.197  0.00  0.00    +0.000 A 
ATOM      8  F   UNL     1      46.240  10.040  12.188  0.00  0.00    +0.000 F 
ATOM      9  C   UNL     1      46.471   7.786  12.928  0.00  0.00    +0.000 A 
ATOM     10  C   UNL     1      45.952   6.485  12.939  0.00  0.00    +0.000 A 
BRANCH   9  11
ATOM     11  O   UNL     1      47.592   7.962  13.702  0.00  0.00    +0.000 OA
BRANCH  11  12
ATOM     12  C   UNL     1      48.792   7.214  13.397  0.00  0.00    +0.000 C 
ATOM     13  C   UNL     1      50.119   7.691  14.022  0.00  0.00    +0.000 C 
ATOM     14  N   UNL     1      50.758   7.704  12.697  0.00  0.00    +0.000 NA
ATOM     15  C   UNL     1      49.445   7.577  12.046  0.00  0.00    +0.000 C 
ATOM     16  H   UNL     1      51.379   6.914  12.529  0.00  0.00    +0.000 HD
ENDBRANCH  11  12
ENDBRANCH   9  11
ENDBRANCH   1   4
BRANCH   1  17
ATOM     17  C   UNL     1      43.225   4.497  11.107  0.00  0.00    +0.000 C 
BRANCH  17  22
ATOM     18  C   UNL     1      46.479   2.508   7.693  0.00  0.00    +0.000 A 
ATOM     19  C   UNL     1      45.566   1.864   8.522  0.00  0.00    +0.000 A 
ATOM     20  C   UNL     1      44.666   2.629   9.264  0.00  0.00    +0.000 A 
ATOM     21  C   UNL     1      44.701   4.018   9.176  0.00  0.00    +0.000 A 
ATOM     22  N   UNL     1      43.775   4.836   9.787  0.00  0.00    +0.000 N 
ATOM     23  N   UNL     1      45.608   4.651   8.408  0.00  0.00    +0.000 NA
ATOM     24  C   UNL     1      46.479   3.893   7.691  0.00  0.00    +0.000 A 
ATOM     25  H   UNL     1      44.068   5.806   9.668  0.00  0.00    +0.000 HD
BRANCH  18  27
ATOM     26  N   UNL     1      48.525   2.460   6.391  0.00  0.00    +0.000 N 
ATOM     27  C   UNL     1      47.420   1.779   6.821  0.00  0.00    +0.000 C 
ATOM     28  O   UNL     1      47.243   0.603   6.529  0.00  0.00    +0.000 OA
ATOM     29  H   UNL     1      49.223   1.917   5.898  0.00  0.00    +0.000 HD
ATOM     30  H   UNL     1      48.832   3.321   6.823  0.00  0.00    +0.000 HD
ENDBRANCH  18  27
ENDBRANCH  17  22
ENDBRANCH   1  17
TORSDOF 6
ENDMDL
MODEL 5
REMARK VINA RESULT:    -7.922      2.378      7.799
REMARK INTER + INTRA:         -11.667
REMARK INTER:                 -10.911
REMARK INTRA:                  -0.756
REMARK UNBOUND:                -0.966
REMARK  Name = 
REMARK  6 active torsions:
REMARK  status: ('A' for Active; 'I' for Inactive)
REMARK    1  A    between atoms: C_2  and  C_4
REMARK    2  A    between atoms: N_8  and  C_9
REMARK    3  A    between atoms: C_9  and  C_10
REMARK    4  A    between atoms: C_10  and  C_13
REMARK    5  A    between atoms: C_18  and  O_19
REMARK    6  A    between atoms: O_19  and  C_20
REMARK                            x       y       z     vdW  Elec       q    Type
REMARK                         _______ _______ _______ _____ _____    ______ ____
ROOT
ATOM      1  C   UNL     1      45.794   6.257  11.312  0.00  0.00    +0.000 C 
ATOM      2  F   UNL     1      44.941   7.284  11.010  0.00  0.00    +0.000 F 
ATOM      3  F   UNL     1      47.022   6.673  10.882  0.00  0.00    +0.000 F 
ENDROOT
BRANCH   1   4
ATOM      4  C   UNL     1      45.382   4.961  10.633  0.00  0.00    +0.000 A 
ATOM      5  C   UNL     1      44.709   3.957  11.342  0.00  0.00    +0.000 A 
ATOM      6  C   UNL     1      44.311   2.785  10.693  0.00  0.00    +0.000 A 
ATOM      7  C   UNL     1      44.591   2.603   9.339  0.00  0.00    +0.000 A 
ATOM      8  F   UNL     1      44.163   1.475   8.753  0.00  0.00    +0.000 F 
ATOM      9  C   UNL     1      45.276   3.578   8.619  0.00  0.00    +0.000 A 
ATOM     10  C   UNL     1      45.660   4.757   9.269  0.00  0.00    +0.000 A 
BRANCH   9  11
ATOM     11  O   UNL     1      45.591   3.532   7.283  0.00  0.00    +0.000 OA
BRANCH  11  12
ATOM     12  C   UNL     1      46.969   3.344   6.883  0.00  0.00    +0.000 C 
ATOM     13  C   UNL     1      47.250   2.949   5.419  0.00  0.00    +0.000 C 
ATOM     14  N   UNL     1      48.066   1.810   5.866  0.00  0.00    +0.000 NA
ATOM     15  C   UNL     1      47.554   1.959   7.236  0.00  0.00    +0.000 C 
ATOM     16  H   UNL     1      49.070   1.962   5.784  0.00  0.00    +0.000 HD
ENDBRANCH  11  12
ENDBRANCH   9  11
ENDBRANCH   1   4
BRANCH   1  17
ATOM     17  C   UNL     1      45.829   6.100  12.856  0.00  0.00    +0.000 C 
BRANCH  17  22
ATOM     18  C   UNL     1      48.492   4.252  16.817  0.00  0.00    +0.000 A 
ATOM     19  C   UNL     1      47.508   3.635  16.049  0.00  0.00    +0.000 A 
ATOM     20  C   UNL     1      47.029   4.285  14.912  0.00  0.00    +0.000 A 
ATOM     21  C   UNL     1      47.528   5.538  14.568  0.00  0.00    +0.000 A 
ATOM     22  N   UNL     1      47.189   6.192  13.403  0.00  0.00    +0.000 N 
ATOM     23  N   UNL     1      48.449   6.160  15.329  0.00  0.00    +0.000 NA
ATOM     24  C   UNL     1      48.907   5.516  16.434  0.00  0.00    +0.000 A 
ATOM     25  H   UNL     1      47.592   7.128  13.425  0.00  0.00    +0.000 HD
BRANCH  18  27
ATOM     26  N   UNL     1      48.289   3.356  19.062  0.00  0.00    +0.000 N 
ATOM     27  C   UNL     1      49.106   3.610  17.995  0.00  0.00    +0.000 C 
ATOM     28  O   UNL     1      50.285   3.280  18.002  0.00  0.00    +0.000 OA
ATOM     29  H   UNL     1      48.690   2.806  19.812  0.00  0.00    +0.000 HD
ATOM     30  H   UNL     1      47.281   3.366  18.986  0.00  0.00    +0.000 HD
ENDBRANCH  18  27
ENDBRANCH  17  22
ENDBRANCH   1  17
TORSDOF 6
ENDMDL
MODEL 6
REMARK VINA RESULT:    -7.196      3.237      7.406
REMARK INTER + INTRA:         -10.686
REMARK INTER:                  -9.921
REMARK INTRA:                  -0.765
REMARK UNBOUND:                -0.966
REMARK  Name = 
REMARK  6 active torsions:
REMARK  status: ('A' for Active; 'I' for Inactive)
REMARK    1  A    between atoms: C_2  and  C_4
REMARK    2  A    between atoms: N_8  and  C_9
REMARK    3  A    between atoms: C_9  and  C_10
REMARK    4  A    between atoms: C_10  and  C_13
REMARK    5  A    between atoms: C_18  and  O_19
REMARK    6  A    between atoms: O_19  and  C_20
REMARK                            x       y       z     vdW  Elec       q    Type
REMARK                         _______ _______ _______ _____ _____    ______ ____
ROOT
ATOM      1  C   UNL     1      44.670   6.102  11.143  0.00  0.00    +0.000 C 
ATOM      2  F   UNL     1      43.413   6.643  11.184  0.00  0.00    +0.000 F 
ATOM      3  F   UNL     1      45.415   6.984  10.414  0.00  0.00    +0.000 F 
ENDROOT
BRANCH   1   4
ATOM      4  C   UNL     1      44.671   4.721  10.508  0.00  0.00    +0.000 A 
ATOM      5  C   UNL     1      44.234   3.597  11.223  0.00  0.00    +0.000 A 
ATOM      6  C   UNL     1      44.214   2.341  10.612  0.00  0.00    +0.000 A 
ATOM      7  C   UNL     1      44.638   2.195   9.291  0.00  0.00    +0.000 A 
ATOM      8  F   UNL     1      44.572   0.975   8.739  0.00  0.00    +0.000 F 
ATOM      9  C   UNL     1      45.094   3.294   8.567  0.00  0.00    +0.000 A 
ATOM     10  C   UNL     1      45.100   4.554   9.179  0.00  0.00    +0.000 A 
BRANCH   9  11
ATOM     11  O   UNL     1      45.515   3.290   7.260  0.00  0.00    +0.000 OA
BRANCH  11  12
ATOM     12  C   UNL     1      46.926   3.162   6.967  0.00  0.00    +0.000 C 
ATOM     13  C   UNL     1      47.343   2.964   5.496  0.00  0.00    +0.000 C 
ATOM     14  N   UNL     1      48.135   1.780   5.862  0.00  0.00    +0.000 NA
ATOM     15  C   UNL     1      47.499   1.745   7.188  0.00  0.00    +0.000 C 
ATOM     16  H   UNL     1      49.140   1.946   5.893  0.00  0.00    +0.000 HD
ENDBRANCH  11  12
ENDBRANCH   9  11
ENDBRANCH   1   4
BRANCH   1  17
ATOM     17  C   UNL     1      45.220   6.057  12.594  0.00  0.00    +0.000 C 
BRANCH  17  22
ATOM     18  C   UNL     1      49.823   8.176  13.315  0.00  0.00    +0.000 A 
ATOM     19  C   UNL     1      49.409   7.274  12.339  0.00  0.00    +0.000 A 
ATOM     20  C   UNL     1      48.055   6.952  12.244  0.00  0.00    +0.000 A 
ATOM     21  C   UNL     1      47.144   7.524  13.127  0.00  0.00    +0.000 A 
ATOM     22  N   UNL     1      45.781   7.345  13.025  0.00  0.00    +0.000 N 
ATOM     23  N   UNL     1      47.541   8.365  14.101  0.00  0.00    +0.000 NA
ATOM     24  C   UNL     1      48.863   8.670  14.182  0.00  0.00    +0.000 A 
ATOM     25  H   UNL     1      45.335   7.769  13.838  0.00  0.00    +0.000 HD
BRANCH  18  27
ATOM     26  N   UNL     1      52.152   8.008  12.656  0.00  0.00    +0.000 N 
ATOM     27  C   UNL     1      51.223   8.626  13.445  0.00  0.00    +0.000 C 
ATOM     28  O   UNL     1      51.532   9.543  14.196  0.00  0.00    +0.000 OA
ATOM     29  H   UNL     1      53.083   8.407  12.663  0.00  0.00    +0.000 HD
ATOM     30  H   UNL     1      51.894   7.453  11.851  0.00  0.00    +0.000 HD
ENDBRANCH  18  27
ENDBRANCH  17  22
ENDBRANCH   1  17
TORSDOF 6
ENDMDL
MODEL 7
REMARK VINA RESULT:    -6.875      3.050      7.438
REMARK INTER + INTRA:         -10.253
REMARK INTER:                  -9.178
REMARK INTRA:                  -1.075
REMARK UNBOUND:                -0.966
REMARK  Name = 
REMARK  6 active torsions:
REMARK  status: ('A' for Active; 'I' for Inactive)
REMARK    1  A    between atoms: C_2  and  C_4
REMARK    2  A    between atoms: N_8  and  C_9
REMARK    3  A    between atoms: C_9  and  C_10
REMARK    4  A    between atoms: C_10  and  C_13
REMARK    5  A    between atoms: C_18  and  O_19
REMARK    6  A    between atoms: O_19  and  C_20
REMARK                            x       y       z     vdW  Elec       q    Type
REMARK                         _______ _______ _______ _____ _____    ______ ____
ROOT
ATOM      1  C   UNL     1      48.813   7.874  12.362  0.00  0.00    +0.000 C 
ATOM      2  F   UNL     1      49.441   8.769  11.537  0.00  0.00    +0.000 F 
ATOM      3  F   UNL     1      49.439   6.681  12.138  0.00  0.00    +0.000 F 
ENDROOT
BRANCH   1   4
ATOM      4  C   UNL     1      47.325   7.781  12.067  0.00  0.00    +0.000 A 
ATOM      5  C   UNL     1      46.461   8.842  12.369  0.00  0.00    +0.000 A 
ATOM      6  C   UNL     1      45.101   8.750  12.062  0.00  0.00    +0.000 A 
ATOM      7  C   UNL     1      44.593   7.597  11.463  0.00  0.00    +0.000 A 
ATOM      8  F   UNL     1      43.287   7.567  11.161  0.00  0.00    +0.000 F 
ATOM      9  C   UNL     1      45.429   6.522  11.171  0.00  0.00    +0.000 A 
ATOM     10  C   UNL     1      46.794   6.624  11.467  0.00  0.00    +0.000 A 
BRANCH   9  11
ATOM     11  O   UNL     1      45.061   5.346  10.565  0.00  0.00    +0.000 OA
BRANCH  11  12
ATOM     12  C   UNL     1      44.669   4.217  11.381  0.00  0.00    +0.000 C 
ATOM     13  C   UNL     1      44.252   2.917  10.663  0.00  0.00    +0.000 C 
ATOM     14  N   UNL     1      42.997   2.878  11.427  0.00  0.00    +0.000 NA
ATOM     15  C   UNL     1      43.207   4.263  11.875  0.00  0.00    +0.000 C 
ATOM     16  H   UNL     1      42.995   2.197  12.186  0.00  0.00    +0.000 HD
ENDBRANCH  11  12
ENDBRANCH   9  11
ENDBRANCH   1   4
BRANCH   1  17
ATOM     17  C   UNL     1      49.072   8.310  13.828  0.00  0.00    +0.000 C 
BRANCH  17  22
ATOM     18  C   UNL     1      48.123   4.377  16.963  0.00  0.00    +0.000 A 
ATOM     19  C   UNL     1      47.418   4.802  15.841  0.00  0.00    +0.000 A 
ATOM     20  C   UNL     1      47.957   5.813  15.044  0.00  0.00    +0.000 A 
ATOM     21  C   UNL     1      49.178   6.387  15.386  0.00  0.00    +0.000 A 
ATOM     22  N   UNL     1      49.827   7.307  14.591  0.00  0.00    +0.000 N 
ATOM     23  N   UNL     1      49.846   6.011  16.493  0.00  0.00    +0.000 NA
ATOM     24  C   UNL     1      49.309   5.026  17.260  0.00  0.00    +0.000 A 
ATOM     25  H   UNL     1      50.640   7.659  15.097  0.00  0.00    +0.000 HD
BRANCH  18  27
ATOM     26  N   UNL     1      48.327   3.082  19.004  0.00  0.00    +0.000 N 
ATOM     27  C   UNL     1      47.664   3.269  17.823  0.00  0.00    +0.000 C 
ATOM     28  O   UNL     1      46.704   2.575  17.514  0.00  0.00    +0.000 OA
ATOM     29  H   UNL     1      47.928   2.403  19.640  0.00  0.00    +0.000 HD
ATOM     30  H   UNL     1      48.930   3.789  19.403  0.00  0.00    +0.000 HD
ENDBRANCH  18  27
ENDBRANCH  17  22
ENDBRANCH   1  17
TORSDOF 6
ENDMDL
MODEL 8
REMARK VINA RESULT:    -6.845      3.211      4.580
REMARK INTER + INTRA:         -10.212
REMARK INTER:                  -9.176
REMARK INTRA:                  -1.036
REMARK UNBOUND:                -0.966
REMARK  Name = 
REMARK  6 active torsions:
REMARK  status: ('A' for Active; 'I' for Inactive)
REMARK    1  A    between atoms: C_2  and  C_4
REMARK    2  A    between atoms: N_8  and  C_9
REMARK    3  A    between atoms: C_9  and  C_10
REMARK    4  A    between atoms: C_10  and  C_13
REMARK    5  A    between atoms: C_18  and  O_19
REMARK    6  A    between atoms: O_19  and  C_20
REMARK                            x       y       z     vdW  Elec       q    Type
REMARK                         _______ _______ _______ _____ _____    ______ ____
ROOT
ATOM      1  C   UNL     1      47.757   8.793  13.199  0.00  0.00    +0.000 C 
ATOM      2  F   UNL     1      48.320   8.102  12.160  0.00  0.00    +0.000 F 
ATOM      3  F   UNL     1      48.067  10.103  12.968  0.00  0.00    +0.000 F 
ENDROOT
BRANCH   1   4
ATOM      4  C   UNL     1      48.292   8.328  14.543  0.00  0.00    +0.000 A 
ATOM      5  C   UNL     1      48.631   9.250  15.543  0.00  0.00    +0.000 A 
ATOM      6  C   UNL     1      49.093   8.803  16.784  0.00  0.00    +0.000 A 
ATOM      7  C   UNL     1      49.229   7.437  17.032  0.00  0.00    +0.000 A 
ATOM      8  F   UNL     1      49.647   7.056  18.247  0.00  0.00    +0.000 F 
ATOM      9  C   UNL     1      48.917   6.503  16.047  0.00  0.00    +0.000 A 
ATOM     10  C   UNL     1      48.442   6.955  14.810  0.00  0.00    +0.000 A 
BRANCH   9  11
ATOM     11  O   UNL     1      48.985   5.137  16.170  0.00  0.00    +0.000 OA
BRANCH  11  12
ATOM     12  C   UNL     1      47.762   4.371  16.271  0.00  0.00    +0.000 C 
ATOM     13  C   UNL     1      47.002   4.396  17.613  0.00  0.00    +0.000 C 
ATOM     14  N   UNL     1      46.977   2.926  17.646  0.00  0.00    +0.000 NA
ATOM     15  C   UNL     1      47.972   2.869  16.565  0.00  0.00    +0.000 C 
ATOM     16  H   UNL     1      46.076   2.521  17.398  0.00  0.00    +0.000 HD
ENDBRANCH  11  12
ENDBRANCH   9  11
ENDBRANCH   1   4
BRANCH   1  17
ATOM     17  C   UNL     1      46.217   8.618  13.113  0.00  0.00    +0.000 C 
BRANCH  17  22
ATOM     18  C   UNL     1      44.427   4.164  11.337  0.00  0.00    +0.000 A 
ATOM     19  C   UNL     1      44.182   4.792  12.554  0.00  0.00    +0.000 A 
ATOM     20  C   UNL     1      44.659   6.087  12.757  0.00  0.00    +0.000 A 
ATOM     21  C   UNL     1      45.380   6.726  11.752  0.00  0.00    +0.000 A 
ATOM     22  N   UNL     1      45.785   8.041  11.833  0.00  0.00    +0.000 N 
ATOM     23  N   UNL     1      45.658   6.110  10.587  0.00  0.00    +0.000 NA
ATOM     24  C   UNL     1      45.187   4.848  10.403  0.00  0.00    +0.000 A 
ATOM     25  H   UNL     1      46.382   8.248  11.033  0.00  0.00    +0.000 HD
BRANCH  18  27
ATOM     26  N   UNL     1      44.494   2.163   9.968  0.00  0.00    +0.000 N 
ATOM     27  C   UNL     1      43.903   2.824  11.008  0.00  0.00    +0.000 C 
ATOM     28  O   UNL     1      43.007   2.309  11.665  0.00  0.00    +0.000 OA
ATOM     29  H   UNL     1      44.212   1.200   9.831  0.00  0.00    +0.000 HD
ATOM     30  H   UNL     1      45.391   2.438   9.592  0.00  0.00    +0.000 HD
ENDBRANCH  18  27
ENDBRANCH  17  22
ENDBRANCH   1  17
TORSDOF 6
ENDMDL
MODEL 9
REMARK VINA RESULT:    -6.624      4.306      6.032
REMARK INTER + INTRA:          -9.913
REMARK INTER:                  -8.888
REMARK INTRA:                  -1.025
REMARK UNBOUND:                -0.966
REMARK  Name = 
REMARK  6 active torsions:
REMARK  status: ('A' for Active; 'I' for Inactive)
REMARK    1  A    between atoms: C_2  and  C_4
REMARK    2  A    between atoms: N_8  and  C_9
REMARK    3  A    between atoms: C_9  and  C_10
REMARK    4  A    between atoms: C_10  and  C_13
REMARK    5  A    between atoms: C_18  and  O_19
REMARK    6  A    between atoms: O_19  and  C_20
REMARK                            x       y       z     vdW  Elec       q    Type
REMARK                         _______ _______ _______ _____ _____    ______ ____
ROOT
ATOM      1  C   UNL     1      49.401   8.599  14.374  0.00  0.00    +0.000 C 
ATOM      2  F   UNL     1      49.910   9.869  14.375  0.00  0.00    +0.000 F 
ATOM      3  F   UNL     1      48.133   8.722  14.869  0.00  0.00    +0.000 F 
ENDROOT
BRANCH   1   4
ATOM      4  C   UNL     1      50.235   7.655  15.224  0.00  0.00    +0.000 A 
ATOM      5  C   UNL     1      51.628   7.792  15.301  0.00  0.00    +0.000 A 
ATOM      6  C   UNL     1      52.375   6.933  16.111  0.00  0.00    +0.000 A 
ATOM      7  C   UNL     1      51.741   5.928  16.841  0.00  0.00    +0.000 A 
ATOM      8  F   UNL     1      52.497   5.148  17.627  0.00  0.00    +0.000 F 
ATOM      9  C   UNL     1      50.360   5.760  16.765  0.00  0.00    +0.000 A 
ATOM     10  C   UNL     1      49.614   6.632  15.963  0.00  0.00    +0.000 A 
BRANCH   9  11
ATOM     11  O   UNL     1      49.616   4.829  17.447  0.00  0.00    +0.000 OA
BRANCH  11  12
ATOM     12  C   UNL     1      48.345   4.399  16.905  0.00  0.00    +0.000 C 
ATOM     13  C   UNL     1      47.093   4.546  17.793  0.00  0.00    +0.000 C 
ATOM     14  N   UNL     1      46.752   3.133  17.576  0.00  0.00    +0.000 NA
ATOM     15  C   UNL     1      48.086   2.880  17.012  0.00  0.00    +0.000 C 
ATOM     16  H   UNL     1      45.991   2.987  16.912  0.00  0.00    +0.000 HD
ENDBRANCH  11  12
ENDBRANCH   9  11
ENDBRANCH   1   4
BRANCH   1  17
ATOM     17  C   UNL     1      49.322   8.114  12.902  0.00  0.00    +0.000 C 
BRANCH  17  22
ATOM     18  C   UNL     1      45.102   5.221  13.060  0.00  0.00    +0.000 A 
ATOM     19  C   UNL     1      45.281   6.494  12.527  0.00  0.00    +0.000 A 
ATOM     20  C   UNL     1      46.568   7.026  12.459  0.00  0.00    +0.000 A 
ATOM     21  C   UNL     1      47.649   6.287  12.931  0.00  0.00    +0.000 A 
ATOM     22  N   UNL     1      48.959   6.695  12.794  0.00  0.00    +0.000 N 
ATOM     23  N   UNL     1      47.481   5.072  13.486  0.00  0.00    +0.000 NA
ATOM     24  C   UNL     1      46.221   4.566  13.547  0.00  0.00    +0.000 A 
ATOM     25  H   UNL     1      49.557   6.047  13.307  0.00  0.00    +0.000 HD
BRANCH  18  27
ATOM     26  N   UNL     1      42.681   5.354  13.116  0.00  0.00    +0.000 N 
ATOM     27  C   UNL     1      43.788   4.552  13.110  0.00  0.00    +0.000 C 
ATOM     28  O   UNL     1      43.691   3.331  13.103  0.00  0.00    +0.000 OA
ATOM     29  H   UNL     1      41.788   4.886  13.025  0.00  0.00    +0.000 HD
ATOM     30  H   UNL     1      42.719   6.330  12.853  0.00  0.00    +0.000 HD
ENDBRANCH  18  27
ENDBRANCH  17  22
ENDBRANCH   1  17
TORSDOF 6
ENDMDL
