MODEL 1
REMARK VINA RESULT:    -9.285      0.000      0.000
REMARK INTER + INTRA:         -13.654
REMARK INTER:                 -12.542
REMARK INTRA:                  -1.113
REMARK UNBOUND:                -1.113
REMARK  Name = 
REMARK  6 active torsions:
REMARK  status: ('A' for Active; 'I' for Inactive)
REMARK    1  A    between atoms: C_2  and  C_4
REMARK    2  A    between atoms: C_7  and  N_8
REMARK    3  A    between atoms: N_8  and  C_9
REMARK    4  A    between atoms: C_9  and  C_10
REMARK    5  A    between atoms: C_10  and  C_13
REMARK    6  A    between atoms: C_17  and  C_18
REMARK                            x       y       z     vdW  Elec       q    Type
REMARK                         _______ _______ _______ _____ _____    ______ ____
ROOT
ATOM      1  C   UNL     1      43.555   5.585  12.092  0.00  0.00    +0.000 C 
ATOM      2  F   UNL     1      43.016   6.605  11.363  0.00  0.00    +0.000 F 
ATOM      3  F   UNL     1      42.820   5.534  13.244  0.00  0.00    +0.000 F 
ENDROOT
BRANCH   1   4
ATOM      4  C   UNL     1      45.034   5.799  12.357  0.00  0.00    +0.000 A 
ATOM      5  C   UNL     1      45.811   6.565  11.481  0.00  0.00    +0.000 A 
ATOM      6  C   UNL     1      47.151   6.807  11.766  0.00  0.00    +0.000 A 
ATOM      7  C   UNL     1      47.721   6.299  12.936  0.00  0.00    +0.000 A 
ATOM      8  C   UNL     1      46.969   5.544  13.854  0.00  0.00    +0.000 A 
ATOM      9  C   UNL     1      45.624   5.290  13.529  0.00  0.00    +0.000 A 
BRANCH   8  10
ATOM     10  C   UNL     1      47.550   5.083  15.133  0.00  0.00    +0.000 A 
ATOM     11  C   UNL     1      48.552   5.812  15.790  0.00  0.00    +0.000 A 
ATOM     12  N   UNL     1      49.111   5.481  16.982  0.00  0.00    +0.000 NA
ATOM     13  C   UNL     1      48.646   4.358  17.569  0.00  0.00    +0.000 A 
ATOM     14  C   UNL     1      47.664   3.563  17.013  0.00  0.00    +0.000 A 
ATOM     15  F   UNL     1      47.235   2.465  17.647  0.00  0.00    +0.000 F 
ATOM     16  C   UNL     1      47.113   3.922  15.787  0.00  0.00    +0.000 A 
ENDBRANCH   8  10
ENDBRANCH   1   4
BRANCH   1  17
ATOM     17  C   UNL     1      43.357   4.251  11.328  0.00  0.00    +0.000 C 
BRANCH  17  18
ATOM     18  N   UNL     1      43.489   4.382   9.869  0.00  0.00    +0.000 N 
ATOM     19  H   UNL     1      42.608   4.362   9.357  0.00  0.00    +0.000 HD
BRANCH  18  23
ATOM     20  C   UNL     1      46.549   2.497   7.663  0.00  0.00    +0.000 A 
ATOM     21  C   UNL     1      46.415   3.886   7.603  0.00  0.00    +0.000 A 
ATOM     22  C   UNL     1      45.420   4.526   8.351  0.00  0.00    +0.000 A 
ATOM     23  C   UNL     1      44.560   3.807   9.192  0.00  0.00    +0.000 A 
ATOM     24  C   UNL     1      44.704   2.414   9.232  0.00  0.00    +0.000 A 
ATOM     25  C   UNL     1      45.682   1.761   8.474  0.00  0.00    +0.000 A 
BRANCH  20  27
ATOM     26  N   UNL     1      48.634   2.491   6.407  0.00  0.00    +0.000 N 
ATOM     27  C   UNL     1      47.556   1.775   6.843  0.00  0.00    +0.000 C 
ATOM     28  O   UNL     1      47.445   0.583   6.590  0.00  0.00    +0.000 OA
ATOM     29  H   UNL     1      49.358   1.966   5.932  0.00  0.00    +0.000 HD
ATOM     30  H   UNL     1      48.884   3.391   6.796  0.00  0.00    +0.000 HD
ENDBRANCH  20  27
ENDBRANCH  18  23
ENDBRANCH  17  18
ENDBRANCH   1  17
TORSDOF 6
ENDMDL
MODEL 2
REMARK VINA RESULT:    -9.138      2.492      3.942
REMARK INTER + INTRA:         -13.457
REMARK INTER:                 -12.329
REMARK INTRA:                  -1.128
REMARK UNBOUND:                -1.113
REMARK  Name = 
REMARK  6 active torsions:
REMARK  status: ('A' for Active; 'I' for Inactive)
REMARK    1  A    between atoms: C_2  and  C_4
REMARK    2  A    between atoms: C_7  and  N_8
REMARK    3  A    between atoms: N_8  and  C_9
REMARK    4  A    between atoms: C_9  and  C_10
REMARK    5  A    between atoms: C_10  and  C_13
REMARK    6  A    between atoms: C_17  and  C_18
REMARK                            x       y       z     vdW  Elec       q    Type
REMARK                         _______ _______ _______ _____ _____    ______ ____
ROOT
ATOM      1  C   UNL     1      43.302   5.074  12.525  0.00  0.00    +0.000 C 
ATOM      2  F   UNL     1      42.609   6.201  12.191  0.00  0.00    +0.000 F 
ATOM      3  F   UNL     1      42.646   4.551  13.604  0.00  0.00    +0.000 F 
ENDROOT
BRANCH   1   4
ATOM      4  C   UNL     1      44.760   5.374  12.824  0.00  0.00    +0.000 A 
ATOM      5  C   UNL     1      45.593   4.388  13.365  0.00  0.00    +0.000 A 
ATOM      6  C   UNL     1      46.942   4.655  13.577  0.00  0.00    +0.000 A 
ATOM      7  C   UNL     1      47.473   5.901  13.236  0.00  0.00    +0.000 A 
ATOM      8  C   UNL     1      46.674   6.911  12.669  0.00  0.00    +0.000 A 
ATOM      9  C   UNL     1      45.308   6.628  12.492  0.00  0.00    +0.000 A 
BRANCH   8  10
ATOM     10  C   UNL     1      47.255   8.197  12.228  0.00  0.00    +0.000 A 
ATOM     11  C   UNL     1      46.510   9.385  12.246  0.00  0.00    +0.000 A 
ATOM     12  N   UNL     1      46.976  10.611  11.897  0.00  0.00    +0.000 NA
ATOM     13  C   UNL     1      48.267  10.671  11.506  0.00  0.00    +0.000 A 
ATOM     14  C   UNL     1      49.093   9.566  11.449  0.00  0.00    +0.000 A 
ATOM     15  F   UNL     1      50.369   9.688  11.064  0.00  0.00    +0.000 F 
ATOM     16  C   UNL     1      48.587   8.321  11.807  0.00  0.00    +0.000 A 
ENDBRANCH   8  10
ENDBRANCH   1   4
BRANCH   1  17
ATOM     17  C   UNL     1      43.215   4.055  11.361  0.00  0.00    +0.000 C 
BRANCH  17  18
ATOM     18  N   UNL     1      43.677   4.593  10.072  0.00  0.00    +0.000 N 
ATOM     19  H   UNL     1      42.947   5.016   9.499  0.00  0.00    +0.000 HD
BRANCH  18  23
ATOM     20  C   UNL     1      46.513   2.523   7.736  0.00  0.00    +0.000 A 
ATOM     21  C   UNL     1      46.434   3.914   7.647  0.00  0.00    +0.000 A 
ATOM     22  C   UNL     1      45.516   4.615   8.437  0.00  0.00    +0.000 A 
ATOM     23  C   UNL     1      44.679   3.955   9.346  0.00  0.00    +0.000 A 
ATOM     24  C   UNL     1      44.766   2.558   9.415  0.00  0.00    +0.000 A 
ATOM     25  C   UNL     1      45.667   1.844   8.616  0.00  0.00    +0.000 A 
BRANCH  20  27
ATOM     26  N   UNL     1      48.597   2.343   6.491  0.00  0.00    +0.000 N 
ATOM     27  C   UNL     1      47.435   1.737   6.875  0.00  0.00    +0.000 C 
ATOM     28  O   UNL     1      47.185   0.585   6.546  0.00  0.00    +0.000 OA
ATOM     29  H   UNL     1      49.259   1.766   5.987  0.00  0.00    +0.000 HD
ATOM     30  H   UNL     1      48.949   3.180   6.938  0.00  0.00    +0.000 HD
ENDBRANCH  20  27
ENDBRANCH  18  23
ENDBRANCH  17  18
ENDBRANCH   1  17
TORSDOF 6
ENDMDL
MODEL 3
REMARK VINA RESULT:    -8.702      1.317      1.867
REMARK INTER + INTRA:         -12.867
REMARK INTER:                 -11.920
REMARK INTRA:                  -0.948
REMARK UNBOUND:                -1.113
REMARK  Name = 
REMARK  6 active torsions:
REMARK  status: ('A' for Active; 'I' for Inactive)
REMARK    1  A    between atoms: C_2  and  C_4
REMARK    2  A    between atoms: C_7  and  N_8
REMARK    3  A    between atoms: N_8  and  C_9
REMARK    4  A    between atoms: C_9  and  C_10
REMARK    5  A    between atoms: C_10  and  C_13
REMARK    6  A    between atoms: C_17  and  C_18
REMARK                            x       y       z     vdW  Elec       q    Type
REMARK                         _______ _______ _______ _____ _____    ______ ____
ROOT
ATOM      1  C   UNL     1      44.361   5.005  12.450  0.00  0.00    +0.000 C 
ATOM      2  F   UNL     1      43.351   5.487  13.230  0.00  0.00    +0.000 F 
ATOM      3  F   UNL     1      44.180   3.650  12.415  0.00  0.00    +0.000 F 
ENDROOT
BRANCH   1   4
ATOM      4  C   UNL     1      45.726   5.393  12.988  0.00  0.00    +0.000 A 
ATOM      5  C   UNL     1      46.515   6.335  12.318  0.00  0.00    +0.000 A 
ATOM      6  C   UNL     1      47.737   6.730  12.853  0.00  0.00    +0.000 A 
ATOM      7  C   UNL     1      48.173   6.199  14.069  0.00  0.00    +0.000 A 
ATOM      8  C   UNL     1      47.401   5.267  14.786  0.00  0.00    +0.000 A 
ATOM      9  C   UNL     1      46.183   4.863  14.210  0.00  0.00    +0.000 A 
BRANCH   8  10
ATOM     10  C   UNL     1      47.823   4.774  16.114  0.00  0.00    +0.000 A 
ATOM     11  C   UNL     1      47.660   3.432  16.486  0.00  0.00    +0.000 A 
ATOM     12  N   UNL     1      48.054   2.889  17.666  0.00  0.00    +0.000 NA
ATOM     13  C   UNL     1      48.654   3.727  18.539  0.00  0.00    +0.000 A 
ATOM     14  C   UNL     1      48.865   5.067  18.279  0.00  0.00    +0.000 A 
ATOM     15  F   UNL     1      49.474   5.847  19.179  0.00  0.00    +0.000 F 
ATOM     16  C   UNL     1      48.445   5.597  17.064  0.00  0.00    +0.000 A 
ENDBRANCH   8  10
ENDBRANCH   1   4
BRANCH   1  17
ATOM     17  C   UNL     1      44.202   5.555  11.009  0.00  0.00    +0.000 C 
BRANCH  17  18
ATOM     18  N   UNL     1      43.628   4.580  10.068  0.00  0.00    +0.000 N 
ATOM     19  H   UNL     1      42.775   4.126  10.391  0.00  0.00    +0.000 HD
BRANCH  18  23
ATOM     20  C   UNL     1      46.331   2.257   7.813  0.00  0.00    +0.000 A 
ATOM     21  C   UNL     1      45.457   1.625   8.701  0.00  0.00    +0.000 A 
ATOM     22  C   UNL     1      44.537   2.383   9.436  0.00  0.00    +0.000 A 
ATOM     23  C   UNL     1      44.448   3.773   9.284  0.00  0.00    +0.000 A 
ATOM     24  C   UNL     1      45.338   4.390   8.396  0.00  0.00    +0.000 A 
ATOM     25  C   UNL     1      46.275   3.645   7.670  0.00  0.00    +0.000 A 
BRANCH  20  27
ATOM     26  N   UNL     1      48.437   2.194   6.595  0.00  0.00    +0.000 N 
ATOM     27  C   UNL     1      47.358   1.495   7.056  0.00  0.00    +0.000 C 
ATOM     28  O   UNL     1      47.263   0.289   6.876  0.00  0.00    +0.000 OA
ATOM     29  H   UNL     1      49.174   1.648   6.166  0.00  0.00    +0.000 HD
ATOM     30  H   UNL     1      48.672   3.119   6.932  0.00  0.00    +0.000 HD
ENDBRANCH  20  27
ENDBRANCH  18  23
ENDBRANCH  17  18
ENDBRANCH   1  17
TORSDOF 6
ENDMDL
MODEL 4
REMARK VINA RESULT:    -8.482      2.307      2.950
REMARK INTER + INTRA:         -12.571
REMARK INTER:                 -11.371
REMARK INTRA:                  -1.200
REMARK UNBOUND:                -1.113
REMARK  Name = 
REMARK  6 active torsions:
REMARK  status: ('A' for Active; 'I' for Inactive)
REMARK    1  A    between atoms: C_2  and  C_4
REMARK    2  A    between atoms: C_7  and  N_8
REMARK    3  A    between atoms: N_8  and  C_9
REMARK    4  A    between atoms: C_9  and  C_10
REMARK    5  A    between atoms: C_10  and  C_13
REMARK    6  A    between atoms: C_17  and  C_18
REMARK                            x       y       z     vdW  Elec       q    Type
REMARK                         _______ _______ _______ _____ _____    ______ ____
ROOT
ATOM      1  C   UNL     1      44.192   3.936  12.518  0.00  0.00    +0.000 C 
ATOM      2  F   UNL     1      43.396   3.954  13.626  0.00  0.00    +0.000 F 
ATOM      3  F   UNL     1      45.064   2.901  12.714  0.00  0.00    +0.000 F 
ENDROOT
BRANCH   1   4
ATOM      4  C   UNL     1      44.903   5.260  12.310  0.00  0.00    +0.000 A 
ATOM      5  C   UNL     1      44.294   6.288  11.581  0.00  0.00    +0.000 A 
ATOM      6  C   UNL     1      44.928   7.520  11.449  0.00  0.00    +0.000 A 
ATOM      7  C   UNL     1      46.166   7.740  12.058  0.00  0.00    +0.000 A 
ATOM      8  C   UNL     1      46.800   6.741  12.818  0.00  0.00    +0.000 A 
ATOM      9  C   UNL     1      46.153   5.496  12.912  0.00  0.00    +0.000 A 
BRANCH   8  10
ATOM     10  C   UNL     1      48.066   7.004  13.534  0.00  0.00    +0.000 A 
ATOM     11  C   UNL     1      48.331   6.442  14.791  0.00  0.00    +0.000 A 
ATOM     12  N   UNL     1      49.480   6.600  15.497  0.00  0.00    +0.000 NA
ATOM     13  C   UNL     1      50.435   7.361  14.922  0.00  0.00    +0.000 A 
ATOM     14  C   UNL     1      50.283   7.965  13.690  0.00  0.00    +0.000 A 
ATOM     15  F   UNL     1      51.270   8.701  13.165  0.00  0.00    +0.000 F 
ATOM     16  C   UNL     1      49.093   7.791  12.991  0.00  0.00    +0.000 A 
ENDBRANCH   8  10
ENDBRANCH   1   4
BRANCH   1  17
ATOM     17  C   UNL     1      43.327   3.615  11.272  0.00  0.00    +0.000 C 
BRANCH  17  18
ATOM     18  N   UNL     1      43.812   2.460  10.500  0.00  0.00    +0.000 N 
ATOM     19  H   UNL     1      43.912   1.600  11.038  0.00  0.00    +0.000 HD
BRANCH  18  23
ATOM     20  C   UNL     1      46.513   2.774   7.277  0.00  0.00    +0.000 A 
ATOM     21  C   UNL     1      45.864   3.919   7.743  0.00  0.00    +0.000 A 
ATOM     22  C   UNL     1      44.986   3.833   8.830  0.00  0.00    +0.000 A 
ATOM     23  C   UNL     1      44.755   2.618   9.489  0.00  0.00    +0.000 A 
ATOM     24  C   UNL     1      45.408   1.479   9.001  0.00  0.00    +0.000 A 
ATOM     25  C   UNL     1      46.274   1.549   7.904  0.00  0.00    +0.000 A 
BRANCH  20  27
ATOM     26  N   UNL     1      48.732   2.541   6.302  0.00  0.00    +0.000 N 
ATOM     27  C   UNL     1      47.410   2.813   6.093  0.00  0.00    +0.000 C 
ATOM     28  O   UNL     1      46.984   3.050   4.970  0.00  0.00    +0.000 OA
ATOM     29  H   UNL     1      49.313   2.477   5.476  0.00  0.00    +0.000 HD
ATOM     30  H   UNL     1      49.070   2.104   7.150  0.00  0.00    +0.000 HD
ENDBRANCH  20  27
ENDBRANCH  18  23
ENDBRANCH  17  18
ENDBRANCH   1  17
TORSDOF 6
ENDMDL
MODEL 5
REMARK VINA RESULT:    -8.146      2.533      3.365
REMARK INTER + INTRA:         -12.116
REMARK INTER:                 -11.127
REMARK INTRA:                  -0.989
REMARK UNBOUND:                -1.113
REMARK  Name = 
REMARK  6 active torsions:
REMARK  status: ('A' for Active; 'I' for Inactive)
REMARK    1  A    between atoms: C_2  and  C_4
REMARK    2  A    between atoms: C_7  and  N_8
REMARK    3  A    between atoms: N_8  and  C_9
REMARK    4  A    between atoms: C_9  and  C_10
REMARK    5  A    between atoms: C_10  and  C_13
REMARK    6  A    between atoms: C_17  and  C_18
REMARK                            x       y       z     vdW  Elec       q    Type
REMARK                         _______ _______ _______ _____ _____    ______ ____
ROOT
ATOM      1  C   UNL     1      44.941   6.428  11.484  0.00  0.00    +0.000 C 
ATOM      2  F   UNL     1      45.654   6.705  10.354  0.00  0.00    +0.000 F 
ATOM      3  F   UNL     1      44.253   7.575  11.769  0.00  0.00    +0.000 F 
ENDROOT
BRANCH   1   4
ATOM      4  C   UNL     1      45.838   5.993  12.628  0.00  0.00    +0.000 A 
ATOM      5  C   UNL     1      45.596   4.793  13.306  0.00  0.00    +0.000 A 
ATOM      6  C   UNL     1      46.461   4.372  14.311  0.00  0.00    +0.000 A 
ATOM      7  C   UNL     1      47.583   5.138  14.636  0.00  0.00    +0.000 A 
ATOM      8  C   UNL     1      47.875   6.338  13.963  0.00  0.00    +0.000 A 
ATOM      9  C   UNL     1      46.970   6.756  12.971  0.00  0.00    +0.000 A 
BRANCH   8  10
ATOM     10  C   UNL     1      49.109   7.101  14.247  0.00  0.00    +0.000 A 
ATOM     11  C   UNL     1      49.646   7.175  15.540  0.00  0.00    +0.000 A 
ATOM     12  N   UNL     1      50.792   7.819  15.881  0.00  0.00    +0.000 NA
ATOM     13  C   UNL     1      51.456   8.428  14.875  0.00  0.00    +0.000 A 
ATOM     14  C   UNL     1      51.020   8.422  13.565  0.00  0.00    +0.000 A 
ATOM     15  F   UNL     1      51.726   9.035  12.609  0.00  0.00    +0.000 F 
ATOM     16  C   UNL     1      49.839   7.759  13.247  0.00  0.00    +0.000 A 
ENDBRANCH   8  10
ENDBRANCH   1   4
BRANCH   1  17
ATOM     17  C   UNL     1      43.914   5.308  11.180  0.00  0.00    +0.000 C 
BRANCH  17  18
ATOM     18  N   UNL     1      43.764   5.020   9.745  0.00  0.00    +0.000 N 
ATOM     19  H   UNL     1      42.820   5.145   9.381  0.00  0.00    +0.000 HD
BRANCH  18  23
ATOM     20  C   UNL     1      46.168   2.020   8.013  0.00  0.00    +0.000 A 
ATOM     21  C   UNL     1      45.239   1.673   8.996  0.00  0.00    +0.000 A 
ATOM     22  C   UNL     1      44.417   2.655   9.560  0.00  0.00    +0.000 A 
ATOM     23  C   UNL     1      44.480   3.991   9.142  0.00  0.00    +0.000 A 
ATOM     24  C   UNL     1      45.425   4.322   8.161  0.00  0.00    +0.000 A 
ATOM     25  C   UNL     1      46.266   3.352   7.603  0.00  0.00    +0.000 A 
BRANCH  20  27
ATOM     26  N   UNL     1      46.810  -0.300   7.649  0.00  0.00    +0.000 N 
ATOM     27  C   UNL     1      47.097   1.017   7.429  0.00  0.00    +0.000 C 
ATOM     28  O   UNL     1      48.062   1.350   6.754  0.00  0.00    +0.000 OA
ATOM     29  H   UNL     1      47.394  -0.972   7.167  0.00  0.00    +0.000 HD
ATOM     30  H   UNL     1      45.906  -0.614   7.978  0.00  0.00    +0.000 HD
ENDBRANCH  20  27
ENDBRANCH  18  23
ENDBRANCH  17  18
ENDBRANCH   1  17
TORSDOF 6
ENDMDL
MODEL 6
REMARK VINA RESULT:    -8.120      3.002      4.099
REMARK INTER + INTRA:         -12.081
REMARK INTER:                 -11.101
REMARK INTRA:                  -0.980
REMARK UNBOUND:                -1.113
REMARK  Name = 
REMARK  6 active torsions:
REMARK  status: ('A' for Active; 'I' for Inactive)
REMARK    1  A    between atoms: C_2  and  C_4
REMARK    2  A    between atoms: C_7  and  N_8
REMARK    3  A    between atoms: N_8  and  C_9
REMARK    4  A    between atoms: C_9  and  C_10
REMARK    5  A    between atoms: C_10  and  C_13
REMARK    6  A    between atoms: C_17  and  C_18
REMARK                            x       y       z     vdW  Elec       q    Type
REMARK                         _______ _______ _______ _____ _____    ______ ____
ROOT
ATOM      1  C   UNL     1      45.172   5.552  12.162  0.00  0.00    +0.000 C 
ATOM      2  F   UNL     1      44.489   5.341  13.324  0.00  0.00    +0.000 F 
ATOM      3  F   UNL     1      46.070   4.525  12.075  0.00  0.00    +0.000 F 
ENDROOT
BRANCH   1   4
ATOM      4  C   UNL     1      45.845   6.912  12.140  0.00  0.00    +0.000 A 
ATOM      5  C   UNL     1      45.098   8.080  12.338  0.00  0.00    +0.000 A 
ATOM      6  C   UNL     1      45.734   9.316  12.378  0.00  0.00    +0.000 A 
ATOM      7  C   UNL     1      47.122   9.395  12.237  0.00  0.00    +0.000 A 
ATOM      8  C   UNL     1      47.911   8.245  12.059  0.00  0.00    +0.000 A 
ATOM      9  C   UNL     1      47.242   7.009  11.993  0.00  0.00    +0.000 A 
BRANCH   8  10
ATOM     10  C   UNL     1      49.386   8.323  11.998  0.00  0.00    +0.000 A 
ATOM     11  C   UNL     1      50.124   9.043  12.948  0.00  0.00    +0.000 A 
ATOM     12  N   UNL     1      51.478   9.134  12.988  0.00  0.00    +0.000 NA
ATOM     13  C   UNL     1      52.151   8.465  12.028  0.00  0.00    +0.000 A 
ATOM     14  C   UNL     1      51.528   7.724  11.043  0.00  0.00    +0.000 A 
ATOM     15  F   UNL     1      52.249   7.072  10.123  0.00  0.00    +0.000 F 
ATOM     16  C   UNL     1      50.139   7.654  11.022  0.00  0.00    +0.000 A 
ENDBRANCH   8  10
ENDBRANCH   1   4
BRANCH   1  17
ATOM     17  C   UNL     1      44.191   5.444  10.966  0.00  0.00    +0.000 C 
BRANCH  17  18
ATOM     18  N   UNL     1      44.018   4.070  10.469  0.00  0.00    +0.000 N 
ATOM     19  H   UNL     1      43.785   3.384  11.186  0.00  0.00    +0.000 HD
BRANCH  18  23
ATOM     20  C   UNL     1      46.630   2.704   7.454  0.00  0.00    +0.000 A 
ATOM     21  C   UNL     1      45.992   1.777   8.282  0.00  0.00    +0.000 A 
ATOM     22  C   UNL     1      45.103   2.217   9.269  0.00  0.00    +0.000 A 
ATOM     23  C   UNL     1      44.808   3.576   9.436  0.00  0.00    +0.000 A 
ATOM     24  C   UNL     1      45.464   4.491   8.602  0.00  0.00    +0.000 A 
ATOM     25  C   UNL     1      46.370   4.066   7.624  0.00  0.00    +0.000 A 
BRANCH  20  27
ATOM     26  N   UNL     1      47.744   3.067   5.320  0.00  0.00    +0.000 N 
ATOM     27  C   UNL     1      47.622   2.282   6.431  0.00  0.00    +0.000 C 
ATOM     28  O   UNL     1      48.324   1.292   6.585  0.00  0.00    +0.000 OA
ATOM     29  H   UNL     1      48.488   2.824   4.679  0.00  0.00    +0.000 HD
ATOM     30  H   UNL     1      47.372   4.007   5.274  0.00  0.00    +0.000 HD
ENDBRANCH  20  27
ENDBRANCH  18  23
ENDBRANCH  17  18
ENDBRANCH   1  17
TORSDOF 6
ENDMDL
MODEL 7
REMARK VINA RESULT:    -8.045      3.095      7.450
REMARK INTER + INTRA:         -11.979
REMARK INTER:                 -11.000
REMARK INTRA:                  -0.979
REMARK UNBOUND:                -1.113
REMARK  Name = 
REMARK  6 active torsions:
REMARK  status: ('A' for Active; 'I' for Inactive)
REMARK    1  A    between atoms: C_2  and  C_4
REMARK    2  A    between atoms: C_7  and  N_8
REMARK    3  A    between atoms: N_8  and  C_9
REMARK    4  A    between atoms: C_9  and  C_10
REMARK    5  A    between atoms: C_10  and  C_13
REMARK    6  A    between atoms: C_17  and  C_18
REMARK                            x       y       z     vdW  Elec       q    Type
REMARK                         _______ _______ _______ _____ _____    ______ ____
ROOT
ATOM      1  C   UNL     1      45.368   7.245  11.818  0.00  0.00    +0.000 C 
ATOM      2  F   UNL     1      44.949   7.585  13.071  0.00  0.00    +0.000 F 
ATOM      3  F   UNL     1      44.967   8.273  11.010  0.00  0.00    +0.000 F 
ENDROOT
BRANCH   1   4
ATOM      4  C   UNL     1      44.803   5.908  11.375  0.00  0.00    +0.000 A 
ATOM      5  C   UNL     1      43.584   5.446  11.884  0.00  0.00    +0.000 A 
ATOM      6  C   UNL     1      43.045   4.248  11.426  0.00  0.00    +0.000 A 
ATOM      7  C   UNL     1      43.711   3.511  10.443  0.00  0.00    +0.000 A 
ATOM      8  C   UNL     1      44.927   3.952   9.889  0.00  0.00    +0.000 A 
ATOM      9  C   UNL     1      45.465   5.150  10.390  0.00  0.00    +0.000 A 
BRANCH   8  10
ATOM     10  C   UNL     1      45.584   3.216   8.789  0.00  0.00    +0.000 A 
ATOM     11  C   UNL     1      46.131   3.882   7.683  0.00  0.00    +0.000 A 
ATOM     12  N   UNL     1      46.785   3.288   6.651  0.00  0.00    +0.000 NA
ATOM     13  C   UNL     1      46.910   1.946   6.717  0.00  0.00    +0.000 A 
ATOM     14  C   UNL     1      46.410   1.187   7.757  0.00  0.00    +0.000 A 
ATOM     15  F   UNL     1      46.574  -0.140   7.773  0.00  0.00    +0.000 F 
ATOM     16  C   UNL     1      45.739   1.822   8.797  0.00  0.00    +0.000 A 
ENDBRANCH   8  10
ENDBRANCH   1   4
BRANCH   1  17
ATOM     17  C   UNL     1      46.916   7.183  11.796  0.00  0.00    +0.000 C 
BRANCH  17  18
ATOM     18  N   UNL     1      47.531   7.349  13.122  0.00  0.00    +0.000 N 
ATOM     19  H   UNL     1      48.323   7.991  13.147  0.00  0.00    +0.000 HD
BRANCH  18  23
ATOM     20  C   UNL     1      47.692   4.256  15.983  0.00  0.00    +0.000 A 
ATOM     21  C   UNL     1      47.028   4.039  14.775  0.00  0.00    +0.000 A 
ATOM     22  C   UNL     1      46.990   5.049  13.805  0.00  0.00    +0.000 A 
ATOM     23  C   UNL     1      47.631   6.278  14.005  0.00  0.00    +0.000 A 
ATOM     24  C   UNL     1      48.285   6.481  15.227  0.00  0.00    +0.000 A 
ATOM     25  C   UNL     1      48.313   5.486  16.212  0.00  0.00    +0.000 A 
BRANCH  20  27
ATOM     26  N   UNL     1      48.931   2.817  17.508  0.00  0.00    +0.000 N 
ATOM     27  C   UNL     1      47.709   3.231  17.059  0.00  0.00    +0.000 C 
ATOM     28  O   UNL     1      46.675   2.793  17.547  0.00  0.00    +0.000 OA
ATOM     29  H   UNL     1      48.928   2.193  18.304  0.00  0.00    +0.000 HD
ATOM     30  H   UNL     1      49.783   3.327  17.313  0.00  0.00    +0.000 HD
ENDBRANCH  20  27
ENDBRANCH  18  23
ENDBRANCH  17  18
ENDBRANCH   1  17
TORSDOF 6
ENDMDL
MODEL 8
REMARK VINA RESULT:    -7.421      3.650      7.894
REMARK INTER + INTRA:         -11.136
REMARK INTER:                  -9.997
REMARK INTRA:                  -1.140
REMARK UNBOUND:                -1.113
REMARK  Name = 
REMARK  6 active torsions:
REMARK  status: ('A' for Active; 'I' for Inactive)
REMARK    1  A    between atoms: C_2  and  C_4
REMARK    2  A    between atoms: C_7  and  N_8
REMARK    3  A    between atoms: N_8  and  C_9
REMARK    4  A    between atoms: C_9  and  C_10
REMARK    5  A    between atoms: C_10  and  C_13
REMARK    6  A    between atoms: C_17  and  C_18
REMARK                            x       y       z     vdW  Elec       q    Type
REMARK                         _______ _______ _______ _____ _____    ______ ____
ROOT
ATOM      1  C   UNL     1      48.723   8.086  12.280  0.00  0.00    +0.000 C 
ATOM      2  F   UNL     1      49.139   9.081  11.444  0.00  0.00    +0.000 F 
ATOM      3  F   UNL     1      49.561   7.033  12.037  0.00  0.00    +0.000 F 
ENDROOT
BRANCH   1   4
ATOM      4  C   UNL     1      47.265   7.729  12.055  0.00  0.00    +0.000 A 
ATOM      5  C   UNL     1      46.250   8.621  12.418  0.00  0.00    +0.000 A 
ATOM      6  C   UNL     1      44.920   8.311  12.150  0.00  0.00    +0.000 A 
ATOM      7  C   UNL     1      44.596   7.116  11.503  0.00  0.00    +0.000 A 
ATOM      8  C   UNL     1      45.588   6.204  11.101  0.00  0.00    +0.000 A 
ATOM      9  C   UNL     1      46.922   6.527  11.409  0.00  0.00    +0.000 A 
BRANCH   8  10
ATOM     10  C   UNL     1      45.250   4.983  10.339  0.00  0.00    +0.000 A 
ATOM     11  C   UNL     1      44.514   3.938  10.913  0.00  0.00    +0.000 A 
ATOM     12  N   UNL     1      44.128   2.803  10.275  0.00  0.00    +0.000 NA
ATOM     13  C   UNL     1      44.490   2.694   8.979  0.00  0.00    +0.000 A 
ATOM     14  C   UNL     1      45.216   3.660   8.311  0.00  0.00    +0.000 A 
ATOM     15  F   UNL     1      45.537   3.502   7.022  0.00  0.00    +0.000 F 
ATOM     16  C   UNL     1      45.603   4.810   8.992  0.00  0.00    +0.000 A 
ENDBRANCH   8  10
ENDBRANCH   1   4
BRANCH   1  17
ATOM     17  C   UNL     1      48.921   8.537  13.750  0.00  0.00    +0.000 C 
BRANCH  17  18
ATOM     18  N   UNL     1      49.787   7.639  14.530  0.00  0.00    +0.000 N 
ATOM     19  H   UNL     1      50.625   7.325  14.042  0.00  0.00    +0.000 HD
BRANCH  18  23
ATOM     20  C   UNL     1      48.197   4.599  16.983  0.00  0.00    +0.000 A 
ATOM     21  C   UNL     1      49.317   5.313  17.413  0.00  0.00    +0.000 A 
ATOM     22  C   UNL     1      49.838   6.342  16.620  0.00  0.00    +0.000 A 
ATOM     23  C   UNL     1      49.245   6.700  15.402  0.00  0.00    +0.000 A 
ATOM     24  C   UNL     1      48.127   5.966  14.983  0.00  0.00    +0.000 A 
ATOM     25  C   UNL     1      47.608   4.923  15.758  0.00  0.00    +0.000 A 
BRANCH  20  27
ATOM     26  N   UNL     1      48.340   3.082  18.881  0.00  0.00    +0.000 N 
ATOM     27  C   UNL     1      47.646   3.464  17.768  0.00  0.00    +0.000 C 
ATOM     28  O   UNL     1      46.601   2.911  17.454  0.00  0.00    +0.000 OA
ATOM     29  H   UNL     1      47.905   2.374  19.459  0.00  0.00    +0.000 HD
ATOM     30  H   UNL     1      49.053   3.663  19.305  0.00  0.00    +0.000 HD
ENDBRANCH  20  27
ENDBRANCH  18  23
ENDBRANCH  17  18
ENDBRANCH   1  17
TORSDOF 6
ENDMDL
MODEL 9
REMARK VINA RESULT:    -7.411      3.560      7.354
REMARK INTER + INTRA:         -11.124
REMARK INTER:                 -10.257
REMARK INTRA:                  -0.866
REMARK UNBOUND:                -1.113
REMARK  Name = 
REMARK  6 active torsions:
REMARK  status: ('A' for Active; 'I' for Inactive)
REMARK    1  A    between atoms: C_2  and  C_4
REMARK    2  A    between atoms: C_7  and  N_8
REMARK    3  A    between atoms: N_8  and  C_9
REMARK    4  A    between atoms: C_9  and  C_10
REMARK    5  A    between atoms: C_10  and  C_13
REMARK    6  A    between atoms: C_17  and  C_18
REMARK                            x       y       z     vdW  Elec       q    Type
REMARK                         _______ _______ _______ _____ _____    ______ ____
ROOT
ATOM      1  C   UNL     1      44.612   6.556  11.402  0.00  0.00    +0.000 C 
ATOM      2  F   UNL     1      43.432   7.230  11.280  0.00  0.00    +0.000 F 
ATOM      3  F   UNL     1      45.495   7.219  10.595  0.00  0.00    +0.000 F 
ENDROOT
BRANCH   1   4
ATOM      4  C   UNL     1      44.471   5.093  11.025  0.00  0.00    +0.000 A 
ATOM      5  C   UNL     1      43.530   4.280  11.668  0.00  0.00    +0.000 A 
ATOM      6  C   UNL     1      43.366   2.956  11.271  0.00  0.00    +0.000 A 
ATOM      7  C   UNL     1      44.127   2.439  10.220  0.00  0.00    +0.000 A 
ATOM      8  C   UNL     1      45.066   3.230   9.533  0.00  0.00    +0.000 A 
ATOM      9  C   UNL     1      45.235   4.556   9.972  0.00  0.00    +0.000 A 
BRANCH   8  10
ATOM     10  C   UNL     1      45.807   2.707   8.366  0.00  0.00    +0.000 A 
ATOM     11  C   UNL     1      46.255   1.380   8.313  0.00  0.00    +0.000 A 
ATOM     12  N   UNL     1      46.906   0.810   7.267  0.00  0.00    +0.000 NA
ATOM     13  C   UNL     1      47.126   1.603   6.196  0.00  0.00    +0.000 A 
ATOM     14  C   UNL     1      46.730   2.925   6.138  0.00  0.00    +0.000 A 
ATOM     15  F   UNL     1      46.966   3.659   5.045  0.00  0.00    +0.000 F 
ATOM     16  C   UNL     1      46.070   3.484   7.228  0.00  0.00    +0.000 A 
ENDBRANCH   8  10
ENDBRANCH   1   4
BRANCH   1  17
ATOM     17  C   UNL     1      45.114   6.664  12.865  0.00  0.00    +0.000 C 
BRANCH  17  18
ATOM     18  N   UNL     1      45.851   7.906  13.144  0.00  0.00    +0.000 N 
ATOM     19  H   UNL     1      45.300   8.759  13.051  0.00  0.00    +0.000 HD
BRANCH  18  23
ATOM     20  C   UNL     1      49.864   8.115  11.867  0.00  0.00    +0.000 A 
ATOM     21  C   UNL     1      49.027   9.217  11.682  0.00  0.00    +0.000 A 
ATOM     22  C   UNL     1      47.700   9.170  12.126  0.00  0.00    +0.000 A 
ATOM     23  C   UNL     1      47.188   8.044  12.783  0.00  0.00    +0.000 A 
ATOM     24  C   UNL     1      48.040   6.945  12.951  0.00  0.00    +0.000 A 
ATOM     25  C   UNL     1      49.363   6.973  12.495  0.00  0.00    +0.000 A 
BRANCH  20  27
ATOM     26  N   UNL     1      52.211   8.701  12.142  0.00  0.00    +0.000 N 
ATOM     27  C   UNL     1      51.262   8.105  11.362  0.00  0.00    +0.000 C 
ATOM     28  O   UNL     1      51.561   7.562  10.307  0.00  0.00    +0.000 OA
ATOM     29  H   UNL     1      53.171   8.603  11.835  0.00  0.00    +0.000 HD
ATOM     30  H   UNL     1      52.051   8.933  13.114  0.00  0.00    +0.000 HD
ENDBRANCH  20  27
ENDBRANCH  18  23
ENDBRANCH  17  18
ENDBRANCH   1  17
TORSDOF 6
ENDMDL
