MODEL 1
REMARK VINA RESULT:    -9.327      0.000      0.000
REMARK INTER + INTRA:         -14.059
REMARK INTER:                 -13.144
REMARK INTRA:                  -0.916
REMARK UNBOUND:                -0.916
REMARK  Name = 
REMARK  9 active torsions:
REMARK  status: ('A' for Active; 'I' for Inactive)
REMARK    1  A    between atoms: C_1  and  C_2
REMARK    2  A    between atoms: C_2  and  C_3
REMARK    3  A    between atoms: C_5  and  O_6
REMARK    4  A    between atoms: O_6  and  C_7
REMARK    5  A    between atoms: C_9  and  C_10
REMARK    6  A    between atoms: C_10  and  C_11
REMARK    7  A    between atoms: C_11  and  N_12
REMARK    8  A    between atoms: C_16  and  C_17
REMARK    9  A    between atoms: C_23  and  C_24
REMARK                            x       y       z     vdW  Elec       q    Type
REMARK                         _______ _______ _______ _____ _____    ______ ____
ROOT
ATOM      1  C   UNL     1      46.787   4.678  13.826  0.00  0.00    +0.000 A 
ATOM      2  C   UNL     1      45.448   4.476  13.467  0.00  0.00    +0.000 A 
ATOM      3  C   UNL     1      44.749   5.437  12.719  0.00  0.00    +0.000 A 
ATOM      4  C   UNL     1      45.434   6.606  12.348  0.00  0.00    +0.000 A 
ATOM      5  C   UNL     1      46.762   6.839  12.732  0.00  0.00    +0.000 A 
ATOM      6  C   UNL     1      47.435   5.859  13.472  0.00  0.00    +0.000 A 
ENDROOT
BRANCH   5   7
ATOM      7  C   UNL     1      47.458   8.131  12.383  0.00  0.00    +0.000 C 
ATOM      8  F   UNL     1      48.464   7.982  11.475  0.00  0.00    +0.000 F 
ATOM      9  F   UNL     1      46.605   9.046  11.845  0.00  0.00    +0.000 F 
ATOM     10  F   UNL     1      48.018   8.732  13.467  0.00  0.00    +0.000 F 
ENDBRANCH   5   7
BRANCH   1  11
ATOM     11  O   UNL     1      47.380   3.679  14.561  0.00  0.00    +0.000 OA
BRANCH  11  16
ATOM     12  C   UNL     1      48.306   4.129  18.938  0.00  0.00    +0.000 C 
ATOM     13  C   UNL     1      48.968   3.860  17.586  0.00  0.00    +0.000 C 
ATOM     14  C   UNL     1      50.472   3.659  17.729  0.00  0.00    +0.000 C 
ATOM     15  C   UNL     1      48.568   4.869  16.478  0.00  0.00    +0.000 C 
ATOM     16  C   UNL     1      47.491   3.864  15.991  0.00  0.00    +0.000 C 
ATOM     17  C   UNL     1      48.272   2.759  16.739  0.00  0.00    +0.000 C 
ENDBRANCH  11  16
ENDBRANCH   1  11
BRANCH   3  18
ATOM     18  C   UNL     1      43.289   5.194  12.360  0.00  0.00    +0.000 C 
BRANCH  18  19
ATOM     19  C   UNL     1      43.090   4.478  11.017  0.00  0.00    +0.000 C 
BRANCH  19  20
ATOM     20  N   UNL     1      43.890   5.043   9.928  0.00  0.00    +0.000 N 
ATOM     21  C   UNL     1      44.673   4.039   9.306  0.00  0.00    +0.000 A 
ATOM     22  C   UNL     1      45.518   4.394   8.259  0.00  0.00    +0.000 A 
ATOM     23  C   UNL     1      46.290   3.407   7.635  0.00  0.00    +0.000 A 
ATOM     24  C   UNL     1      46.206   2.081   8.064  0.00  0.00    +0.000 A 
ATOM     25  C   UNL     1      45.331   1.815   9.099  0.00  0.00    +0.000 A 
ATOM     26  N   UNL     1      44.573   2.755   9.714  0.00  0.00    +0.000 NA
ATOM     27  H   UNL     1      44.516   5.777  10.248  0.00  0.00    +0.000 HD
BRANCH  24  28
ATOM     28  C   UNL     1      47.033   1.042   7.406  0.00  0.00    +0.000 C 
ATOM     29  N   UNL     1      46.773  -0.278   7.656  0.00  0.00    +0.000 N 
ATOM     30  O   UNL     1      47.951   1.348   6.653  0.00  0.00    +0.000 OA
ATOM     31  H   UNL     1      46.061  -0.642   8.270  0.00  0.00    +0.000 HD
ATOM     32  H   UNL     1      47.373  -0.950   7.196  0.00  0.00    +0.000 HD
ENDBRANCH  24  28
ENDBRANCH  19  20
ENDBRANCH  18  19
ENDBRANCH   3  18
TORSDOF 7
ENDMDL
MODEL 2
REMARK VINA RESULT:    -8.568      2.783      4.542
REMARK INTER + INTRA:         -12.990
REMARK INTER:                 -11.761
REMARK INTRA:                  -1.229
REMARK UNBOUND:                -0.916
REMARK  Name = 
REMARK  9 active torsions:
REMARK  status: ('A' for Active; 'I' for Inactive)
REMARK    1  A    between atoms: C_1  and  C_2
REMARK    2  A    between atoms: C_2  and  C_3
REMARK    3  A    between atoms: C_5  and  O_6
REMARK    4  A    between atoms: O_6  and  C_7
REMARK    5  A    between atoms: C_9  and  C_10
REMARK    6  A    between atoms: C_10  and  C_11
REMARK    7  A    between atoms: C_11  and  N_12
REMARK    8  A    between atoms: C_16  and  C_17
REMARK    9  A    between atoms: C_23  and  C_24
REMARK                            x       y       z     vdW  Elec       q    Type
REMARK                         _______ _______ _______ _____ _____    ______ ____
ROOT
ATOM      1  C   UNL     1      47.306   6.604  12.162  0.00  0.00    +0.000 A 
ATOM      2  C   UNL     1      45.978   6.522  11.724  0.00  0.00    +0.000 A 
ATOM      3  C   UNL     1      45.031   5.759  12.427  0.00  0.00    +0.000 A 
ATOM      4  C   UNL     1      45.462   5.078  13.579  0.00  0.00    +0.000 A 
ATOM      5  C   UNL     1      46.796   5.120  14.007  0.00  0.00    +0.000 A 
ATOM      6  C   UNL     1      47.714   5.894  13.289  0.00  0.00    +0.000 A 
ENDROOT
BRANCH   5   7
ATOM      7  C   UNL     1      47.253   4.326  15.205  0.00  0.00    +0.000 C 
ATOM      8  F   UNL     1      47.580   3.036  14.914  0.00  0.00    +0.000 F 
ATOM      9  F   UNL     1      48.357   4.866  15.792  0.00  0.00    +0.000 F 
ATOM     10  F   UNL     1      46.305   4.260  16.180  0.00  0.00    +0.000 F 
ENDBRANCH   5   7
BRANCH   1  11
ATOM     11  O   UNL     1      48.153   7.375  11.402  0.00  0.00    +0.000 OA
BRANCH  11  16
ATOM     12  C   UNL     1      51.992   9.229  12.833  0.00  0.00    +0.000 C 
ATOM     13  C   UNL     1      51.044   9.190  11.634  0.00  0.00    +0.000 C 
ATOM     14  C   UNL     1      51.544  10.073  10.496  0.00  0.00    +0.000 C 
ATOM     15  C   UNL     1      49.554   9.419  12.002  0.00  0.00    +0.000 C 
ATOM     16  C   UNL     1      49.355   7.881  12.030  0.00  0.00    +0.000 C 
ATOM     17  C   UNL     1      50.641   7.760  11.180  0.00  0.00    +0.000 C 
ENDBRANCH  11  16
ENDBRANCH   1  11
BRANCH   3  18
ATOM     18  C   UNL     1      43.599   5.677  11.914  0.00  0.00    +0.000 C 
BRANCH  18  19
ATOM     19  C   UNL     1      43.476   5.061  10.514  0.00  0.00    +0.000 C 
BRANCH  19  20
ATOM     20  N   UNL     1      43.754   3.623  10.480  0.00  0.00    +0.000 N 
ATOM     21  C   UNL     1      44.690   3.316   9.463  0.00  0.00    +0.000 A 
ATOM     22  C   UNL     1      45.061   1.990   9.265  0.00  0.00    +0.000 A 
ATOM     23  C   UNL     1      45.991   1.678   8.266  0.00  0.00    +0.000 A 
ATOM     24  C   UNL     1      46.538   2.694   7.481  0.00  0.00    +0.000 A 
ATOM     25  C   UNL     1      46.125   3.984   7.754  0.00  0.00    +0.000 A 
ATOM     26  N   UNL     1      45.229   4.306   8.719  0.00  0.00    +0.000 NA
ATOM     27  H   UNL     1      42.916   3.071  10.314  0.00  0.00    +0.000 HD
BRANCH  24  28
ATOM     28  C   UNL     1      47.515   2.357   6.418  0.00  0.00    +0.000 C 
ATOM     29  N   UNL     1      47.464   3.028   5.226  0.00  0.00    +0.000 N 
ATOM     30  O   UNL     1      48.357   1.482   6.588  0.00  0.00    +0.000 OA
ATOM     31  H   UNL     1      46.805   3.746   4.971  0.00  0.00    +0.000 HD
ATOM     32  H   UNL     1      48.142   2.752   4.526  0.00  0.00    +0.000 HD
ENDBRANCH  24  28
ENDBRANCH  19  20
ENDBRANCH  18  19
ENDBRANCH   3  18
TORSDOF 7
ENDMDL
MODEL 3
REMARK VINA RESULT:    -8.560      1.211      1.520
REMARK INTER + INTRA:         -12.979
REMARK INTER:                 -12.339
REMARK INTRA:                  -0.640
REMARK UNBOUND:                -0.916
REMARK  Name = 
REMARK  9 active torsions:
REMARK  status: ('A' for Active; 'I' for Inactive)
REMARK    1  A    between atoms: C_1  and  C_2
REMARK    2  A    between atoms: C_2  and  C_3
REMARK    3  A    between atoms: C_5  and  O_6
REMARK    4  A    between atoms: O_6  and  C_7
REMARK    5  A    between atoms: C_9  and  C_10
REMARK    6  A    between atoms: C_10  and  C_11
REMARK    7  A    between atoms: C_11  and  N_12
REMARK    8  A    between atoms: C_16  and  C_17
REMARK    9  A    between atoms: C_23  and  C_24
REMARK                            x       y       z     vdW  Elec       q    Type
REMARK                         _______ _______ _______ _____ _____    ______ ____
ROOT
ATOM      1  C   UNL     1      46.905   5.880  13.596  0.00  0.00    +0.000 A 
ATOM      2  C   UNL     1      45.861   4.959  13.442  0.00  0.00    +0.000 A 
ATOM      3  C   UNL     1      44.673   5.318  12.784  0.00  0.00    +0.000 A 
ATOM      4  C   UNL     1      44.565   6.630  12.293  0.00  0.00    +0.000 A 
ATOM      5  C   UNL     1      45.586   7.573  12.474  0.00  0.00    +0.000 A 
ATOM      6  C   UNL     1      46.761   7.184  13.127  0.00  0.00    +0.000 A 
ENDROOT
BRANCH   5   7
ATOM      7  C   UNL     1      45.423   8.996  12.000  0.00  0.00    +0.000 C 
ATOM      8  F   UNL     1      44.699   9.110  10.851  0.00  0.00    +0.000 F 
ATOM      9  F   UNL     1      44.787   9.776  12.918  0.00  0.00    +0.000 F 
ATOM     10  F   UNL     1      46.615   9.605  11.753  0.00  0.00    +0.000 F 
ENDBRANCH   5   7
BRANCH   1  11
ATOM     11  O   UNL     1      48.024   5.430  14.256  0.00  0.00    +0.000 OA
BRANCH  11  16
ATOM     12  C   UNL     1      48.559   5.430  18.721  0.00  0.00    +0.000 C 
ATOM     13  C   UNL     1      49.100   4.792  17.441  0.00  0.00    +0.000 C 
ATOM     14  C   UNL     1      50.208   3.790  17.740  0.00  0.00    +0.000 C 
ATOM     15  C   UNL     1      49.456   5.816  16.331  0.00  0.00    +0.000 C 
ATOM     16  C   UNL     1      48.062   5.569  15.696  0.00  0.00    +0.000 C 
ATOM     17  C   UNL     1      48.005   4.241  16.486  0.00  0.00    +0.000 C 
ENDBRANCH  11  16
ENDBRANCH   1  11
BRANCH   3  18
ATOM     18  C   UNL     1      43.550   4.298  12.649  0.00  0.00    +0.000 C 
BRANCH  18  19
ATOM     19  C   UNL     1      43.272   3.868  11.201  0.00  0.00    +0.000 C 
BRANCH  19  20
ATOM     20  N   UNL     1      43.969   4.685  10.204  0.00  0.00    +0.000 N 
ATOM     21  C   UNL     1      44.804   3.881   9.390  0.00  0.00    +0.000 A 
ATOM     22  C   UNL     1      45.565   4.488   8.396  0.00  0.00    +0.000 A 
ATOM     23  C   UNL     1      46.388   3.700   7.583  0.00  0.00    +0.000 A 
ATOM     24  C   UNL     1      46.439   2.318   7.773  0.00  0.00    +0.000 A 
ATOM     25  C   UNL     1      45.639   1.796   8.772  0.00  0.00    +0.000 A 
ATOM     26  N   UNL     1      44.833   2.542   9.567  0.00  0.00    +0.000 NA
ATOM     27  H   UNL     1      44.545   5.407  10.629  0.00  0.00    +0.000 HD
BRANCH  24  28
ATOM     28  C   UNL     1      47.319   1.489   6.915  0.00  0.00    +0.000 C 
ATOM     29  N   UNL     1      48.367   2.081   6.264  0.00  0.00    +0.000 N 
ATOM     30  O   UNL     1      47.114   0.288   6.773  0.00  0.00    +0.000 OA
ATOM     31  H   UNL     1      48.614   3.057   6.290  0.00  0.00    +0.000 HD
ATOM     32  H   UNL     1      48.930   1.477   5.678  0.00  0.00    +0.000 HD
ENDBRANCH  24  28
ENDBRANCH  19  20
ENDBRANCH  18  19
ENDBRANCH   3  18
TORSDOF 7
ENDMDL
MODEL 4
REMARK VINA RESULT:    -8.485      2.391      4.601
REMARK INTER + INTRA:         -12.873
REMARK INTER:                 -12.065
REMARK INTRA:                  -0.808
REMARK UNBOUND:                -0.916
REMARK  Name = 
REMARK  9 active torsions:
REMARK  status: ('A' for Active; 'I' for Inactive)
REMARK    1  A    between atoms: C_1  and  C_2
REMARK    2  A    between atoms: C_2  and  C_3
REMARK    3  A    between atoms: C_5  and  O_6
REMARK    4  A    between atoms: O_6  and  C_7
REMARK    5  A    between atoms: C_9  and  C_10
REMARK    6  A    between atoms: C_10  and  C_11
REMARK    7  A    between atoms: C_11  and  N_12
REMARK    8  A    between atoms: C_16  and  C_17
REMARK    9  A    between atoms: C_23  and  C_24
REMARK                            x       y       z     vdW  Elec       q    Type
REMARK                         _______ _______ _______ _____ _____    ______ ____
ROOT
ATOM      1  C   UNL     1      46.971   6.508  12.409  0.00  0.00    +0.000 A 
ATOM      2  C   UNL     1      45.635   6.315  12.036  0.00  0.00    +0.000 A 
ATOM      3  C   UNL     1      44.798   5.458  12.769  0.00  0.00    +0.000 A 
ATOM      4  C   UNL     1      45.346   4.798  13.883  0.00  0.00    +0.000 A 
ATOM      5  C   UNL     1      46.692   4.952  14.244  0.00  0.00    +0.000 A 
ATOM      6  C   UNL     1      47.499   5.818  13.498  0.00  0.00    +0.000 A 
ENDROOT
BRANCH   5   7
ATOM      7  C   UNL     1      47.279   4.182  15.400  0.00  0.00    +0.000 C 
ATOM      8  F   UNL     1      46.424   4.038  16.452  0.00  0.00    +0.000 F 
ATOM      9  F   UNL     1      47.646   2.919  15.045  0.00  0.00    +0.000 F 
ATOM     10  F   UNL     1      48.398   4.769  15.905  0.00  0.00    +0.000 F 
ENDBRANCH   5   7
BRANCH   1  11
ATOM     11  O   UNL     1      47.707   7.364  11.624  0.00  0.00    +0.000 OA
BRANCH  11  16
ATOM     12  C   UNL     1      49.546  11.220  13.027  0.00  0.00    +0.000 C 
ATOM     13  C   UNL     1      49.035  10.514  11.771  0.00  0.00    +0.000 C 
ATOM     14  C   UNL     1      49.196  11.388  10.532  0.00  0.00    +0.000 C 
ATOM     15  C   UNL     1      47.621   9.895  11.928  0.00  0.00    +0.000 C 
ATOM     16  C   UNL     1      48.286   8.531  12.253  0.00  0.00    +0.000 C 
ATOM     17  C   UNL     1      49.573   9.068  11.585  0.00  0.00    +0.000 C 
ENDBRANCH  11  16
ENDBRANCH   1  11
BRANCH   3  18
ATOM     18  C   UNL     1      43.354   5.258  12.328  0.00  0.00    +0.000 C 
BRANCH  18  19
ATOM     19  C   UNL     1      43.207   4.430  11.043  0.00  0.00    +0.000 C 
BRANCH  19  20
ATOM     20  N   UNL     1      43.936   4.986   9.901  0.00  0.00    +0.000 N 
ATOM     21  C   UNL     1      44.708   3.986   9.261  0.00  0.00    +0.000 A 
ATOM     22  C   UNL     1      45.490   4.334   8.165  0.00  0.00    +0.000 A 
ATOM     23  C   UNL     1      46.250   3.350   7.523  0.00  0.00    +0.000 A 
ATOM     24  C   UNL     1      46.220   2.033   7.984  0.00  0.00    +0.000 A 
ATOM     25  C   UNL     1      45.406   1.772   9.070  0.00  0.00    +0.000 A 
ATOM     26  N   UNL     1      44.659   2.710   9.703  0.00  0.00    +0.000 NA
ATOM     27  H   UNL     1      44.561   5.741  10.171  0.00  0.00    +0.000 HD
BRANCH  24  28
ATOM     28  C   UNL     1      47.035   0.997   7.307  0.00  0.00    +0.000 C 
ATOM     29  N   UNL     1      46.802  -0.323   7.583  0.00  0.00    +0.000 N 
ATOM     30  O   UNL     1      47.920   1.306   6.516  0.00  0.00    +0.000 OA
ATOM     31  H   UNL     1      46.119  -0.689   8.227  0.00  0.00    +0.000 HD
ATOM     32  H   UNL     1      47.394  -0.993   7.107  0.00  0.00    +0.000 HD
ENDBRANCH  24  28
ENDBRANCH  19  20
ENDBRANCH  18  19
ENDBRANCH   3  18
TORSDOF 7
ENDMDL
MODEL 5
REMARK VINA RESULT:    -7.899      3.012      3.915
REMARK INTER + INTRA:         -12.047
REMARK INTER:                 -11.525
REMARK INTRA:                  -0.522
REMARK UNBOUND:                -0.916
REMARK  Name = 
REMARK  9 active torsions:
REMARK  status: ('A' for Active; 'I' for Inactive)
REMARK    1  A    between atoms: C_1  and  C_2
REMARK    2  A    between atoms: C_2  and  C_3
REMARK    3  A    between atoms: C_5  and  O_6
REMARK    4  A    between atoms: O_6  and  C_7
REMARK    5  A    between atoms: C_9  and  C_10
REMARK    6  A    between atoms: C_10  and  C_11
REMARK    7  A    between atoms: C_11  and  N_12
REMARK    8  A    between atoms: C_16  and  C_17
REMARK    9  A    between atoms: C_23  and  C_24
REMARK                            x       y       z     vdW  Elec       q    Type
REMARK                         _______ _______ _______ _____ _____    ______ ____
ROOT
ATOM      1  C   UNL     1      46.569   7.166  12.943  0.00  0.00    +0.000 A 
ATOM      2  C   UNL     1      45.746   6.033  12.911  0.00  0.00    +0.000 A 
ATOM      3  C   UNL     1      44.472   6.082  12.324  0.00  0.00    +0.000 A 
ATOM      4  C   UNL     1      44.049   7.305  11.775  0.00  0.00    +0.000 A 
ATOM      5  C   UNL     1      44.846   8.457  11.834  0.00  0.00    +0.000 A 
ATOM      6  C   UNL     1      46.114   8.374  12.420  0.00  0.00    +0.000 A 
ENDROOT
BRANCH   5   7
ATOM      7  C   UNL     1      44.345   9.776  11.301  0.00  0.00    +0.000 C 
ATOM      8  F   UNL     1      43.502   9.652  10.238  0.00  0.00    +0.000 F 
ATOM      9  F   UNL     1      43.658  10.484  12.239  0.00  0.00    +0.000 F 
ATOM     10  F   UNL     1      45.355  10.588  10.884  0.00  0.00    +0.000 F 
ENDBRANCH   5   7
BRANCH   1  11
ATOM     11  O   UNL     1      47.797   7.013  13.543  0.00  0.00    +0.000 OA
BRANCH  11  16
ATOM     12  C   UNL     1      51.382   7.418  10.860  0.00  0.00    +0.000 C 
ATOM     13  C   UNL     1      50.335   8.244  11.607  0.00  0.00    +0.000 C 
ATOM     14  C   UNL     1      50.536   9.739  11.383  0.00  0.00    +0.000 C 
ATOM     15  C   UNL     1      50.165   7.846  13.097  0.00  0.00    +0.000 C 
ATOM     16  C   UNL     1      48.965   6.952  12.691  0.00  0.00    +0.000 C 
ATOM     17  C   UNL     1      48.870   7.775  11.386  0.00  0.00    +0.000 C 
ENDBRANCH  11  16
ENDBRANCH   1  11
BRANCH   3  18
ATOM     18  C   UNL     1      43.596   4.836  12.321  0.00  0.00    +0.000 C 
BRANCH  18  19
ATOM     19  C   UNL     1      43.315   4.277  10.920  0.00  0.00    +0.000 C 
BRANCH  19  20
ATOM     20  N   UNL     1      44.056   4.961   9.856  0.00  0.00    +0.000 N 
ATOM     21  C   UNL     1      44.872   4.049   9.144  0.00  0.00    +0.000 A 
ATOM     22  C   UNL     1      45.669   4.523   8.108  0.00  0.00    +0.000 A 
ATOM     23  C   UNL     1      46.473   3.627   7.395  0.00  0.00    +0.000 A 
ATOM     24  C   UNL     1      46.470   2.271   7.725  0.00  0.00    +0.000 A 
ATOM     25  C   UNL     1      45.638   1.884   8.759  0.00  0.00    +0.000 A 
ATOM     26  N   UNL     1      44.849   2.735   9.459  0.00  0.00    +0.000 NA
ATOM     27  H   UNL     1      44.651   5.703  10.215  0.00  0.00    +0.000 HD
BRANCH  24  28
ATOM     28  C   UNL     1      47.332   1.328   6.974  0.00  0.00    +0.000 C 
ATOM     29  N   UNL     1      48.369   1.819   6.228  0.00  0.00    +0.000 N 
ATOM     30  O   UNL     1      47.121   0.120   7.001  0.00  0.00    +0.000 OA
ATOM     31  H   UNL     1      48.620   2.789   6.117  0.00  0.00    +0.000 HD
ATOM     32  H   UNL     1      48.920   1.138   5.720  0.00  0.00    +0.000 HD
ENDBRANCH  24  28
ENDBRANCH  19  20
ENDBRANCH  18  19
ENDBRANCH   3  18
TORSDOF 7
ENDMDL
MODEL 6
REMARK VINA RESULT:    -7.730      3.569      8.057
REMARK INTER + INTRA:         -11.808
REMARK INTER:                 -10.967
REMARK INTRA:                  -0.842
REMARK UNBOUND:                -0.916
REMARK  Name = 
REMARK  9 active torsions:
REMARK  status: ('A' for Active; 'I' for Inactive)
REMARK    1  A    between atoms: C_1  and  C_2
REMARK    2  A    between atoms: C_2  and  C_3
REMARK    3  A    between atoms: C_5  and  O_6
REMARK    4  A    between atoms: O_6  and  C_7
REMARK    5  A    between atoms: C_9  and  C_10
REMARK    6  A    between atoms: C_10  and  C_11
REMARK    7  A    between atoms: C_11  and  N_12
REMARK    8  A    between atoms: C_16  and  C_17
REMARK    9  A    between atoms: C_23  and  C_24
REMARK                            x       y       z     vdW  Elec       q    Type
REMARK                         _______ _______ _______ _____ _____    ______ ____
ROOT
ATOM      1  C   UNL     1      45.644   5.468   9.718  0.00  0.00    +0.000 A 
ATOM      2  C   UNL     1      46.457   6.384  10.398  0.00  0.00    +0.000 A 
ATOM      3  C   UNL     1      46.165   6.767  11.717  0.00  0.00    +0.000 A 
ATOM      4  C   UNL     1      45.031   6.206  12.328  0.00  0.00    +0.000 A 
ATOM      5  C   UNL     1      44.187   5.318  11.646  0.00  0.00    +0.000 A 
ATOM      6  C   UNL     1      44.508   4.950  10.335  0.00  0.00    +0.000 A 
ENDROOT
BRANCH   5   7
ATOM      7  C   UNL     1      42.937   4.781  12.296  0.00  0.00    +0.000 C 
ATOM      8  F   UNL     1      41.786   5.221  11.714  0.00  0.00    +0.000 F 
ATOM      9  F   UNL     1      42.877   3.421  12.255  0.00  0.00    +0.000 F 
ATOM     10  F   UNL     1      42.844   5.120  13.611  0.00  0.00    +0.000 F 
ENDBRANCH   5   7
BRANCH   1  11
ATOM     11  O   UNL     1      46.015   5.162   8.430  0.00  0.00    +0.000 OA
BRANCH  11  16
ATOM     12  C   UNL     1      47.125   1.064   6.949  0.00  0.00    +0.000 C 
ATOM     13  C   UNL     1      46.787   2.473   6.460  0.00  0.00    +0.000 C 
ATOM     14  C   UNL     1      46.819   2.561   4.939  0.00  0.00    +0.000 C 
ATOM     15  C   UNL     1      47.587   3.595   7.175  0.00  0.00    +0.000 C 
ATOM     16  C   UNL     1      46.388   3.794   8.139  0.00  0.00    +0.000 C 
ATOM     17  C   UNL     1      45.504   3.080   7.091  0.00  0.00    +0.000 C 
ENDBRANCH  11  16
ENDBRANCH   1  11
BRANCH   3  18
ATOM     18  C   UNL     1      47.060   7.778  12.422  0.00  0.00    +0.000 C 
BRANCH  18  19
ATOM     19  C   UNL     1      48.503   7.296  12.625  0.00  0.00    +0.000 C 
BRANCH  19  20
ATOM     20  N   UNL     1      49.026   7.562  13.968  0.00  0.00    +0.000 N 
ATOM     21  C   UNL     1      48.615   6.555  14.876  0.00  0.00    +0.000 A 
ATOM     22  C   UNL     1      48.999   6.652  16.210  0.00  0.00    +0.000 A 
ATOM     23  C   UNL     1      48.603   5.658  17.112  0.00  0.00    +0.000 A 
ATOM     24  C   UNL     1      47.830   4.583  16.672  0.00  0.00    +0.000 A 
ATOM     25  C   UNL     1      47.505   4.559  15.328  0.00  0.00    +0.000 A 
ATOM     26  N   UNL     1      47.882   5.509  14.438  0.00  0.00    +0.000 NA
ATOM     27  H   UNL     1      48.719   8.460  14.332  0.00  0.00    +0.000 HD
BRANCH  24  28
ATOM     28  C   UNL     1      47.404   3.540  17.634  0.00  0.00    +0.000 C 
ATOM     29  N   UNL     1      48.169   3.300  18.742  0.00  0.00    +0.000 N 
ATOM     30  O   UNL     1      46.386   2.882  17.444  0.00  0.00    +0.000 OA
ATOM     31  H   UNL     1      49.031   3.762  18.986  0.00  0.00    +0.000 HD
ATOM     32  H   UNL     1      47.846   2.567  19.362  0.00  0.00    +0.000 HD
ENDBRANCH  24  28
ENDBRANCH  19  20
ENDBRANCH  18  19
ENDBRANCH   3  18
TORSDOF 7
ENDMDL
MODEL 7
REMARK VINA RESULT:    -7.473      2.635      3.523
REMARK INTER + INTRA:         -11.447
REMARK INTER:                 -10.505
REMARK INTRA:                  -0.942
REMARK UNBOUND:                -0.916
REMARK  Name = 
REMARK  9 active torsions:
REMARK  status: ('A' for Active; 'I' for Inactive)
REMARK    1  A    between atoms: C_1  and  C_2
REMARK    2  A    between atoms: C_2  and  C_3
REMARK    3  A    between atoms: C_5  and  O_6
REMARK    4  A    between atoms: O_6  and  C_7
REMARK    5  A    between atoms: C_9  and  C_10
REMARK    6  A    between atoms: C_10  and  C_11
REMARK    7  A    between atoms: C_11  and  N_12
REMARK    8  A    between atoms: C_16  and  C_17
REMARK    9  A    between atoms: C_23  and  C_24
REMARK                            x       y       z     vdW  Elec       q    Type
REMARK                         _______ _______ _______ _____ _____    ______ ____
ROOT
ATOM      1  C   UNL     1      46.374   8.389  12.568  0.00  0.00    +0.000 A 
ATOM      2  C   UNL     1      45.913   7.068  12.646  0.00  0.00    +0.000 A 
ATOM      3  C   UNL     1      44.704   6.689  12.042  0.00  0.00    +0.000 A 
ATOM      4  C   UNL     1      43.970   7.677  11.364  0.00  0.00    +0.000 A 
ATOM      5  C   UNL     1      44.399   9.011  11.311  0.00  0.00    +0.000 A 
ATOM      6  C   UNL     1      45.612   9.357  11.917  0.00  0.00    +0.000 A 
ENDROOT
BRANCH   5   7
ATOM      7  C   UNL     1      43.563  10.070  10.638  0.00  0.00    +0.000 C 
ATOM      8  F   UNL     1      42.325   9.636  10.267  0.00  0.00    +0.000 F 
ATOM      9  F   UNL     1      43.352  11.149  11.441  0.00  0.00    +0.000 F 
ATOM     10  F   UNL     1      44.144  10.554   9.506  0.00  0.00    +0.000 F 
ENDBRANCH   5   7
BRANCH   1  11
ATOM     11  O   UNL     1      47.567   8.658  13.195  0.00  0.00    +0.000 OA
BRANCH  11  16
ATOM     12  C   UNL     1      49.419   6.157  16.441  0.00  0.00    +0.000 C 
ATOM     13  C   UNL     1      49.727   7.303  15.477  0.00  0.00    +0.000 C 
ATOM     14  C   UNL     1      51.161   7.796  15.632  0.00  0.00    +0.000 C 
ATOM     15  C   UNL     1      48.666   8.435  15.486  0.00  0.00    +0.000 C 
ATOM     16  C   UNL     1      47.990   7.771  14.258  0.00  0.00    +0.000 C 
ATOM     17  C   UNL     1      49.321   7.027  14.003  0.00  0.00    +0.000 C 
ENDBRANCH  11  16
ENDBRANCH   1  11
BRANCH   3  18
ATOM     18  C   UNL     1      44.223   5.248  12.159  0.00  0.00    +0.000 C 
BRANCH  18  19
ATOM     19  C   UNL     1      43.611   4.690  10.867  0.00  0.00    +0.000 C 
BRANCH  19  20
ATOM     20  N   UNL     1      43.937   3.283  10.623  0.00  0.00    +0.000 N 
ATOM     21  C   UNL     1      44.802   3.153   9.509  0.00  0.00    +0.000 A 
ATOM     22  C   UNL     1      45.204   1.882   9.112  0.00  0.00    +0.000 A 
ATOM     23  C   UNL     1      46.064   1.745   8.016  0.00  0.00    +0.000 A 
ATOM     24  C   UNL     1      46.511   2.877   7.334  0.00  0.00    +0.000 A 
ATOM     25  C   UNL     1      46.074   4.101   7.804  0.00  0.00    +0.000 A 
ATOM     26  N   UNL     1      45.245   4.254   8.866  0.00  0.00    +0.000 NA
ATOM     27  H   UNL     1      43.110   2.719  10.448  0.00  0.00    +0.000 HD
BRANCH  24  28
ATOM     28  C   UNL     1      47.413   2.725   6.168  0.00  0.00    +0.000 C 
ATOM     29  N   UNL     1      48.726   2.399   6.376  0.00  0.00    +0.000 N 
ATOM     30  O   UNL     1      47.004   2.899   5.025  0.00  0.00    +0.000 OA
ATOM     31  H   UNL     1      49.173   2.255   7.267  0.00  0.00    +0.000 HD
ATOM     32  H   UNL     1      49.306   2.322   5.550  0.00  0.00    +0.000 HD
ENDBRANCH  24  28
ENDBRANCH  19  20
ENDBRANCH  18  19
ENDBRANCH   3  18
TORSDOF 7
ENDMDL
MODEL 8
REMARK VINA RESULT:    -7.345      4.135      6.641
REMARK INTER + INTRA:         -11.267
REMARK INTER:                  -9.719
REMARK INTRA:                  -1.548
REMARK UNBOUND:                -0.916
REMARK  Name = 
REMARK  9 active torsions:
REMARK  status: ('A' for Active; 'I' for Inactive)
REMARK    1  A    between atoms: C_1  and  C_2
REMARK    2  A    between atoms: C_2  and  C_3
REMARK    3  A    between atoms: C_5  and  O_6
REMARK    4  A    between atoms: O_6  and  C_7
REMARK    5  A    between atoms: C_9  and  C_10
REMARK    6  A    between atoms: C_10  and  C_11
REMARK    7  A    between atoms: C_11  and  N_12
REMARK    8  A    between atoms: C_16  and  C_17
REMARK    9  A    between atoms: C_23  and  C_24
REMARK                            x       y       z     vdW  Elec       q    Type
REMARK                         _______ _______ _______ _____ _____    ______ ____
ROOT
ATOM      1  C   UNL     1      46.391   4.140  13.531  0.00  0.00    +0.000 A 
ATOM      2  C   UNL     1      46.202   5.528  13.524  0.00  0.00    +0.000 A 
ATOM      3  C   UNL     1      45.403   6.143  12.547  0.00  0.00    +0.000 A 
ATOM      4  C   UNL     1      44.805   5.321  11.575  0.00  0.00    +0.000 A 
ATOM      5  C   UNL     1      45.017   3.936  11.547  0.00  0.00    +0.000 A 
ATOM      6  C   UNL     1      45.813   3.351  12.539  0.00  0.00    +0.000 A 
ENDROOT
BRANCH   5   7
ATOM      7  C   UNL     1      44.423   3.081  10.456  0.00  0.00    +0.000 C 
ATOM      8  F   UNL     1      45.333   2.284   9.829  0.00  0.00    +0.000 F 
ATOM      9  F   UNL     1      43.456   2.244  10.924  0.00  0.00    +0.000 F 
ATOM     10  F   UNL     1      43.836   3.820   9.475  0.00  0.00    +0.000 F 
ENDBRANCH   5   7
BRANCH   1  11
ATOM     11  O   UNL     1      47.193   3.637  14.528  0.00  0.00    +0.000 OA
BRANCH  11  16
ATOM     12  C   UNL     1      47.509   5.315  18.688  0.00  0.00    +0.000 C 
ATOM     13  C   UNL     1      48.276   4.480  17.662  0.00  0.00    +0.000 C 
ATOM     14  C   UNL     1      49.628   4.030  18.204  0.00  0.00    +0.000 C 
ATOM     15  C   UNL     1      48.344   5.123  16.252  0.00  0.00    +0.000 C 
ATOM     16  C   UNL     1      47.124   4.261  15.832  0.00  0.00    +0.000 C 
ATOM     17  C   UNL     1      47.449   3.331  17.024  0.00  0.00    +0.000 C 
ENDBRANCH  11  16
ENDBRANCH   1  11
BRANCH   3  18
ATOM     18  C   UNL     1      45.232   7.656  12.558  0.00  0.00    +0.000 C 
BRANCH  18  19
ATOM     19  C   UNL     1      46.546   8.428  12.742  0.00  0.00    +0.000 C 
BRANCH  19  20
ATOM     20  N   UNL     1      46.765   8.892  14.114  0.00  0.00    +0.000 N 
ATOM     21  C   UNL     1      48.066   8.550  14.559  0.00  0.00    +0.000 A 
ATOM     22  C   UNL     1      48.449   8.891  15.852  0.00  0.00    +0.000 A 
ATOM     23  C   UNL     1      49.734   8.562  16.297  0.00  0.00    +0.000 A 
ATOM     24  C   UNL     1      50.619   7.899  15.446  0.00  0.00    +0.000 A 
ATOM     25  C   UNL     1      50.162   7.611  14.173  0.00  0.00    +0.000 A 
ATOM     26  N   UNL     1      48.923   7.925  13.723  0.00  0.00    +0.000 NA
ATOM     27  H   UNL     1      46.095   8.498  14.768  0.00  0.00    +0.000 HD
BRANCH  24  28
ATOM     28  C   UNL     1      51.976   7.545  15.926  0.00  0.00    +0.000 C 
ATOM     29  N   UNL     1      52.951   7.245  15.014  0.00  0.00    +0.000 N 
ATOM     30  O   UNL     1      52.232   7.505  17.124  0.00  0.00    +0.000 OA
ATOM     31  H   UNL     1      52.847   7.225  14.011  0.00  0.00    +0.000 HD
ATOM     32  H   UNL     1      53.857   6.994  15.390  0.00  0.00    +0.000 HD
ENDBRANCH  24  28
ENDBRANCH  19  20
ENDBRANCH  18  19
ENDBRANCH   3  18
TORSDOF 7
ENDMDL
MODEL 9
REMARK VINA RESULT:    -7.086      4.026      5.765
REMARK INTER + INTRA:         -10.901
REMARK INTER:                  -9.772
REMARK INTRA:                  -1.129
REMARK UNBOUND:                -0.916
REMARK  Name = 
REMARK  9 active torsions:
REMARK  status: ('A' for Active; 'I' for Inactive)
REMARK    1  A    between atoms: C_1  and  C_2
REMARK    2  A    between atoms: C_2  and  C_3
REMARK    3  A    between atoms: C_5  and  O_6
REMARK    4  A    between atoms: O_6  and  C_7
REMARK    5  A    between atoms: C_9  and  C_10
REMARK    6  A    between atoms: C_10  and  C_11
REMARK    7  A    between atoms: C_11  and  N_12
REMARK    8  A    between atoms: C_16  and  C_17
REMARK    9  A    between atoms: C_23  and  C_24
REMARK                            x       y       z     vdW  Elec       q    Type
REMARK                         _______ _______ _______ _____ _____    ______ ____
ROOT
ATOM      1  C   UNL     1      46.400   4.225  13.508  0.00  0.00    +0.000 A 
ATOM      2  C   UNL     1      46.210   5.612  13.451  0.00  0.00    +0.000 A 
ATOM      3  C   UNL     1      45.412   6.190  12.451  0.00  0.00    +0.000 A 
ATOM      4  C   UNL     1      44.817   5.334  11.508  0.00  0.00    +0.000 A 
ATOM      5  C   UNL     1      45.029   3.949  11.530  0.00  0.00    +0.000 A 
ATOM      6  C   UNL     1      45.824   3.401  12.544  0.00  0.00    +0.000 A 
ENDROOT
BRANCH   5   7
ATOM      7  C   UNL     1      44.438   3.055  10.469  0.00  0.00    +0.000 C 
ATOM      8  F   UNL     1      45.351   2.237   9.873  0.00  0.00    +0.000 F 
ATOM      9  F   UNL     1      43.472   2.234  10.965  0.00  0.00    +0.000 F 
ATOM     10  F   UNL     1      43.852   3.757   9.462  0.00  0.00    +0.000 F 
ENDBRANCH   5   7
BRANCH   1  11
ATOM     11  O   UNL     1      47.200   3.760  14.524  0.00  0.00    +0.000 OA
BRANCH  11  16
ATOM     12  C   UNL     1      47.361   5.441  18.692  0.00  0.00    +0.000 C 
ATOM     13  C   UNL     1      48.130   4.542  17.723  0.00  0.00    +0.000 C 
ATOM     14  C   UNL     1      49.404   3.994  18.357  0.00  0.00    +0.000 C 
ATOM     15  C   UNL     1      48.342   5.167  16.318  0.00  0.00    +0.000 C 
ATOM     16  C   UNL     1      47.092   4.397  15.819  0.00  0.00    +0.000 C 
ATOM     17  C   UNL     1      47.263   3.453  17.032  0.00  0.00    +0.000 C 
ENDBRANCH  11  16
ENDBRANCH   1  11
BRANCH   3  18
ATOM     18  C   UNL     1      45.240   7.703  12.407  0.00  0.00    +0.000 C 
BRANCH  18  19
ATOM     19  C   UNL     1      46.279   8.471  13.235  0.00  0.00    +0.000 C 
BRANCH  19  20
ATOM     20  N   UNL     1      46.924   9.563  12.501  0.00  0.00    +0.000 N 
ATOM     21  C   UNL     1      48.246   9.211  12.134  0.00  0.00    +0.000 A 
ATOM     22  C   UNL     1      49.024  10.136  11.446  0.00  0.00    +0.000 A 
ATOM     23  C   UNL     1      50.330   9.793  11.074  0.00  0.00    +0.000 A 
ATOM     24  C   UNL     1      50.838   8.533  11.392  0.00  0.00    +0.000 A 
ATOM     25  C   UNL     1      49.992   7.671  12.064  0.00  0.00    +0.000 A 
ATOM     26  N   UNL     1      48.724   7.983  12.429  0.00  0.00    +0.000 NA
ATOM     27  H   UNL     1      46.966  10.422  13.043  0.00  0.00    +0.000 HD
BRANCH  24  28
ATOM     28  C   UNL     1      52.224   8.180  11.004  0.00  0.00    +0.000 C 
ATOM     29  N   UNL     1      52.511   6.889  10.653  0.00  0.00    +0.000 N 
ATOM     30  O   UNL     1      53.115   9.022  11.007  0.00  0.00    +0.000 OA
ATOM     31  H   UNL     1      51.866   6.115  10.636  0.00  0.00    +0.000 HD
ATOM     32  H   UNL     1      53.475   6.693  10.410  0.00  0.00    +0.000 HD
ENDBRANCH  24  28
ENDBRANCH  19  20
ENDBRANCH  18  19
ENDBRANCH   3  18
TORSDOF 7
ENDMDL
