MODEL 1
REMARK VINA RESULT:    -9.165      0.000      0.000
REMARK INTER + INTRA:         -12.716
REMARK INTER:                 -11.843
REMARK INTRA:                  -0.872
REMARK UNBOUND:                -0.872
REMARK  Name = 
REMARK  5 active torsions:
REMARK  status: ('A' for Active; 'I' for Inactive)
REMARK    1  A    between atoms: C_2  and  C_4
REMARK    2  A    between atoms: C_7  and  N_8
REMARK    3  A    between atoms: N_8  and  C_9
REMARK    4  A    between atoms: C_9  and  C_10
REMARK    5  A    between atoms: C_14  and  C_15
REMARK                            x       y       z     vdW  Elec       q    Type
REMARK                         _______ _______ _______ _____ _____    ______ ____
ROOT
ATOM      1  C   UNL     1      43.908   4.747  11.474  0.00  0.00    +0.000 C 
ATOM      2  C   UNL     1      42.848   5.156  12.499  0.00  0.00    +0.000 C 
ATOM      3  C   UNL     1      42.899   5.845  11.177  0.00  0.00    +0.000 C 
ENDROOT
BRANCH   1   4
ATOM      4  C   UNL     1      45.322   5.111  11.937  0.00  0.00    +0.000 A 
ATOM      5  C   UNL     1      46.052   6.146  11.328  0.00  0.00    +0.000 A 
ATOM      6  C   UNL     1      47.147   6.732  11.959  0.00  0.00    +0.000 A 
ATOM      7  C   UNL     1      47.540   6.280  13.213  0.00  0.00    +0.000 A 
ATOM      8  C   UNL     1      46.905   5.180  13.810  0.00  0.00    +0.000 A 
ATOM      9  C   UNL     1      45.829   4.579  13.138  0.00  0.00    +0.000 A 
BRANCH   8  10
ATOM     10  C   UNL     1      47.258   4.740  15.220  0.00  0.00    +0.000 C 
ATOM     11  C   UNL     1      48.373   5.638  15.786  0.00  0.00    +0.000 C 
ATOM     12  C   UNL     1      48.885   5.119  17.119  0.00  0.00    +0.000 C 
ATOM     13  O   UNL     1      49.281   3.755  17.012  0.00  0.00    +0.000 OA
ATOM     14  C   UNL     1      48.185   2.906  16.675  0.00  0.00    +0.000 C 
ATOM     15  C   UNL     1      47.643   3.257  15.297  0.00  0.00    +0.000 C 
ENDBRANCH   8  10
ENDBRANCH   1   4
BRANCH   1  16
ATOM     16  N   UNL     1      43.738   3.454  10.777  0.00  0.00    +0.000 N 
ATOM     17  H   UNL     1      42.802   3.058  10.781  0.00  0.00    +0.000 HD
BRANCH  16  21
ATOM     18  C   UNL     1      46.311   2.557   7.575  0.00  0.00    +0.000 A 
ATOM     19  C   UNL     1      45.768   3.839   7.679  0.00  0.00    +0.000 A 
ATOM     20  C   UNL     1      44.853   4.118   8.688  0.00  0.00    +0.000 A 
ATOM     21  C   UNL     1      44.457   3.136   9.603  0.00  0.00    +0.000 A 
ATOM     22  C   UNL     1      44.932   1.831   9.420  0.00  0.00    +0.000 A 
ATOM     23  C   UNL     1      45.842   1.534   8.400  0.00  0.00    +0.000 A 
BRANCH  18  25
ATOM     24  N   UNL     1      47.518   3.113   5.566  0.00  0.00    +0.000 N 
ATOM     25  C   UNL     1      47.452   2.308   6.661  0.00  0.00    +0.000 C 
ATOM     26  O   UNL     1      48.320   1.486   6.924  0.00  0.00    +0.000 OA
ATOM     27  H   UNL     1      48.374   3.083   5.026  0.00  0.00    +0.000 HD
ATOM     28  H   UNL     1      46.959   3.955   5.494  0.00  0.00    +0.000 HD
ENDBRANCH  18  25
ENDBRANCH  16  21
ENDBRANCH   1  16
TORSDOF 5
ENDMDL
MODEL 2
REMARK VINA RESULT:    -8.681      2.079      3.460
REMARK INTER + INTRA:         -12.091
REMARK INTER:                 -11.103
REMARK INTRA:                  -0.988
REMARK UNBOUND:                -0.872
REMARK  Name = 
REMARK  5 active torsions:
REMARK  status: ('A' for Active; 'I' for Inactive)
REMARK    1  A    between atoms: C_2  and  C_4
REMARK    2  A    between atoms: C_7  and  N_8
REMARK    3  A    between atoms: N_8  and  C_9
REMARK    4  A    between atoms: C_9  and  C_10
REMARK    5  A    between atoms: C_14  and  C_15
REMARK                            x       y       z     vdW  Elec       q    Type
REMARK                         _______ _______ _______ _____ _____    ______ ____
ROOT
ATOM      1  C   UNL     1      43.931   4.866  11.630  0.00  0.00    +0.000 C 
ATOM      2  C   UNL     1      42.629   5.309  12.300  0.00  0.00    +0.000 C 
ATOM      3  C   UNL     1      43.015   5.891  10.981  0.00  0.00    +0.000 C 
ENDROOT
BRANCH   1   4
ATOM      4  C   UNL     1      45.164   5.329  12.414  0.00  0.00    +0.000 A 
ATOM      5  C   UNL     1      45.720   4.547  13.440  0.00  0.00    +0.000 A 
ATOM      6  C   UNL     1      47.021   4.757  13.891  0.00  0.00    +0.000 A 
ATOM      7  C   UNL     1      47.787   5.771  13.328  0.00  0.00    +0.000 A 
ATOM      8  C   UNL     1      47.235   6.643  12.377  0.00  0.00    +0.000 A 
ATOM      9  C   UNL     1      45.909   6.436  11.966  0.00  0.00    +0.000 A 
BRANCH   8  10
ATOM     10  C   UNL     1      48.089   7.689  11.683  0.00  0.00    +0.000 C 
ATOM     11  C   UNL     1      49.580   7.401  11.935  0.00  0.00    +0.000 C 
ATOM     12  C   UNL     1      50.461   8.524  11.416  0.00  0.00    +0.000 C 
ATOM     13  O   UNL     1      50.047   9.779  11.949  0.00  0.00    +0.000 OA
ATOM     14  C   UNL     1      48.724  10.122  11.541  0.00  0.00    +0.000 C 
ATOM     15  C   UNL     1      47.720   9.120  12.094  0.00  0.00    +0.000 C 
ENDBRANCH   8  10
ENDBRANCH   1   4
BRANCH   1  16
ATOM     16  N   UNL     1      43.980   3.515  11.032  0.00  0.00    +0.000 N 
ATOM     17  H   UNL     1      43.160   2.931  11.167  0.00  0.00    +0.000 HD
BRANCH  16  21
ATOM     18  C   UNL     1      46.345   2.702   7.651  0.00  0.00    +0.000 A 
ATOM     19  C   UNL     1      46.023   4.025   7.960  0.00  0.00    +0.000 A 
ATOM     20  C   UNL     1      45.174   4.295   9.028  0.00  0.00    +0.000 A 
ATOM     21  C   UNL     1      44.628   3.264   9.802  0.00  0.00    +0.000 A 
ATOM     22  C   UNL     1      44.878   1.942   9.413  0.00  0.00    +0.000 A 
ATOM     23  C   UNL     1      45.719   1.657   8.332  0.00  0.00    +0.000 A 
BRANCH  18  25
ATOM     24  N   UNL     1      47.499   3.256   5.611  0.00  0.00    +0.000 N 
ATOM     25  C   UNL     1      47.422   2.411   6.675  0.00  0.00    +0.000 C 
ATOM     26  O   UNL     1      48.238   1.517   6.863  0.00  0.00    +0.000 OA
ATOM     27  H   UNL     1      48.326   3.187   5.030  0.00  0.00    +0.000 HD
ATOM     28  H   UNL     1      47.003   4.139   5.600  0.00  0.00    +0.000 HD
ENDBRANCH  18  25
ENDBRANCH  16  21
ENDBRANCH   1  16
TORSDOF 5
ENDMDL
MODEL 3
REMARK VINA RESULT:    -8.419      2.336      3.077
REMARK INTER + INTRA:         -11.752
REMARK INTER:                 -11.173
REMARK INTRA:                  -0.579
REMARK UNBOUND:                -0.872
REMARK  Name = 
REMARK  5 active torsions:
REMARK  status: ('A' for Active; 'I' for Inactive)
REMARK    1  A    between atoms: C_2  and  C_4
REMARK    2  A    between atoms: C_7  and  N_8
REMARK    3  A    between atoms: N_8  and  C_9
REMARK    4  A    between atoms: C_9  and  C_10
REMARK    5  A    between atoms: C_14  and  C_15
REMARK                            x       y       z     vdW  Elec       q    Type
REMARK                         _______ _______ _______ _____ _____    ______ ____
ROOT
ATOM      1  C   UNL     1      43.894   5.343  11.207  0.00  0.00    +0.000 C 
ATOM      2  C   UNL     1      44.064   4.443  12.432  0.00  0.00    +0.000 C 
ATOM      3  C   UNL     1      42.770   5.153  12.213  0.00  0.00    +0.000 C 
ENDROOT
BRANCH   1   4
ATOM      4  C   UNL     1      44.787   6.586  11.283  0.00  0.00    +0.000 A 
ATOM      5  C   UNL     1      44.242   7.878  11.380  0.00  0.00    +0.000 A 
ATOM      6  C   UNL     1      45.005   8.956  11.824  0.00  0.00    +0.000 A 
ATOM      7  C   UNL     1      46.337   8.760  12.166  0.00  0.00    +0.000 A 
ATOM      8  C   UNL     1      46.948   7.511  11.984  0.00  0.00    +0.000 A 
ATOM      9  C   UNL     1      46.171   6.447  11.497  0.00  0.00    +0.000 A 
BRANCH   8  10
ATOM     10  C   UNL     1      48.372   7.258  12.446  0.00  0.00    +0.000 C 
ATOM     11  C   UNL     1      48.458   7.392  13.977  0.00  0.00    +0.000 C 
ATOM     12  C   UNL     1      49.896   7.330  14.463  0.00  0.00    +0.000 C 
ATOM     13  O   UNL     1      50.701   8.289  13.782  0.00  0.00    +0.000 OA
ATOM     14  C   UNL     1      50.768   8.032  12.381  0.00  0.00    +0.000 C 
ATOM     15  C   UNL     1      49.391   8.169  11.748  0.00  0.00    +0.000 C 
ENDBRANCH   8  10
ENDBRANCH   1   4
BRANCH   1  16
ATOM     16  N   UNL     1      43.747   4.697   9.886  0.00  0.00    +0.000 N 
ATOM     17  H   UNL     1      43.182   5.191   9.202  0.00  0.00    +0.000 HD
BRANCH  16  21
ATOM     18  C   UNL     1      46.565   2.478   7.691  0.00  0.00    +0.000 A 
ATOM     19  C   UNL     1      45.759   1.828   8.627  0.00  0.00    +0.000 A 
ATOM     20  C   UNL     1      44.884   2.568   9.414  0.00  0.00    +0.000 A 
ATOM     21  C   UNL     1      44.795   3.960   9.292  0.00  0.00    +0.000 A 
ATOM     22  C   UNL     1      45.685   4.605   8.423  0.00  0.00    +0.000 A 
ATOM     23  C   UNL     1      46.580   3.873   7.637  0.00  0.00    +0.000 A 
BRANCH  18  25
ATOM     24  N   UNL     1      48.317   2.357   6.042  0.00  0.00    +0.000 N 
ATOM     25  C   UNL     1      47.325   1.689   6.692  0.00  0.00    +0.000 C 
ATOM     26  O   UNL     1      47.123   0.493   6.527  0.00  0.00    +0.000 OA
ATOM     27  H   UNL     1      48.959   1.801   5.492  0.00  0.00    +0.000 HD
ATOM     28  H   UNL     1      48.652   3.255   6.370  0.00  0.00    +0.000 HD
ENDBRANCH  18  25
ENDBRANCH  16  21
ENDBRANCH   1  16
TORSDOF 5
ENDMDL
MODEL 4
REMARK VINA RESULT:    -8.407      1.949      3.022
REMARK INTER + INTRA:         -11.736
REMARK INTER:                 -10.471
REMARK INTRA:                  -1.265
REMARK UNBOUND:                -0.872
REMARK  Name = 
REMARK  5 active torsions:
REMARK  status: ('A' for Active; 'I' for Inactive)
REMARK    1  A    between atoms: C_2  and  C_4
REMARK    2  A    between atoms: C_7  and  N_8
REMARK    3  A    between atoms: N_8  and  C_9
REMARK    4  A    between atoms: C_9  and  C_10
REMARK    5  A    between atoms: C_14  and  C_15
REMARK                            x       y       z     vdW  Elec       q    Type
REMARK                         _______ _______ _______ _____ _____    ______ ____
ROOT
ATOM      1  C   UNL     1      43.805   5.168  11.240  0.00  0.00    +0.000 C 
ATOM      2  C   UNL     1      42.538   5.666  11.939  0.00  0.00    +0.000 C 
ATOM      3  C   UNL     1      43.271   6.572  11.008  0.00  0.00    +0.000 C 
ENDROOT
BRANCH   1   4
ATOM      4  C   UNL     1      44.952   4.939  12.230  0.00  0.00    +0.000 A 
ATOM      5  C   UNL     1      45.170   3.686  12.827  0.00  0.00    +0.000 A 
ATOM      6  C   UNL     1      46.392   3.362  13.411  0.00  0.00    +0.000 A 
ATOM      7  C   UNL     1      47.419   4.299  13.420  0.00  0.00    +0.000 A 
ATOM      8  C   UNL     1      47.210   5.596  12.930  0.00  0.00    +0.000 A 
ATOM      9  C   UNL     1      45.957   5.914  12.382  0.00  0.00    +0.000 A 
BRANCH   8  10
ATOM     10  C   UNL     1      48.349   6.596  12.843  0.00  0.00    +0.000 C 
ATOM     11  C   UNL     1      48.658   7.163  14.241  0.00  0.00    +0.000 C 
ATOM     12  C   UNL     1      49.663   8.299  14.173  0.00  0.00    +0.000 C 
ATOM     13  O   UNL     1      49.231   9.302  13.258  0.00  0.00    +0.000 OA
ATOM     14  C   UNL     1      49.137   8.805  11.924  0.00  0.00    +0.000 C 
ATOM     15  C   UNL     1      48.074   7.719  11.834  0.00  0.00    +0.000 C 
ENDBRANCH   8  10
ENDBRANCH   1   4
BRANCH   1  16
ATOM     16  N   UNL     1      43.654   4.188  10.144  0.00  0.00    +0.000 N 
ATOM     17  H   UNL     1      42.814   4.268   9.579  0.00  0.00    +0.000 HD
BRANCH  16  21
ATOM     18  C   UNL     1      46.632   2.782   7.529  0.00  0.00    +0.000 A 
ATOM     19  C   UNL     1      45.967   1.878   8.359  0.00  0.00    +0.000 A 
ATOM     20  C   UNL     1      45.040   2.347   9.283  0.00  0.00    +0.000 A 
ATOM     21  C   UNL     1      44.761   3.714   9.405  0.00  0.00    +0.000 A 
ATOM     22  C   UNL     1      45.513   4.613   8.638  0.00  0.00    +0.000 A 
ATOM     23  C   UNL     1      46.459   4.155   7.715  0.00  0.00    +0.000 A 
BRANCH  18  25
ATOM     24  N   UNL     1      47.336   2.998   5.236  0.00  0.00    +0.000 N 
ATOM     25  C   UNL     1      47.440   2.285   6.390  0.00  0.00    +0.000 C 
ATOM     26  O   UNL     1      48.214   1.343   6.512  0.00  0.00    +0.000 OA
ATOM     27  H   UNL     1      48.005   2.788   4.505  0.00  0.00    +0.000 HD
ATOM     28  H   UNL     1      46.912   3.917   5.219  0.00  0.00    +0.000 HD
ENDBRANCH  18  25
ENDBRANCH  16  21
ENDBRANCH   1  16
TORSDOF 5
ENDMDL
MODEL 5
REMARK VINA RESULT:    -7.875      2.649      3.365
REMARK INTER + INTRA:         -11.049
REMARK INTER:                 -10.830
REMARK INTRA:                  -0.218
REMARK UNBOUND:                -0.872
REMARK  Name = 
REMARK  5 active torsions:
REMARK  status: ('A' for Active; 'I' for Inactive)
REMARK    1  A    between atoms: C_2  and  C_4
REMARK    2  A    between atoms: C_7  and  N_8
REMARK    3  A    between atoms: N_8  and  C_9
REMARK    4  A    between atoms: C_9  and  C_10
REMARK    5  A    between atoms: C_14  and  C_15
REMARK                            x       y       z     vdW  Elec       q    Type
REMARK                         _______ _______ _______ _____ _____    ______ ____
ROOT
ATOM      1  C   UNL     1      44.672   5.240  11.577  0.00  0.00    +0.000 C 
ATOM      2  C   UNL     1      45.359   4.089  12.315  0.00  0.00    +0.000 C 
ATOM      3  C   UNL     1      44.038   4.590  12.796  0.00  0.00    +0.000 C 
ENDROOT
BRANCH   1   4
ATOM      4  C   UNL     1      45.443   6.556  11.726  0.00  0.00    +0.000 A 
ATOM      5  C   UNL     1      44.806   7.740  12.135  0.00  0.00    +0.000 A 
ATOM      6  C   UNL     1      45.532   8.820  12.633  0.00  0.00    +0.000 A 
ATOM      7  C   UNL     1      46.916   8.737  12.717  0.00  0.00    +0.000 A 
ATOM      8  C   UNL     1      47.599   7.617  12.221  0.00  0.00    +0.000 A 
ATOM      9  C   UNL     1      46.850   6.556  11.687  0.00  0.00    +0.000 A 
BRANCH   8  10
ATOM     10  C   UNL     1      49.100   7.471  12.397  0.00  0.00    +0.000 C 
ATOM     11  C   UNL     1      49.575   8.331  13.582  0.00  0.00    +0.000 C 
ATOM     12  C   UNL     1      51.091   8.360  13.678  0.00  0.00    +0.000 C 
ATOM     13  O   UNL     1      51.668   8.766  12.440  0.00  0.00    +0.000 OA
ATOM     14  C   UNL     1      51.377   7.847  11.388  0.00  0.00    +0.000 C 
ATOM     15  C   UNL     1      49.880   7.804  11.118  0.00  0.00    +0.000 C 
ENDBRANCH   8  10
ENDBRANCH   1   4
BRANCH   1  16
ATOM     16  N   UNL     1      44.068   4.957  10.258  0.00  0.00    +0.000 N 
ATOM     17  H   UNL     1      43.576   5.726   9.811  0.00  0.00    +0.000 HD
BRANCH  16  21
ATOM     18  C   UNL     1      46.243   2.278   7.854  0.00  0.00    +0.000 A 
ATOM     19  C   UNL     1      46.413   3.652   7.675  0.00  0.00    +0.000 A 
ATOM     20  C   UNL     1      45.637   4.543   8.409  0.00  0.00    +0.000 A 
ATOM     21  C   UNL     1      44.679   4.090   9.325  0.00  0.00    +0.000 A 
ATOM     22  C   UNL     1      44.450   2.711   9.415  0.00  0.00    +0.000 A 
ATOM     23  C   UNL     1      45.214   1.805   8.671  0.00  0.00    +0.000 A 
BRANCH  18  25
ATOM     24  N   UNL     1      48.338   1.885   6.734  0.00  0.00    +0.000 N 
ATOM     25  C   UNL     1      47.213   1.328   7.259  0.00  0.00    +0.000 C 
ATOM     26  O   UNL     1      47.045   0.117   7.315  0.00  0.00    +0.000 OA
ATOM     27  H   UNL     1      49.089   1.253   6.486  0.00  0.00    +0.000 HD
ATOM     28  H   UNL     1      48.593   2.846   6.929  0.00  0.00    +0.000 HD
ENDBRANCH  18  25
ENDBRANCH  16  21
ENDBRANCH   1  16
TORSDOF 5
ENDMDL
MODEL 6
REMARK VINA RESULT:    -7.398      2.394      7.609
REMARK INTER + INTRA:         -10.432
REMARK INTER:                  -9.554
REMARK INTRA:                  -0.878
REMARK UNBOUND:                -0.872
REMARK  Name = 
REMARK  5 active torsions:
REMARK  status: ('A' for Active; 'I' for Inactive)
REMARK    1  A    between atoms: C_2  and  C_4
REMARK    2  A    between atoms: C_7  and  N_8
REMARK    3  A    between atoms: N_8  and  C_9
REMARK    4  A    between atoms: C_9  and  C_10
REMARK    5  A    between atoms: C_14  and  C_15
REMARK                            x       y       z     vdW  Elec       q    Type
REMARK                         _______ _______ _______ _____ _____    ______ ____
ROOT
ATOM      1  C   UNL     1      46.144   7.085  12.609  0.00  0.00    +0.000 C 
ATOM      2  C   UNL     1      45.992   8.345  11.754  0.00  0.00    +0.000 C 
ATOM      3  C   UNL     1      45.665   8.397  13.209  0.00  0.00    +0.000 C 
ENDROOT
BRANCH   1   4
ATOM      4  C   UNL     1      45.129   6.005  12.220  0.00  0.00    +0.000 A 
ATOM      5  C   UNL     1      43.815   6.017  12.718  0.00  0.00    +0.000 A 
ATOM      6  C   UNL     1      42.797   5.294  12.100  0.00  0.00    +0.000 A 
ATOM      7  C   UNL     1      43.083   4.530  10.975  0.00  0.00    +0.000 A 
ATOM      8  C   UNL     1      44.400   4.406  10.508  0.00  0.00    +0.000 A 
ATOM      9  C   UNL     1      45.417   5.112  11.170  0.00  0.00    +0.000 A 
BRANCH   8  10
ATOM     10  C   UNL     1      44.710   3.658   9.224  0.00  0.00    +0.000 C 
ATOM     11  C   UNL     1      45.186   2.231   9.551  0.00  0.00    +0.000 C 
ATOM     12  C   UNL     1      45.683   1.509   8.310  0.00  0.00    +0.000 C 
ATOM     13  O   UNL     1      46.678   2.280   7.642  0.00  0.00    +0.000 OA
ATOM     14  C   UNL     1      46.164   3.525   7.172  0.00  0.00    +0.000 C 
ATOM     15  C   UNL     1      45.725   4.395   8.341  0.00  0.00    +0.000 C 
ENDBRANCH   8  10
ENDBRANCH   1   4
BRANCH   1  16
ATOM     16  N   UNL     1      47.511   6.636  12.947  0.00  0.00    +0.000 N 
ATOM     17  H   UNL     1      48.272   7.238  12.648  0.00  0.00    +0.000 HD
BRANCH  16  21
ATOM     18  C   UNL     1      47.926   4.825  16.720  0.00  0.00    +0.000 A 
ATOM     19  C   UNL     1      48.665   5.972  16.425  0.00  0.00    +0.000 A 
ATOM     20  C   UNL     1      48.595   6.528  15.153  0.00  0.00    +0.000 A 
ATOM     21  C   UNL     1      47.799   5.956  14.152  0.00  0.00    +0.000 A 
ATOM     22  C   UNL     1      47.148   4.749  14.434  0.00  0.00    +0.000 A 
ATOM     23  C   UNL     1      47.223   4.172  15.706  0.00  0.00    +0.000 A 
BRANCH  18  25
ATOM     24  N   UNL     1      46.976   5.085  18.917  0.00  0.00    +0.000 N 
ATOM     25  C   UNL     1      47.808   4.360  18.123  0.00  0.00    +0.000 C 
ATOM     26  O   UNL     1      48.362   3.339  18.511  0.00  0.00    +0.000 OA
ATOM     27  H   UNL     1      46.742   4.689  19.819  0.00  0.00    +0.000 HD
ATOM     28  H   UNL     1      46.323   5.755  18.527  0.00  0.00    +0.000 HD
ENDBRANCH  18  25
ENDBRANCH  16  21
ENDBRANCH   1  16
TORSDOF 5
ENDMDL
MODEL 7
REMARK VINA RESULT:    -7.067      3.002      6.839
REMARK INTER + INTRA:         -10.004
REMARK INTER:                  -8.740
REMARK INTRA:                  -1.264
REMARK UNBOUND:                -0.872
REMARK  Name = 
REMARK  5 active torsions:
REMARK  status: ('A' for Active; 'I' for Inactive)
REMARK    1  A    between atoms: C_2  and  C_4
REMARK    2  A    between atoms: C_7  and  N_8
REMARK    3  A    between atoms: N_8  and  C_9
REMARK    4  A    between atoms: C_9  and  C_10
REMARK    5  A    between atoms: C_14  and  C_15
REMARK                            x       y       z     vdW  Elec       q    Type
REMARK                         _______ _______ _______ _____ _____    ______ ____
ROOT
ATOM      1  C   UNL     1      46.354   5.117  13.696  0.00  0.00    +0.000 C 
ATOM      2  C   UNL     1      46.394   4.157  14.886  0.00  0.00    +0.000 C 
ATOM      3  C   UNL     1      47.473   4.101  13.858  0.00  0.00    +0.000 C 
ENDROOT
BRANCH   1   4
ATOM      4  C   UNL     1      45.178   4.819  12.760  0.00  0.00    +0.000 A 
ATOM      5  C   UNL     1      43.934   5.451  12.917  0.00  0.00    +0.000 A 
ATOM      6  C   UNL     1      43.001   5.487  11.883  0.00  0.00    +0.000 A 
ATOM      7  C   UNL     1      43.295   4.872  10.672  0.00  0.00    +0.000 A 
ATOM      8  C   UNL     1      44.480   4.140  10.508  0.00  0.00    +0.000 A 
ATOM      9  C   UNL     1      45.389   4.085  11.577  0.00  0.00    +0.000 A 
BRANCH   8  10
ATOM     10  C   UNL     1      44.859   3.550   9.161  0.00  0.00    +0.000 C 
ATOM     11  C   UNL     1      45.392   2.118   9.348  0.00  0.00    +0.000 C 
ATOM     12  C   UNL     1      45.954   1.558   8.052  0.00  0.00    +0.000 C 
ATOM     13  O   UNL     1      46.930   2.439   7.503  0.00  0.00    +0.000 OA
ATOM     14  C   UNL     1      46.371   3.704   7.153  0.00  0.00    +0.000 C 
ATOM     15  C   UNL     1      45.861   4.422   8.394  0.00  0.00    +0.000 C 
ENDBRANCH   8  10
ENDBRANCH   1   4
BRANCH   1  16
ATOM     16  N   UNL     1      46.680   6.538  13.938  0.00  0.00    +0.000 N 
ATOM     17  H   UNL     1      46.501   6.890  14.875  0.00  0.00    +0.000 HD
BRANCH  16  21
ATOM     18  C   UNL     1      50.130   7.932  11.979  0.00  0.00    +0.000 A 
ATOM     19  C   UNL     1      50.125   7.836  13.371  0.00  0.00    +0.000 A 
ATOM     20  C   UNL     1      48.961   7.454  14.030  0.00  0.00    +0.000 A 
ATOM     21  C   UNL     1      47.786   7.168  13.325  0.00  0.00    +0.000 A 
ATOM     22  C   UNL     1      47.781   7.372  11.939  0.00  0.00    +0.000 A 
ATOM     23  C   UNL     1      48.941   7.769  11.266  0.00  0.00    +0.000 A 
BRANCH  18  25
ATOM     24  N   UNL     1      51.908   6.991  10.655  0.00  0.00    +0.000 N 
ATOM     25  C   UNL     1      51.411   8.107  11.253  0.00  0.00    +0.000 C 
ATOM     26  O   UNL     1      51.938   9.206  11.133  0.00  0.00    +0.000 OA
ATOM     27  H   UNL     1      52.680   7.121  10.012  0.00  0.00    +0.000 HD
ATOM     28  H   UNL     1      51.342   6.161  10.530  0.00  0.00    +0.000 HD
ENDBRANCH  18  25
ENDBRANCH  16  21
ENDBRANCH   1  16
TORSDOF 5
ENDMDL
MODEL 8
REMARK VINA RESULT:    -7.055      2.300      7.410
REMARK INTER + INTRA:          -9.989
REMARK INTER:                  -9.789
REMARK INTRA:                  -0.200
REMARK UNBOUND:                -0.872
REMARK  Name = 
REMARK  5 active torsions:
REMARK  status: ('A' for Active; 'I' for Inactive)
REMARK    1  A    between atoms: C_2  and  C_4
REMARK    2  A    between atoms: C_7  and  N_8
REMARK    3  A    between atoms: N_8  and  C_9
REMARK    4  A    between atoms: C_9  and  C_10
REMARK    5  A    between atoms: C_14  and  C_15
REMARK                            x       y       z     vdW  Elec       q    Type
REMARK                         _______ _______ _______ _____ _____    ______ ____
ROOT
ATOM      1  C   UNL     1      44.713   3.620  12.381  0.00  0.00    +0.000 C 
ATOM      2  C   UNL     1      43.532   4.255  13.118  0.00  0.00    +0.000 C 
ATOM      3  C   UNL     1      43.456   2.826  12.697  0.00  0.00    +0.000 C 
ENDROOT
BRANCH   1   4
ATOM      4  C   UNL     1      44.907   4.223  10.986  0.00  0.00    +0.000 A 
ATOM      5  C   UNL     1      45.230   5.579  10.809  0.00  0.00    +0.000 A 
ATOM      6  C   UNL     1      45.773   6.047   9.615  0.00  0.00    +0.000 A 
ATOM      7  C   UNL     1      45.988   5.162   8.565  0.00  0.00    +0.000 A 
ATOM      8  C   UNL     1      45.583   3.822   8.662  0.00  0.00    +0.000 A 
ATOM      9  C   UNL     1      45.002   3.381   9.861  0.00  0.00    +0.000 A 
BRANCH   8  10
ATOM     10  C   UNL     1      45.902   2.824   7.563  0.00  0.00    +0.000 C 
ATOM     11  C   UNL     1      46.349   1.488   8.184  0.00  0.00    +0.000 C 
ATOM     12  C   UNL     1      46.854   0.522   7.125  0.00  0.00    +0.000 C 
ATOM     13  O   UNL     1      47.873   1.127   6.335  0.00  0.00    +0.000 OA
ATOM     14  C   UNL     1      47.388   2.256   5.611  0.00  0.00    +0.000 C 
ATOM     15  C   UNL     1      46.944   3.353   6.569  0.00  0.00    +0.000 C 
ENDBRANCH   8  10
ENDBRANCH   1   4
BRANCH   1  16
ATOM     16  N   UNL     1      45.932   3.310  13.158  0.00  0.00    +0.000 N 
ATOM     17  H   UNL     1      46.569   2.634  12.749  0.00  0.00    +0.000 HD
BRANCH  16  21
ATOM     18  C   UNL     1      48.368   6.015  15.263  0.00  0.00    +0.000 A 
ATOM     19  C   UNL     1      47.800   4.934  15.940  0.00  0.00    +0.000 A 
ATOM     20  C   UNL     1      46.929   4.084  15.270  0.00  0.00    +0.000 A 
ATOM     21  C   UNL     1      46.600   4.291  13.925  0.00  0.00    +0.000 A 
ATOM     22  C   UNL     1      47.096   5.438  13.292  0.00  0.00    +0.000 A 
ATOM     23  C   UNL     1      47.963   6.310  13.960  0.00  0.00    +0.000 A 
BRANCH  18  25
ATOM     24  N   UNL     1      49.183   8.080  16.197  0.00  0.00    +0.000 N 
ATOM     25  C   UNL     1      49.468   6.786  15.890  0.00  0.00    +0.000 C 
ATOM     26  O   UNL     1      50.535   6.262  16.185  0.00  0.00    +0.000 OA
ATOM     27  H   UNL     1      49.849   8.571  16.780  0.00  0.00    +0.000 HD
ATOM     28  H   UNL     1      48.230   8.425  16.199  0.00  0.00    +0.000 HD
ENDBRANCH  18  25
ENDBRANCH  16  21
ENDBRANCH   1  16
TORSDOF 5
ENDMDL
MODEL 9
REMARK VINA RESULT:    -6.982      2.753      4.664
REMARK INTER + INTRA:          -9.895
REMARK INTER:                  -8.908
REMARK INTRA:                  -0.987
REMARK UNBOUND:                -0.872
REMARK  Name = 
REMARK  5 active torsions:
REMARK  status: ('A' for Active; 'I' for Inactive)
REMARK    1  A    between atoms: C_2  and  C_4
REMARK    2  A    between atoms: C_7  and  N_8
REMARK    3  A    between atoms: N_8  and  C_9
REMARK    4  A    between atoms: C_9  and  C_10
REMARK    5  A    between atoms: C_14  and  C_15
REMARK                            x       y       z     vdW  Elec       q    Type
REMARK                         _______ _______ _______ _____ _____    ______ ____
ROOT
ATOM      1  C   UNL     1      47.930   7.940  13.098  0.00  0.00    +0.000 C 
ATOM      2  C   UNL     1      48.523   9.078  12.264  0.00  0.00    +0.000 C 
ATOM      3  C   UNL     1      48.913   7.668  11.971  0.00  0.00    +0.000 C 
ENDROOT
BRANCH   1   4
ATOM      4  C   UNL     1      48.421   7.979  14.549  0.00  0.00    +0.000 A 
ATOM      5  C   UNL     1      48.251   9.118  15.353  0.00  0.00    +0.000 A 
ATOM      6  C   UNL     1      48.338   9.047  16.742  0.00  0.00    +0.000 A 
ATOM      7  C   UNL     1      48.612   7.829  17.351  0.00  0.00    +0.000 A 
ATOM      8  C   UNL     1      48.893   6.690  16.583  0.00  0.00    +0.000 A 
ATOM      9  C   UNL     1      48.839   6.793  15.183  0.00  0.00    +0.000 A 
BRANCH   8  10
ATOM     10  C   UNL     1      49.095   5.333  17.234  0.00  0.00    +0.000 C 
ATOM     11  C   UNL     1      50.591   4.971  17.237  0.00  0.00    +0.000 C 
ATOM     12  C   UNL     1      50.820   3.546  17.710  0.00  0.00    +0.000 C 
ATOM     13  O   UNL     1      50.036   2.630  16.951  0.00  0.00    +0.000 OA
ATOM     14  C   UNL     1      48.637   2.859  17.116  0.00  0.00    +0.000 C 
ATOM     15  C   UNL     1      48.256   4.230  16.575  0.00  0.00    +0.000 C 
ENDBRANCH   8  10
ENDBRANCH   1   4
BRANCH   1  16
ATOM     16  N   UNL     1      46.514   7.579  12.874  0.00  0.00    +0.000 N 
ATOM     17  H   UNL     1      45.895   8.333  12.592  0.00  0.00    +0.000 HD
BRANCH  16  21
ATOM     18  C   UNL     1      44.896   4.019  11.330  0.00  0.00    +0.000 A 
ATOM     19  C   UNL     1      45.418   4.029  12.625  0.00  0.00    +0.000 A 
ATOM     20  C   UNL     1      46.028   5.180  13.111  0.00  0.00    +0.000 A 
ATOM     21  C   UNL     1      46.137   6.333  12.325  0.00  0.00    +0.000 A 
ATOM     22  C   UNL     1      45.702   6.271  10.995  0.00  0.00    +0.000 A 
ATOM     23  C   UNL     1      45.099   5.114  10.489  0.00  0.00    +0.000 A 
BRANCH  18  25
ATOM     24  N   UNL     1      44.538   2.146   9.858  0.00  0.00    +0.000 N 
ATOM     25  C   UNL     1      44.043   2.890  10.884  0.00  0.00    +0.000 C 
ATOM     26  O   UNL     1      43.003   2.602  11.462  0.00  0.00    +0.000 OA
ATOM     27  H   UNL     1      44.065   1.274   9.655  0.00  0.00    +0.000 HD
ATOM     28  H   UNL     1      45.505   2.222   9.568  0.00  0.00    +0.000 HD
ENDBRANCH  18  25
ENDBRANCH  16  21
ENDBRANCH   1  16
TORSDOF 5
ENDMDL
