MODEL 1
REMARK VINA RESULT:    -9.148      0.000      0.000
REMARK INTER + INTRA:         -11.919
REMARK INTER:                 -11.287
REMARK INTRA:                  -0.633
REMARK UNBOUND:                -0.633
REMARK  Name = 
REMARK  4 active torsions:
REMARK  status: ('A' for Active; 'I' for Inactive)
REMARK    1  A    between atoms: C_2  and  C_4
REMARK    2  A    between atoms: N_8  and  C_9
REMARK    3  A    between atoms: C_9  and  C_10
REMARK    4  A    between atoms: C_15  and  N_16
REMARK                            x       y       z     vdW  Elec       q    Type
REMARK                         _______ _______ _______ _____ _____    ______ ____
ROOT
ATOM      1  C   UNL     1      43.460   4.394  11.059  0.00  0.00    +0.000 C 
ENDROOT
BRANCH   1   6
ATOM      2  C   UNL     1      46.386   2.340   7.692  0.00  0.00    +0.000 A 
ATOM      3  C   UNL     1      45.535   1.861   8.657  0.00  0.00    +0.000 A 
ATOM      4  N   UNL     1      44.669   2.639   9.341  0.00  0.00    +0.000 NA
ATOM      5  C   UNL     1      44.663   3.952   9.057  0.00  0.00    +0.000 A 
ATOM      6  N   UNL     1      43.779   4.798   9.705  0.00  0.00    +0.000 N 
ATOM      7  N   UNL     1      45.478   4.518   8.156  0.00  0.00    +0.000 NA
ATOM      8  C   UNL     1      46.329   3.699   7.492  0.00  0.00    +0.000 A 
ATOM      9  H   UNL     1      44.135   5.740   9.603  0.00  0.00    +0.000 HD
BRANCH   2  11
ATOM     10  N   UNL     1      48.462   2.091   6.461  0.00  0.00    +0.000 N 
ATOM     11  C   UNL     1      47.327   1.498   6.944  0.00  0.00    +0.000 C 
ATOM     12  O   UNL     1      47.115   0.303   6.783  0.00  0.00    +0.000 OA
ATOM     13  H   UNL     1      49.138   1.473   6.025  0.00  0.00    +0.000 HD
ATOM     14  H   UNL     1      48.800   2.988   6.776  0.00  0.00    +0.000 HD
ENDBRANCH   2  11
ENDBRANCH   1   6
BRANCH   1  15
ATOM     15  C   UNL     1      44.592   4.760  11.990  0.00  0.00    +0.000 A 
ATOM     16  C   UNL     1      45.347   3.760  12.608  0.00  0.00    +0.000 A 
ATOM     17  C   UNL     1      46.432   4.110  13.395  0.00  0.00    +0.000 A 
ATOM     18  F   UNL     1      47.157   3.149  13.983  0.00  0.00    +0.000 F 
ATOM     19  C   UNL     1      46.790   5.444  13.583  0.00  0.00    +0.000 A 
ATOM     20  C   UNL     1      46.056   6.479  12.993  0.00  0.00    +0.000 A 
ATOM     21  C   UNL     1      44.953   6.105  12.199  0.00  0.00    +0.000 A 
BRANCH  20  22
ATOM     22  N   UNL     1      46.398   7.807  13.150  0.00  0.00    +0.000 N 
ATOM     23  C   UNL     1      45.459   8.917  12.915  0.00  0.00    +0.000 C 
ATOM     24  C   UNL     1      45.971   9.825  11.788  0.00  0.00    +0.000 C 
ATOM     25  O   UNL     1      47.308  10.286  12.051  0.00  0.00    +0.000 OA
ATOM     26  C   UNL     1      48.203   9.167  12.165  0.00  0.00    +0.000 C 
ATOM     27  C   UNL     1      47.800   8.225  13.314  0.00  0.00    +0.000 C 
ENDBRANCH  20  22
ENDBRANCH   1  15
TORSDOF 4
ENDMDL
MODEL 2
REMARK VINA RESULT:    -8.552      2.383      3.224
REMARK INTER + INTRA:         -11.185
REMARK INTER:                 -10.518
REMARK INTRA:                  -0.667
REMARK UNBOUND:                -0.633
REMARK  Name = 
REMARK  4 active torsions:
REMARK  status: ('A' for Active; 'I' for Inactive)
REMARK    1  A    between atoms: C_2  and  C_4
REMARK    2  A    between atoms: N_8  and  C_9
REMARK    3  A    between atoms: C_9  and  C_10
REMARK    4  A    between atoms: C_15  and  N_16
REMARK                            x       y       z     vdW  Elec       q    Type
REMARK                         _______ _______ _______ _____ _____    ______ ____
ROOT
ATOM      1  C   UNL     1      43.663   4.651  11.015  0.00  0.00    +0.000 C 
ENDROOT
BRANCH   1   6
ATOM      2  C   UNL     1      46.367   2.253   7.689  0.00  0.00    +0.000 A 
ATOM      3  C   UNL     1      45.697   1.895   8.832  0.00  0.00    +0.000 A 
ATOM      4  N   UNL     1      44.840   2.711   9.482  0.00  0.00    +0.000 NA
ATOM      5  C   UNL     1      44.656   3.941   8.974  0.00  0.00    +0.000 A 
ATOM      6  N   UNL     1      43.770   4.816   9.580  0.00  0.00    +0.000 N 
ATOM      7  N   UNL     1      45.290   4.394   7.883  0.00  0.00    +0.000 NA
ATOM      8  C   UNL     1      46.137   3.540   7.262  0.00  0.00    +0.000 A 
ATOM      9  H   UNL     1      44.006   5.749   9.264  0.00  0.00    +0.000 HD
BRANCH   2  11
ATOM     10  N   UNL     1      48.392   1.940   6.389  0.00  0.00    +0.000 N 
ATOM     11  C   UNL     1      47.297   1.368   6.978  0.00  0.00    +0.000 C 
ATOM     12  O   UNL     1      47.113   0.159   6.938  0.00  0.00    +0.000 OA
ATOM     13  H   UNL     1      49.064   1.301   5.980  0.00  0.00    +0.000 HD
ATOM     14  H   UNL     1      48.718   2.871   6.603  0.00  0.00    +0.000 HD
ENDBRANCH   2  11
ENDBRANCH   1   6
BRANCH   1  15
ATOM     15  C   UNL     1      44.616   5.590  11.718  0.00  0.00    +0.000 A 
ATOM     16  C   UNL     1      44.469   6.973  11.583  0.00  0.00    +0.000 A 
ATOM     17  C   UNL     1      45.299   7.821  12.296  0.00  0.00    +0.000 A 
ATOM     18  F   UNL     1      45.154   9.147  12.169  0.00  0.00    +0.000 F 
ATOM     19  C   UNL     1      46.280   7.323  13.154  0.00  0.00    +0.000 A 
ATOM     20  C   UNL     1      46.470   5.946  13.312  0.00  0.00    +0.000 A 
ATOM     21  C   UNL     1      45.619   5.098  12.575  0.00  0.00    +0.000 A 
BRANCH  20  22
ATOM     22  N   UNL     1      47.422   5.427  14.165  0.00  0.00    +0.000 N 
ATOM     23  C   UNL     1      47.243   4.168  14.907  0.00  0.00    +0.000 C 
ATOM     24  C   UNL     1      47.290   4.423  16.420  0.00  0.00    +0.000 C 
ATOM     25  O   UNL     1      48.494   5.114  16.798  0.00  0.00    +0.000 OA
ATOM     26  C   UNL     1      48.567   6.383  16.127  0.00  0.00    +0.000 C 
ATOM     27  C   UNL     1      48.583   6.223  14.596  0.00  0.00    +0.000 C 
ENDBRANCH  20  22
ENDBRANCH   1  15
TORSDOF 4
ENDMDL
MODEL 3
REMARK VINA RESULT:    -7.880      2.713      3.671
REMARK INTER + INTRA:         -10.355
REMARK INTER:                  -9.914
REMARK INTRA:                  -0.441
REMARK UNBOUND:                -0.633
REMARK  Name = 
REMARK  4 active torsions:
REMARK  status: ('A' for Active; 'I' for Inactive)
REMARK    1  A    between atoms: C_2  and  C_4
REMARK    2  A    between atoms: N_8  and  C_9
REMARK    3  A    between atoms: C_9  and  C_10
REMARK    4  A    between atoms: C_15  and  N_16
REMARK                            x       y       z     vdW  Elec       q    Type
REMARK                         _______ _______ _______ _____ _____    ______ ____
ROOT
ATOM      1  C   UNL     1      44.439   4.622  11.464  0.00  0.00    +0.000 C 
ENDROOT
BRANCH   1   6
ATOM      2  C   UNL     1      46.561   2.594   7.528  0.00  0.00    +0.000 A 
ATOM      3  C   UNL     1      45.981   2.108   8.673  0.00  0.00    +0.000 A 
ATOM      4  N   UNL     1      45.272   2.871   9.532  0.00  0.00    +0.000 NA
ATOM      5  C   UNL     1      45.150   4.177   9.240  0.00  0.00    +0.000 A 
ATOM      6  N   UNL     1      44.413   5.007  10.068  0.00  0.00    +0.000 N 
ATOM      7  N   UNL     1      45.708   4.750   8.164  0.00  0.00    +0.000 NA
ATOM      8  C   UNL     1      46.407   3.946   7.328  0.00  0.00    +0.000 A 
ATOM      9  H   UNL     1      44.699   5.958   9.872  0.00  0.00    +0.000 HD
BRANCH   2  11
ATOM     10  N   UNL     1      48.276   2.392   5.823  0.00  0.00    +0.000 N 
ATOM     11  C   UNL     1      47.330   1.767   6.589  0.00  0.00    +0.000 C 
ATOM     12  O   UNL     1      47.147   0.560   6.516  0.00  0.00    +0.000 OA
ATOM     13  H   UNL     1      48.854   1.789   5.248  0.00  0.00    +0.000 HD
ATOM     14  H   UNL     1      48.635   3.315   6.022  0.00  0.00    +0.000 HD
ENDBRANCH   2  11
ENDBRANCH   1   6
BRANCH   1  15
ATOM     15  C   UNL     1      45.647   5.222  12.146  0.00  0.00    +0.000 A 
ATOM     16  C   UNL     1      46.369   6.246  11.527  0.00  0.00    +0.000 A 
ATOM     17  C   UNL     1      47.425   6.840  12.198  0.00  0.00    +0.000 A 
ATOM     18  F   UNL     1      48.113   7.824  11.605  0.00  0.00    +0.000 F 
ATOM     19  C   UNL     1      47.782   6.439  13.485  0.00  0.00    +0.000 A 
ATOM     20  C   UNL     1      47.095   5.411  14.139  0.00  0.00    +0.000 A 
ATOM     21  C   UNL     1      46.026   4.815  13.440  0.00  0.00    +0.000 A 
BRANCH  20  22
ATOM     22  N   UNL     1      47.418   5.006  15.418  0.00  0.00    +0.000 N 
ATOM     23  C   UNL     1      48.287   5.783  16.317  0.00  0.00    +0.000 C 
ATOM     24  C   UNL     1      49.539   4.976  16.686  0.00  0.00    +0.000 C 
ATOM     25  O   UNL     1      49.193   3.692  17.235  0.00  0.00    +0.000 OA
ATOM     26  C   UNL     1      48.436   2.933  16.278  0.00  0.00    +0.000 C 
ATOM     27  C   UNL     1      47.127   3.642  15.889  0.00  0.00    +0.000 C 
ENDBRANCH  20  22
ENDBRANCH   1  15
TORSDOF 4
ENDMDL
MODEL 4
REMARK VINA RESULT:    -7.631      4.100      8.041
REMARK INTER + INTRA:         -10.049
REMARK INTER:                  -9.575
REMARK INTRA:                  -0.474
REMARK UNBOUND:                -0.633
REMARK  Name = 
REMARK  4 active torsions:
REMARK  status: ('A' for Active; 'I' for Inactive)
REMARK    1  A    between atoms: C_2  and  C_4
REMARK    2  A    between atoms: N_8  and  C_9
REMARK    3  A    between atoms: C_9  and  C_10
REMARK    4  A    between atoms: C_15  and  N_16
REMARK                            x       y       z     vdW  Elec       q    Type
REMARK                         _______ _______ _______ _____ _____    ______ ____
ROOT
ATOM      1  C   UNL     1      46.637   4.730  13.489  0.00  0.00    +0.000 C 
ENDROOT
BRANCH   1   6
ATOM      2  C   UNL     1      48.610   3.911  17.912  0.00  0.00    +0.000 A 
ATOM      3  C   UNL     1      47.793   4.877  17.380  0.00  0.00    +0.000 A 
ATOM      4  N   UNL     1      47.210   4.778  16.166  0.00  0.00    +0.000 NA
ATOM      5  C   UNL     1      47.466   3.670  15.450  0.00  0.00    +0.000 A 
ATOM      6  N   UNL     1      46.877   3.495  14.209  0.00  0.00    +0.000 N 
ATOM      7  N   UNL     1      48.275   2.687  15.869  0.00  0.00    +0.000 NA
ATOM      8  C   UNL     1      48.836   2.829  17.094  0.00  0.00    +0.000 A 
ATOM      9  H   UNL     1      47.420   2.800  13.713  0.00  0.00    +0.000 HD
BRANCH   2  11
ATOM     10  N   UNL     1      48.506   3.634  20.320  0.00  0.00    +0.000 N 
ATOM     11  C   UNL     1      49.243   4.015  19.232  0.00  0.00    +0.000 C 
ATOM     12  O   UNL     1      50.398   4.403  19.349  0.00  0.00    +0.000 OA
ATOM     13  H   UNL     1      48.993   3.630  21.210  0.00  0.00    +0.000 HD
ATOM     14  H   UNL     1      47.664   3.081  20.258  0.00  0.00    +0.000 HD
ENDBRANCH   2  11
ENDBRANCH   1   6
BRANCH   1  15
ATOM     15  C   UNL     1      45.446   4.573  12.573  0.00  0.00    +0.000 A 
ATOM     16  C   UNL     1      44.206   5.109  12.931  0.00  0.00    +0.000 A 
ATOM     17  C   UNL     1      43.144   5.027  12.045  0.00  0.00    +0.000 A 
ATOM     18  F   UNL     1      41.958   5.545  12.389  0.00  0.00    +0.000 F 
ATOM     19  C   UNL     1      43.288   4.422  10.797  0.00  0.00    +0.000 A 
ATOM     20  C   UNL     1      44.507   3.863  10.401  0.00  0.00    +0.000 A 
ATOM     21  C   UNL     1      45.575   3.951  11.315  0.00  0.00    +0.000 A 
BRANCH  20  22
ATOM     22  N   UNL     1      44.680   3.273   9.165  0.00  0.00    +0.000 N 
ATOM     23  C   UNL     1      44.776   1.816   8.971  0.00  0.00    +0.000 C 
ATOM     24  C   UNL     1      46.135   1.442   8.365  0.00  0.00    +0.000 C 
ATOM     25  O   UNL     1      46.389   2.173   7.153  0.00  0.00    +0.000 OA
ATOM     26  C   UNL     1      46.391   3.586   7.418  0.00  0.00    +0.000 C 
ATOM     27  C   UNL     1      45.039   4.066   7.978  0.00  0.00    +0.000 C 
ENDBRANCH  20  22
ENDBRANCH   1  15
TORSDOF 4
ENDMDL
MODEL 5
REMARK VINA RESULT:    -7.089      5.290      7.958
REMARK INTER + INTRA:          -9.379
REMARK INTER:                  -8.800
REMARK INTRA:                  -0.580
REMARK UNBOUND:                -0.633
REMARK  Name = 
REMARK  4 active torsions:
REMARK  status: ('A' for Active; 'I' for Inactive)
REMARK    1  A    between atoms: C_2  and  C_4
REMARK    2  A    between atoms: N_8  and  C_9
REMARK    3  A    between atoms: C_9  and  C_10
REMARK    4  A    between atoms: C_15  and  N_16
REMARK                            x       y       z     vdW  Elec       q    Type
REMARK                         _______ _______ _______ _____ _____    ______ ____
ROOT
ATOM      1  C   UNL     1      48.595   6.242  15.871  0.00  0.00    +0.000 C 
ENDROOT
BRANCH   1   6
ATOM      2  C   UNL     1      51.276   2.464  17.501  0.00  0.00    +0.000 A 
ATOM      3  C   UNL     1      51.471   3.819  17.404  0.00  0.00    +0.000 A 
ATOM      4  N   UNL     1      50.490   4.695  17.101  0.00  0.00    +0.000 NA
ATOM      5  C   UNL     1      49.265   4.192  16.873  0.00  0.00    +0.000 A 
ATOM      6  N   UNL     1      48.210   5.041  16.584  0.00  0.00    +0.000 N 
ATOM      7  N   UNL     1      48.983   2.882  16.911  0.00  0.00    +0.000 NA
ATOM      8  C   UNL     1      49.998   2.041  17.222  0.00  0.00    +0.000 A 
ATOM      9  H   UNL     1      47.488   4.484  16.144  0.00  0.00    +0.000 HD
BRANCH   2  11
ATOM     10  N   UNL     1      51.966   0.237  18.174  0.00  0.00    +0.000 N 
ATOM     11  C   UNL     1      52.340   1.508  17.833  0.00  0.00    +0.000 C 
ATOM     12  O   UNL     1      53.519   1.832  17.779  0.00  0.00    +0.000 OA
ATOM     13  H   UNL     1      52.719  -0.428  18.313  0.00  0.00    +0.000 HD
ATOM     14  H   UNL     1      51.049  -0.144  17.991  0.00  0.00    +0.000 HD
ENDBRANCH   2  11
ENDBRANCH   1   6
BRANCH   1  15
ATOM     15  C   UNL     1      47.934   6.273  14.512  0.00  0.00    +0.000 A 
ATOM     16  C   UNL     1      48.482   7.040  13.480  0.00  0.00    +0.000 A 
ATOM     17  C   UNL     1      47.911   6.996  12.219  0.00  0.00    +0.000 A 
ATOM     18  F   UNL     1      48.440   7.728  11.230  0.00  0.00    +0.000 F 
ATOM     19  C   UNL     1      46.800   6.196  11.955  0.00  0.00    +0.000 A 
ATOM     20  C   UNL     1      46.212   5.421  12.960  0.00  0.00    +0.000 A 
ATOM     21  C   UNL     1      46.803   5.481  14.238  0.00  0.00    +0.000 A 
BRANCH  20  22
ATOM     22  N   UNL     1      45.121   4.610  12.722  0.00  0.00    +0.000 N 
ATOM     23  C   UNL     1      45.219   3.297  12.060  0.00  0.00    +0.000 C 
ATOM     24  C   UNL     1      44.405   3.290  10.758  0.00  0.00    +0.000 C 
ATOM     25  O   UNL     1      43.042   3.686  10.989  0.00  0.00    +0.000 OA
ATOM     26  C   UNL     1      42.999   5.014  11.535  0.00  0.00    +0.000 C 
ATOM     27  C   UNL     1      43.745   5.106  12.879  0.00  0.00    +0.000 C 
ENDBRANCH  20  22
ENDBRANCH   1  15
TORSDOF 4
ENDMDL
MODEL 6
REMARK VINA RESULT:    -6.989      2.545      7.134
REMARK INTER + INTRA:          -9.256
REMARK INTER:                  -8.682
REMARK INTRA:                  -0.573
REMARK UNBOUND:                -0.633
REMARK  Name = 
REMARK  4 active torsions:
REMARK  status: ('A' for Active; 'I' for Inactive)
REMARK    1  A    between atoms: C_2  and  C_4
REMARK    2  A    between atoms: N_8  and  C_9
REMARK    3  A    between atoms: C_9  and  C_10
REMARK    4  A    between atoms: C_15  and  N_16
REMARK                            x       y       z     vdW  Elec       q    Type
REMARK                         _______ _______ _______ _____ _____    ______ ____
ROOT
ATOM      1  C   UNL     1      46.710   4.033  13.751  0.00  0.00    +0.000 C 
ENDROOT
BRANCH   1   6
ATOM      2  C   UNL     1      49.909   7.754  13.559  0.00  0.00    +0.000 A 
ATOM      3  C   UNL     1      49.311   6.943  12.628  0.00  0.00    +0.000 A 
ATOM      4  N   UNL     1      48.292   6.104  12.912  0.00  0.00    +0.000 NA
ATOM      5  C   UNL     1      47.862   6.067  14.184  0.00  0.00    +0.000 A 
ATOM      6  N   UNL     1      46.802   5.247  14.535  0.00  0.00    +0.000 N 
ATOM      7  N   UNL     1      48.403   6.796  15.171  0.00  0.00    +0.000 NA
ATOM      8  C   UNL     1      49.421   7.626  14.838  0.00  0.00    +0.000 A 
ATOM      9  H   UNL     1      46.841   5.118  15.538  0.00  0.00    +0.000 HD
BRANCH   2  11
ATOM     10  N   UNL     1      52.077   8.167  12.551  0.00  0.00    +0.000 N 
ATOM     11  C   UNL     1      51.015   8.669  13.253  0.00  0.00    +0.000 C 
ATOM     12  O   UNL     1      50.975   9.844  13.592  0.00  0.00    +0.000 OA
ATOM     13  H   UNL     1      52.787   8.837  12.275  0.00  0.00    +0.000 HD
ATOM     14  H   UNL     1      52.047   7.297  12.039  0.00  0.00    +0.000 HD
ENDBRANCH   2  11
ENDBRANCH   1   6
BRANCH   1  15
ATOM     15  C   UNL     1      45.519   4.102  12.824  0.00  0.00    +0.000 A 
ATOM     16  C   UNL     1      44.349   4.751  13.228  0.00  0.00    +0.000 A 
ATOM     17  C   UNL     1      43.294   4.876  12.339  0.00  0.00    +0.000 A 
ATOM     18  F   UNL     1      42.175   5.502  12.727  0.00  0.00    +0.000 F 
ATOM     19  C   UNL     1      43.377   4.371  11.042  0.00  0.00    +0.000 A 
ATOM     20  C   UNL     1      44.524   3.705  10.597  0.00  0.00    +0.000 A 
ATOM     21  C   UNL     1      45.585   3.583  11.517  0.00  0.00    +0.000 A 
BRANCH  20  22
ATOM     22  N   UNL     1      44.638   3.209   9.315  0.00  0.00    +0.000 N 
ATOM     23  C   UNL     1      44.759   1.774   9.010  0.00  0.00    +0.000 C 
ATOM     24  C   UNL     1      46.089   1.485   8.301  0.00  0.00    +0.000 C 
ATOM     25  O   UNL     1      46.251   2.307   7.132  0.00  0.00    +0.000 OA
ATOM     26  C   UNL     1      46.232   3.697   7.499  0.00  0.00    +0.000 C 
ATOM     27  C   UNL     1      44.905   4.095   8.170  0.00  0.00    +0.000 C 
ENDBRANCH  20  22
ENDBRANCH   1  15
TORSDOF 4
ENDMDL
MODEL 7
REMARK VINA RESULT:    -6.709      4.558      8.379
REMARK INTER + INTRA:          -8.911
REMARK INTER:                  -8.228
REMARK INTRA:                  -0.682
REMARK UNBOUND:                -0.633
REMARK  Name = 
REMARK  4 active torsions:
REMARK  status: ('A' for Active; 'I' for Inactive)
REMARK    1  A    between atoms: C_2  and  C_4
REMARK    2  A    between atoms: N_8  and  C_9
REMARK    3  A    between atoms: C_9  and  C_10
REMARK    4  A    between atoms: C_15  and  N_16
REMARK                            x       y       z     vdW  Elec       q    Type
REMARK                         _______ _______ _______ _____ _____    ______ ____
ROOT
ATOM      1  C   UNL     1      49.135   7.011  14.067  0.00  0.00    +0.000 C 
ENDROOT
BRANCH   1   6
ATOM      2  C   UNL     1      48.891   5.152  18.606  0.00  0.00    +0.000 A 
ATOM      3  C   UNL     1      49.337   4.690  17.394  0.00  0.00    +0.000 A 
ATOM      4  N   UNL     1      49.489   5.474  16.305  0.00  0.00    +0.000 NA
ATOM      5  C   UNL     1      49.168   6.773  16.432  0.00  0.00    +0.000 A 
ATOM      6  N   UNL     1      49.327   7.634  15.360  0.00  0.00    +0.000 N 
ATOM      7  N   UNL     1      48.693   7.311  17.564  0.00  0.00    +0.000 NA
ATOM      8  C   UNL     1      48.560   6.487  18.632  0.00  0.00    +0.000 A 
ATOM      9  H   UNL     1      48.753   8.449  15.541  0.00  0.00    +0.000 HD
BRANCH   2  11
ATOM     10  N   UNL     1      48.333   3.008  19.595  0.00  0.00    +0.000 N 
ATOM     11  C   UNL     1      48.727   4.304  19.793  0.00  0.00    +0.000 C 
ATOM     12  O   UNL     1      48.960   4.734  20.914  0.00  0.00    +0.000 OA
ATOM     13  H   UNL     1      48.312   2.417  20.420  0.00  0.00    +0.000 HD
ATOM     14  H   UNL     1      48.374   2.542  18.701  0.00  0.00    +0.000 HD
ENDBRANCH   2  11
ENDBRANCH   1   6
BRANCH   1  15
ATOM     15  C   UNL     1      47.694   7.148  13.633  0.00  0.00    +0.000 A 
ATOM     16  C   UNL     1      47.168   8.405  13.325  0.00  0.00    +0.000 A 
ATOM     17  C   UNL     1      45.870   8.506  12.852  0.00  0.00    +0.000 A 
ATOM     18  F   UNL     1      45.369   9.712  12.553  0.00  0.00    +0.000 F 
ATOM     19  C   UNL     1      45.075   7.374  12.672  0.00  0.00    +0.000 A 
ATOM     20  C   UNL     1      45.557   6.097  12.978  0.00  0.00    +0.000 A 
ATOM     21  C   UNL     1      46.877   6.013  13.462  0.00  0.00    +0.000 A 
BRANCH  20  22
ATOM     22  N   UNL     1      44.797   4.960  12.794  0.00  0.00    +0.000 N 
ATOM     23  C   UNL     1      45.339   3.704  12.250  0.00  0.00    +0.000 C 
ATOM     24  C   UNL     1      44.626   3.332  10.942  0.00  0.00    +0.000 C 
ATOM     25  O   UNL     1      43.200   3.282  11.117  0.00  0.00    +0.000 OA
ATOM     26  C   UNL     1      42.708   4.562  11.546  0.00  0.00    +0.000 C 
ATOM     27  C   UNL     1      43.328   4.994  12.888  0.00  0.00    +0.000 C 
ENDBRANCH  20  22
ENDBRANCH   1  15
TORSDOF 4
ENDMDL
MODEL 8
REMARK VINA RESULT:    -6.578      4.517      8.089
REMARK INTER + INTRA:          -8.749
REMARK INTER:                  -8.276
REMARK INTRA:                  -0.474
REMARK UNBOUND:                -0.633
REMARK  Name = 
REMARK  4 active torsions:
REMARK  status: ('A' for Active; 'I' for Inactive)
REMARK    1  A    between atoms: C_2  and  C_4
REMARK    2  A    between atoms: N_8  and  C_9
REMARK    3  A    between atoms: C_9  and  C_10
REMARK    4  A    between atoms: C_15  and  N_16
REMARK                            x       y       z     vdW  Elec       q    Type
REMARK                         _______ _______ _______ _____ _____    ______ ____
ROOT
ATOM      1  C   UNL     1      47.919   6.452  13.934  0.00  0.00    +0.000 C 
ENDROOT
BRANCH   1   6
ATOM      2  C   UNL     1      50.491   4.663  17.717  0.00  0.00    +0.000 A 
ATOM      3  C   UNL     1      50.523   5.825  16.987  0.00  0.00    +0.000 A 
ATOM      4  N   UNL     1      49.565   6.181  16.106  0.00  0.00    +0.000 NA
ATOM      5  C   UNL     1      48.536   5.333  15.939  0.00  0.00    +0.000 A 
ATOM      6  N   UNL     1      47.507   5.653  15.069  0.00  0.00    +0.000 N 
ATOM      7  N   UNL     1      48.431   4.160  16.580  0.00  0.00    +0.000 NA
ATOM      8  C   UNL     1      49.415   3.846  17.457  0.00  0.00    +0.000 A 
ATOM      9  H   UNL     1      47.024   4.792  14.845  0.00  0.00    +0.000 HD
BRANCH   2  11
ATOM     10  N   UNL     1      51.212   4.320  20.008  0.00  0.00    +0.000 N 
ATOM     11  C   UNL     1      51.530   4.274  18.678  0.00  0.00    +0.000 C 
ATOM     12  O   UNL     1      52.630   3.897  18.299  0.00  0.00    +0.000 OA
ATOM     13  H   UNL     1      51.914   3.963  20.647  0.00  0.00    +0.000 HD
ATOM     14  H   UNL     1      50.265   4.376  20.354  0.00  0.00    +0.000 HD
ENDBRANCH   2  11
ENDBRANCH   1   6
BRANCH   1  15
ATOM     15  C   UNL     1      46.717   6.823  13.097  0.00  0.00    +0.000 A 
ATOM     16  C   UNL     1      46.393   8.166  12.887  0.00  0.00    +0.000 A 
ATOM     17  C   UNL     1      45.337   8.492  12.053  0.00  0.00    +0.000 A 
ATOM     18  F   UNL     1      45.030   9.780  11.849  0.00  0.00    +0.000 F 
ATOM     19  C   UNL     1      44.589   7.505  11.411  0.00  0.00    +0.000 A 
ATOM     20  C   UNL     1      44.871   6.147  11.601  0.00  0.00    +0.000 A 
ATOM     21  C   UNL     1      45.946   5.834  12.456  0.00  0.00    +0.000 A 
BRANCH  20  22
ATOM     22  N   UNL     1      44.157   5.152  10.966  0.00  0.00    +0.000 N 
ATOM     23  C   UNL     1      43.023   4.448  11.588  0.00  0.00    +0.000 C 
ATOM     24  C   UNL     1      43.322   2.947  11.710  0.00  0.00    +0.000 C 
ATOM     25  O   UNL     1      43.688   2.380  10.440  0.00  0.00    +0.000 OA
ATOM     26  C   UNL     1      44.862   3.030   9.927  0.00  0.00    +0.000 C 
ATOM     27  C   UNL     1      44.637   4.539   9.717  0.00  0.00    +0.000 C 
ENDBRANCH  20  22
ENDBRANCH   1  15
TORSDOF 4
ENDMDL
MODEL 9
REMARK VINA RESULT:    -6.550      2.325      6.931
REMARK INTER + INTRA:          -8.714
REMARK INTER:                  -8.102
REMARK INTRA:                  -0.612
REMARK UNBOUND:                -0.633
REMARK  Name = 
REMARK  4 active torsions:
REMARK  status: ('A' for Active; 'I' for Inactive)
REMARK    1  A    between atoms: C_2  and  C_4
REMARK    2  A    between atoms: N_8  and  C_9
REMARK    3  A    between atoms: C_9  and  C_10
REMARK    4  A    between atoms: C_15  and  N_16
REMARK                            x       y       z     vdW  Elec       q    Type
REMARK                         _______ _______ _______ _____ _____    ______ ____
ROOT
ATOM      1  C   UNL     1      45.360   7.420  12.047  0.00  0.00    +0.000 C 
ENDROOT
BRANCH   1   6
ATOM      2  C   UNL     1      50.156   8.231  12.720  0.00  0.00    +0.000 A 
ATOM      3  C   UNL     1      49.217   8.671  11.821  0.00  0.00    +0.000 A 
ATOM      4  N   UNL     1      47.891   8.460  11.963  0.00  0.00    +0.000 NA
ATOM      5  C   UNL     1      47.490   7.769  13.044  0.00  0.00    +0.000 A 
ATOM      6  N   UNL     1      46.142   7.542  13.260  0.00  0.00    +0.000 N 
ATOM      7  N   UNL     1      48.333   7.270  13.959  0.00  0.00    +0.000 NA
ATOM      8  C   UNL     1      49.654   7.509  13.777  0.00  0.00    +0.000 A 
ATOM      9  H   UNL     1      46.067   6.767  13.907  0.00  0.00    +0.000 HD
BRANCH   2  11
ATOM     10  N   UNL     1      52.252   7.769  11.586  0.00  0.00    +0.000 N 
ATOM     11  C   UNL     1      51.599   8.461  12.570  0.00  0.00    +0.000 C 
ATOM     12  O   UNL     1      52.188   9.263  13.282  0.00  0.00    +0.000 OA
ATOM     13  H   UNL     1      53.227   8.009  11.444  0.00  0.00    +0.000 HD
ATOM     14  H   UNL     1      51.781   7.302  10.826  0.00  0.00    +0.000 HD
ENDBRANCH   2  11
ENDBRANCH   1   6
BRANCH   1  15
ATOM     15  C   UNL     1      44.906   5.990  11.863  0.00  0.00    +0.000 A 
ATOM     16  C   UNL     1      44.242   5.324  12.896  0.00  0.00    +0.000 A 
ATOM     17  C   UNL     1      43.762   4.042  12.684  0.00  0.00    +0.000 A 
ATOM     18  F   UNL     1      43.121   3.407  13.674  0.00  0.00    +0.000 F 
ATOM     19  C   UNL     1      43.925   3.401  11.457  0.00  0.00    +0.000 A 
ATOM     20  C   UNL     1      44.594   4.026  10.398  0.00  0.00    +0.000 A 
ATOM     21  C   UNL     1      45.079   5.328  10.632  0.00  0.00    +0.000 A 
BRANCH  20  22
ATOM     22  N   UNL     1      44.755   3.420   9.169  0.00  0.00    +0.000 N 
ATOM     23  C   UNL     1      44.706   1.961   8.974  0.00  0.00    +0.000 C 
ATOM     24  C   UNL     1      46.043   1.446   8.424  0.00  0.00    +0.000 C 
ATOM     25  O   UNL     1      46.422   2.146   7.226  0.00  0.00    +0.000 OA
ATOM     26  C   UNL     1      46.560   3.550   7.496  0.00  0.00    +0.000 C 
ATOM     27  C   UNL     1      45.244   4.170   8.001  0.00  0.00    +0.000 C 
ENDBRANCH  20  22
ENDBRANCH   1  15
TORSDOF 4
ENDMDL
