MODEL 1
REMARK VINA RESULT:    -9.333      0.000      0.000
REMARK INTER + INTRA:         -13.045
REMARK INTER:                 -12.062
REMARK INTRA:                  -0.983
REMARK UNBOUND:                -0.983
REMARK  Name = 
REMARK  6 active torsions:
REMARK  status: ('A' for Active; 'I' for Inactive)
REMARK    1  A    between atoms: C_1  and  O_2
REMARK    2  A    between atoms: O_2  and  C_3
REMARK    3  A    between atoms: C_7  and  C_8
REMARK    4  A    between atoms: C_12  and  C_13
REMARK    5  A    between atoms: C_13  and  N_14
REMARK    6  A    between atoms: C_18  and  C_19
REMARK                            x       y       z     vdW  Elec       q    Type
REMARK                         _______ _______ _______ _____ _____    ______ ____
ROOT
ATOM      1  C   UNL     1      43.900   5.110  11.150  0.00  0.00    +0.000 C 
ATOM      2  C   UNL     1      42.626   5.796  11.623  0.00  0.00    +0.000 C 
ATOM      3  C   UNL     1      42.731   4.310  11.700  0.00  0.00    +0.000 C 
ENDROOT
BRANCH   1   4
ATOM      4  N   UNL     1      44.185   5.109   9.700  0.00  0.00    +0.000 N 
ATOM      5  C   UNL     1      45.001   4.159   9.068  0.00  0.00    +0.000 A 
ATOM      6  C   UNL     1      45.023   2.813   9.423  0.00  0.00    +0.000 A 
ATOM      7  C   UNL     1      45.793   1.911   8.685  0.00  0.00    +0.000 A 
ATOM      8  C   UNL     1      46.533   2.367   7.599  0.00  0.00    +0.000 A 
ATOM      9  C   UNL     1      46.477   3.724   7.322  0.00  0.00    +0.000 A 
ATOM     10  N   UNL     1      45.724   4.614   8.021  0.00  0.00    +0.000 NA
ATOM     11  H   UNL     1      44.446   6.007   9.297  0.00  0.00    +0.000 HD
BRANCH   8  12
ATOM     12  C   UNL     1      47.359   1.414   6.823  0.00  0.00    +0.000 C 
ATOM     13  N   UNL     1      48.438   1.910   6.145  0.00  0.00    +0.000 N 
ATOM     14  O   UNL     1      47.065   0.227   6.761  0.00  0.00    +0.000 OA
ATOM     15  H   UNL     1      48.584   2.894   5.966  0.00  0.00    +0.000 HD
ATOM     16  H   UNL     1      48.922   1.256   5.542  0.00  0.00    +0.000 HD
ENDBRANCH   8  12
ENDBRANCH   1   4
BRANCH   1  21
ATOM     17  C   UNL     1      47.190   6.631  12.499  0.00  0.00    +0.000 A 
ATOM     18  C   UNL     1      47.406   5.833  13.627  0.00  0.00    +0.000 A 
ATOM     19  C   UNL     1      46.521   4.803  13.957  0.00  0.00    +0.000 A 
ATOM     20  C   UNL     1      45.396   4.564  13.166  0.00  0.00    +0.000 A 
ATOM     21  C   UNL     1      45.137   5.330  12.018  0.00  0.00    +0.000 A 
ATOM     22  C   UNL     1      46.058   6.340  11.705  0.00  0.00    +0.000 A 
BRANCH  17  27
ATOM     23  C   UNL     1      50.296   8.577  11.526  0.00  0.00    +0.000 A 
ATOM     24  C   UNL     1      49.761   9.855  11.542  0.00  0.00    +0.000 A 
ATOM     25  N   UNL     1      48.461  10.134  11.794  0.00  0.00    +0.000 NA
ATOM     26  C   UNL     1      47.661   9.077  12.081  0.00  0.00    +0.000 A 
ATOM     27  C   UNL     1      48.082   7.748  12.126  0.00  0.00    +0.000 A 
ATOM     28  C   UNL     1      49.437   7.522  11.819  0.00  0.00    +0.000 A 
BRANCH  23  30
ATOM     29  C   UNL     1      51.990   7.514  10.268  0.00  0.00    +0.000 C 
ATOM     30  O   UNL     1      51.632   8.462  11.270  0.00  0.00    +0.000 OA
ENDBRANCH  23  30
ENDBRANCH  17  27
ENDBRANCH   1  21
TORSDOF 5
ENDMDL
MODEL 2
REMARK VINA RESULT:    -9.267      2.717      4.188
REMARK INTER + INTRA:         -12.958
REMARK INTER:                 -12.108
REMARK INTRA:                  -0.850
REMARK UNBOUND:                -0.983
REMARK  Name = 
REMARK  6 active torsions:
REMARK  status: ('A' for Active; 'I' for Inactive)
REMARK    1  A    between atoms: C_1  and  O_2
REMARK    2  A    between atoms: O_2  and  C_3
REMARK    3  A    between atoms: C_7  and  C_8
REMARK    4  A    between atoms: C_12  and  C_13
REMARK    5  A    between atoms: C_13  and  N_14
REMARK    6  A    between atoms: C_18  and  C_19
REMARK                            x       y       z     vdW  Elec       q    Type
REMARK                         _______ _______ _______ _____ _____    ______ ____
ROOT
ATOM      1  C   UNL     1      43.888   5.141  11.154  0.00  0.00    +0.000 C 
ATOM      2  C   UNL     1      42.486   5.497  11.627  0.00  0.00    +0.000 C 
ATOM      3  C   UNL     1      42.990   4.105  11.809  0.00  0.00    +0.000 C 
ENDROOT
BRANCH   1   4
ATOM      4  N   UNL     1      44.136   5.098   9.699  0.00  0.00    +0.000 N 
ATOM      5  C   UNL     1      44.959   4.147   9.077  0.00  0.00    +0.000 A 
ATOM      6  C   UNL     1      45.024   2.815   9.476  0.00  0.00    +0.000 A 
ATOM      7  C   UNL     1      45.798   1.907   8.748  0.00  0.00    +0.000 A 
ATOM      8  C   UNL     1      46.498   2.344   7.627  0.00  0.00    +0.000 A 
ATOM      9  C   UNL     1      46.400   3.689   7.307  0.00  0.00    +0.000 A 
ATOM     10  N   UNL     1      45.642   4.584   7.996  0.00  0.00    +0.000 NA
ATOM     11  H   UNL     1      44.364   5.987   9.259  0.00  0.00    +0.000 HD
BRANCH   8  12
ATOM     12  C   UNL     1      47.327   1.386   6.863  0.00  0.00    +0.000 C 
ATOM     13  N   UNL     1      48.378   1.884   6.144  0.00  0.00    +0.000 N 
ATOM     14  O   UNL     1      47.059   0.191   6.844  0.00  0.00    +0.000 OA
ATOM     15  H   UNL     1      48.498   2.865   5.931  0.00  0.00    +0.000 HD
ATOM     16  H   UNL     1      48.863   1.222   5.550  0.00  0.00    +0.000 HD
ENDBRANCH   8  12
ENDBRANCH   1   4
BRANCH   1  21
ATOM     17  C   UNL     1      46.720   5.543  13.759  0.00  0.00    +0.000 A 
ATOM     18  C   UNL     1      47.208   6.811  13.423  0.00  0.00    +0.000 A 
ATOM     19  C   UNL     1      46.634   7.548  12.383  0.00  0.00    +0.000 A 
ATOM     20  C   UNL     1      45.569   7.020  11.653  0.00  0.00    +0.000 A 
ATOM     21  C   UNL     1      45.036   5.756  11.954  0.00  0.00    +0.000 A 
ATOM     22  C   UNL     1      45.621   5.054  13.018  0.00  0.00    +0.000 A 
BRANCH  17  27
ATOM     23  C   UNL     1      48.435   4.537  16.988  0.00  0.00    +0.000 A 
ATOM     24  C   UNL     1      48.511   3.170  16.772  0.00  0.00    +0.000 A 
ATOM     25  N   UNL     1      48.007   2.540  15.684  0.00  0.00    +0.000 NA
ATOM     26  C   UNL     1      47.426   3.328  14.746  0.00  0.00    +0.000 A 
ATOM     27  C   UNL     1      47.311   4.716  14.830  0.00  0.00    +0.000 A 
ATOM     28  C   UNL     1      47.823   5.305  16.002  0.00  0.00    +0.000 A 
BRANCH  23  30
ATOM     29  C   UNL     1      48.734   4.287  19.318  0.00  0.00    +0.000 C 
ATOM     30  O   UNL     1      49.007   5.023  18.128  0.00  0.00    +0.000 OA
ENDBRANCH  23  30
ENDBRANCH  17  27
ENDBRANCH   1  21
TORSDOF 5
ENDMDL
MODEL 3
REMARK VINA RESULT:    -8.650      2.763      3.940
REMARK INTER + INTRA:         -12.161
REMARK INTER:                 -11.400
REMARK INTRA:                  -0.762
REMARK UNBOUND:                -0.983
REMARK  Name = 
REMARK  6 active torsions:
REMARK  status: ('A' for Active; 'I' for Inactive)
REMARK    1  A    between atoms: C_1  and  O_2
REMARK    2  A    between atoms: O_2  and  C_3
REMARK    3  A    between atoms: C_7  and  C_8
REMARK    4  A    between atoms: C_12  and  C_13
REMARK    5  A    between atoms: C_13  and  N_14
REMARK    6  A    between atoms: C_18  and  C_19
REMARK                            x       y       z     vdW  Elec       q    Type
REMARK                         _______ _______ _______ _____ _____    ______ ____
ROOT
ATOM      1  C   UNL     1      43.885   4.966  11.317  0.00  0.00    +0.000 C 
ATOM      2  C   UNL     1      42.500   5.017  11.948  0.00  0.00    +0.000 C 
ATOM      3  C   UNL     1      43.344   3.801  12.129  0.00  0.00    +0.000 C 
ENDROOT
BRANCH   1   4
ATOM      4  N   UNL     1      43.970   4.872   9.846  0.00  0.00    +0.000 N 
ATOM      5  C   UNL     1      44.816   3.978   9.171  0.00  0.00    +0.000 A 
ATOM      6  C   UNL     1      45.068   2.683   9.613  0.00  0.00    +0.000 A 
ATOM      7  C   UNL     1      45.848   1.822   8.836  0.00  0.00    +0.000 A 
ATOM      8  C   UNL     1      46.366   2.269   7.624  0.00  0.00    +0.000 A 
ATOM      9  C   UNL     1      46.089   3.577   7.264  0.00  0.00    +0.000 A 
ATOM     10  N   UNL     1      45.322   4.426   8.000  0.00  0.00    +0.000 NA
ATOM     11  H   UNL     1      44.050   5.755   9.347  0.00  0.00    +0.000 HD
BRANCH   8  12
ATOM     12  C   UNL     1      47.202   1.361   6.806  0.00  0.00    +0.000 C 
ATOM     13  N   UNL     1      48.141   1.924   5.987  0.00  0.00    +0.000 N 
ATOM     14  O   UNL     1      47.034   0.148   6.835  0.00  0.00    +0.000 OA
ATOM     15  H   UNL     1      48.159   2.906   5.745  0.00  0.00    +0.000 HD
ATOM     16  H   UNL     1      48.625   1.289   5.365  0.00  0.00    +0.000 HD
ENDBRANCH   8  12
ENDBRANCH   1   4
BRANCH   1  21
ATOM     17  C   UNL     1      46.734   6.251  13.596  0.00  0.00    +0.000 A 
ATOM     18  C   UNL     1      46.933   7.533  13.072  0.00  0.00    +0.000 A 
ATOM     19  C   UNL     1      46.157   8.000  12.007  0.00  0.00    +0.000 A 
ATOM     20  C   UNL     1      45.178   7.183  11.441  0.00  0.00    +0.000 A 
ATOM     21  C   UNL     1      44.932   5.891  11.934  0.00  0.00    +0.000 A 
ATOM     22  C   UNL     1      45.713   5.465  13.019  0.00  0.00    +0.000 A 
BRANCH  17  27
ATOM     23  C   UNL     1      47.944   3.984  16.385  0.00  0.00    +0.000 A 
ATOM     24  C   UNL     1      49.005   4.752  16.838  0.00  0.00    +0.000 A 
ATOM     25  N   UNL     1      49.392   5.923  16.281  0.00  0.00    +0.000 NA
ATOM     26  C   UNL     1      48.654   6.367  15.234  0.00  0.00    +0.000 A 
ATOM     27  C   UNL     1      47.547   5.704  14.702  0.00  0.00    +0.000 A 
ATOM     28  C   UNL     1      47.218   4.475  15.304  0.00  0.00    +0.000 A 
BRANCH  23  30
ATOM     29  C   UNL     1      48.047   2.824  18.441  0.00  0.00    +0.000 C 
ATOM     30  O   UNL     1      47.669   2.833  17.066  0.00  0.00    +0.000 OA
ENDBRANCH  23  30
ENDBRANCH  17  27
ENDBRANCH   1  21
TORSDOF 5
ENDMDL
MODEL 4
REMARK VINA RESULT:    -7.847      2.120      2.742
REMARK INTER + INTRA:         -11.123
REMARK INTER:                 -10.849
REMARK INTRA:                  -0.274
REMARK UNBOUND:                -0.983
REMARK  Name = 
REMARK  6 active torsions:
REMARK  status: ('A' for Active; 'I' for Inactive)
REMARK    1  A    between atoms: C_1  and  O_2
REMARK    2  A    between atoms: O_2  and  C_3
REMARK    3  A    between atoms: C_7  and  C_8
REMARK    4  A    between atoms: C_12  and  C_13
REMARK    5  A    between atoms: C_13  and  N_14
REMARK    6  A    between atoms: C_18  and  C_19
REMARK                            x       y       z     vdW  Elec       q    Type
REMARK                         _______ _______ _______ _____ _____    ______ ____
ROOT
ATOM      1  C   UNL     1      44.023   5.420  11.216  0.00  0.00    +0.000 C 
ATOM      2  C   UNL     1      42.655   5.134  11.822  0.00  0.00    +0.000 C 
ATOM      3  C   UNL     1      43.803   4.237  12.144  0.00  0.00    +0.000 C 
ENDROOT
BRANCH   1   4
ATOM      4  N   UNL     1      44.192   5.206   9.765  0.00  0.00    +0.000 N 
ATOM      5  C   UNL     1      44.937   4.151   9.216  0.00  0.00    +0.000 A 
ATOM      6  C   UNL     1      44.960   2.869   9.757  0.00  0.00    +0.000 A 
ATOM      7  C   UNL     1      45.652   1.848   9.100  0.00  0.00    +0.000 A 
ATOM      8  C   UNL     1      46.313   2.123   7.907  0.00  0.00    +0.000 A 
ATOM      9  C   UNL     1      46.262   3.428   7.444  0.00  0.00    +0.000 A 
ATOM     10  N   UNL     1      45.584   4.432   8.063  0.00  0.00    +0.000 NA
ATOM     11  H   UNL     1      44.439   6.029   9.219  0.00  0.00    +0.000 HD
BRANCH   8  12
ATOM     12  C   UNL     1      47.056   1.046   7.216  0.00  0.00    +0.000 C 
ATOM     13  N   UNL     1      46.795  -0.245   7.582  0.00  0.00    +0.000 N 
ATOM     14  O   UNL     1      47.904   1.303   6.370  0.00  0.00    +0.000 OA
ATOM     15  H   UNL     1      46.296  -0.500   8.424  0.00  0.00    +0.000 HD
ATOM     16  H   UNL     1      47.390  -0.953   7.169  0.00  0.00    +0.000 HD
ENDBRANCH   8  12
ENDBRANCH   1   4
BRANCH   1  21
ATOM     17  C   UNL     1      46.595   7.659  13.042  0.00  0.00    +0.000 A 
ATOM     18  C   UNL     1      46.138   8.932  12.682  0.00  0.00    +0.000 A 
ATOM     19  C   UNL     1      45.007   9.086  11.875  0.00  0.00    +0.000 A 
ATOM     20  C   UNL     1      44.323   7.965  11.403  0.00  0.00    +0.000 A 
ATOM     21  C   UNL     1      44.735   6.665  11.740  0.00  0.00    +0.000 A 
ATOM     22  C   UNL     1      45.859   6.549  12.571  0.00  0.00    +0.000 A 
BRANCH  17  27
ATOM     23  C   UNL     1      50.025   8.142  14.584  0.00  0.00    +0.000 A 
ATOM     24  C   UNL     1      50.087   6.978  15.334  0.00  0.00    +0.000 A 
ATOM     25  N   UNL     1      49.086   6.072  15.420  0.00  0.00    +0.000 NA
ATOM     26  C   UNL     1      47.974   6.329  14.686  0.00  0.00    +0.000 A 
ATOM     27  C   UNL     1      47.799   7.446  13.869  0.00  0.00    +0.000 A 
ATOM     28  C   UNL     1      48.864   8.367  13.852  0.00  0.00    +0.000 A 
BRANCH  23  30
ATOM     29  C   UNL     1      51.069  10.073  15.458  0.00  0.00    +0.000 C 
ATOM     30  O   UNL     1      51.128   8.947  14.586  0.00  0.00    +0.000 OA
ENDBRANCH  23  30
ENDBRANCH  17  27
ENDBRANCH   1  21
TORSDOF 5
ENDMDL
MODEL 5
REMARK VINA RESULT:    -7.054      5.175      8.326
REMARK INTER + INTRA:         -10.099
REMARK INTER:                  -9.153
REMARK INTRA:                  -0.946
REMARK UNBOUND:                -0.983
REMARK  Name = 
REMARK  6 active torsions:
REMARK  status: ('A' for Active; 'I' for Inactive)
REMARK    1  A    between atoms: C_1  and  O_2
REMARK    2  A    between atoms: O_2  and  C_3
REMARK    3  A    between atoms: C_7  and  C_8
REMARK    4  A    between atoms: C_12  and  C_13
REMARK    5  A    between atoms: C_13  and  N_14
REMARK    6  A    between atoms: C_18  and  C_19
REMARK                            x       y       z     vdW  Elec       q    Type
REMARK                         _______ _______ _______ _____ _____    ______ ____
ROOT
ATOM      1  C   UNL     1      49.024   7.175  16.763  0.00  0.00    +0.000 C 
ATOM      2  C   UNL     1      48.399   8.398  17.419  0.00  0.00    +0.000 C 
ATOM      3  C   UNL     1      49.871   8.181  17.523  0.00  0.00    +0.000 C 
ENDROOT
BRANCH   1   4
ATOM      4  N   UNL     1      48.733   5.851  17.351  0.00  0.00    +0.000 N 
ATOM      5  C   UNL     1      49.649   4.789  17.367  0.00  0.00    +0.000 A 
ATOM      6  C   UNL     1      51.015   4.960  17.568  0.00  0.00    +0.000 A 
ATOM      7  C   UNL     1      51.850   3.844  17.664  0.00  0.00    +0.000 A 
ATOM      8  C   UNL     1      51.307   2.568  17.558  0.00  0.00    +0.000 A 
ATOM      9  C   UNL     1      49.942   2.479  17.337  0.00  0.00    +0.000 A 
ATOM     10  N   UNL     1      49.112   3.553  17.253  0.00  0.00    +0.000 NA
ATOM     11  H   UNL     1      47.838   5.438  17.097  0.00  0.00    +0.000 HD
BRANCH   8  12
ATOM     12  C   UNL     1      52.193   1.385  17.647  0.00  0.00    +0.000 C 
ATOM     13  N   UNL     1      51.651   0.216  18.104  0.00  0.00    +0.000 N 
ATOM     14  O   UNL     1      53.380   1.460  17.357  0.00  0.00    +0.000 OA
ATOM     15  H   UNL     1      50.760   0.157  18.578  0.00  0.00    +0.000 HD
ATOM     16  H   UNL     1      52.301  -0.546  18.253  0.00  0.00    +0.000 HD
ENDBRANCH   8  12
ENDBRANCH   1   4
BRANCH   1  21
ATOM     17  C   UNL     1      47.945   6.576  13.097  0.00  0.00    +0.000 A 
ATOM     18  C   UNL     1      48.986   7.209  12.409  0.00  0.00    +0.000 A 
ATOM     19  C   UNL     1      50.039   7.813  13.102  0.00  0.00    +0.000 A 
ATOM     20  C   UNL     1      50.059   7.805  14.496  0.00  0.00    +0.000 A 
ATOM     21  C   UNL     1      49.043   7.176  15.235  0.00  0.00    +0.000 A 
ATOM     22  C   UNL     1      48.015   6.560  14.508  0.00  0.00    +0.000 A 
BRANCH  17  27
ATOM     23  C   UNL     1      45.004   4.296  12.367  0.00  0.00    +0.000 A 
ATOM     24  C   UNL     1      44.732   4.707  11.072  0.00  0.00    +0.000 A 
ATOM     25  N   UNL     1      45.393   5.699  10.432  0.00  0.00    +0.000 NA
ATOM     26  C   UNL     1      46.406   6.288  11.115  0.00  0.00    +0.000 A 
ATOM     27  C   UNL     1      46.799   5.948  12.410  0.00  0.00    +0.000 A 
ATOM     28  C   UNL     1      46.047   4.933  13.032  0.00  0.00    +0.000 A 
BRANCH  23  30
ATOM     29  C   UNL     1      43.386   2.629  11.938  0.00  0.00    +0.000 C 
ATOM     30  O   UNL     1      44.257   3.268  12.867  0.00  0.00    +0.000 OA
ENDBRANCH  23  30
ENDBRANCH  17  27
ENDBRANCH   1  21
TORSDOF 5
ENDMDL
MODEL 6
REMARK VINA RESULT:    -6.927      3.405      8.113
REMARK INTER + INTRA:          -9.935
REMARK INTER:                  -8.959
REMARK INTRA:                  -0.975
REMARK UNBOUND:                -0.983
REMARK  Name = 
REMARK  6 active torsions:
REMARK  status: ('A' for Active; 'I' for Inactive)
REMARK    1  A    between atoms: C_1  and  O_2
REMARK    2  A    between atoms: O_2  and  C_3
REMARK    3  A    between atoms: C_7  and  C_8
REMARK    4  A    between atoms: C_12  and  C_13
REMARK    5  A    between atoms: C_13  and  N_14
REMARK    6  A    between atoms: C_18  and  C_19
REMARK                            x       y       z     vdW  Elec       q    Type
REMARK                         _______ _______ _______ _____ _____    ______ ____
ROOT
ATOM      1  C   UNL     1      49.141   8.416  12.599  0.00  0.00    +0.000 C 
ATOM      2  C   UNL     1      49.897   9.139  11.492  0.00  0.00    +0.000 C 
ATOM      3  C   UNL     1      50.160   7.692  11.736  0.00  0.00    +0.000 C 
ENDROOT
BRANCH   1   4
ATOM      4  N   UNL     1      49.465   8.766  13.997  0.00  0.00    +0.000 N 
ATOM      5  C   UNL     1      49.048   8.011  15.104  0.00  0.00    +0.000 A 
ATOM      6  C   UNL     1      48.988   6.621  15.103  0.00  0.00    +0.000 A 
ATOM      7  C   UNL     1      48.652   5.937  16.275  0.00  0.00    +0.000 A 
ATOM      8  C   UNL     1      48.379   6.655  17.435  0.00  0.00    +0.000 A 
ATOM      9  C   UNL     1      48.437   8.037  17.351  0.00  0.00    +0.000 A 
ATOM     10  N   UNL     1      48.775   8.719  16.223  0.00  0.00    +0.000 NA
ATOM     11  H   UNL     1      49.319   9.739  14.258  0.00  0.00    +0.000 HD
BRANCH   8  12
ATOM     12  C   UNL     1      48.011   5.932  18.673  0.00  0.00    +0.000 C 
ATOM     13  N   UNL     1      46.711   5.535  18.817  0.00  0.00    +0.000 N 
ATOM     14  O   UNL     1      48.836   5.729  19.556  0.00  0.00    +0.000 OA
ATOM     15  H   UNL     1      45.952   5.880  18.246  0.00  0.00    +0.000 HD
ATOM     16  H   UNL     1      46.466   5.137  19.716  0.00  0.00    +0.000 HD
ENDBRANCH   8  12
ENDBRANCH   1   4
BRANCH   1  21
ATOM     17  C   UNL     1      45.833   6.744  11.494  0.00  0.00    +0.000 A 
ATOM     18  C   UNL     1      44.901   7.692  11.929  0.00  0.00    +0.000 A 
ATOM     19  C   UNL     1      45.316   8.869  12.559  0.00  0.00    +0.000 A 
ATOM     20  C   UNL     1      46.673   9.108  12.775  0.00  0.00    +0.000 A 
ATOM     21  C   UNL     1      47.651   8.193  12.352  0.00  0.00    +0.000 A 
ATOM     22  C   UNL     1      47.199   7.035  11.702  0.00  0.00    +0.000 A 
BRANCH  17  27
ATOM     23  C   UNL     1      45.238   4.092   8.850  0.00  0.00    +0.000 A 
ATOM     24  C   UNL     1      44.603   3.145   9.637  0.00  0.00    +0.000 A 
ATOM     25  N   UNL     1      44.396   3.274  10.968  0.00  0.00    +0.000 NA
ATOM     26  C   UNL     1      44.817   4.432  11.535  0.00  0.00    +0.000 A 
ATOM     27  C   UNL     1      45.441   5.474  10.849  0.00  0.00    +0.000 A 
ATOM     28  C   UNL     1      45.659   5.262   9.475  0.00  0.00    +0.000 A 
BRANCH  23  30
ATOM     29  C   UNL     1      46.682   3.607   7.044  0.00  0.00    +0.000 C 
ATOM     30  O   UNL     1      45.355   3.821   7.517  0.00  0.00    +0.000 OA
ENDBRANCH  23  30
ENDBRANCH  17  27
ENDBRANCH   1  21
TORSDOF 5
ENDMDL
MODEL 7
REMARK VINA RESULT:    -6.802      3.208      7.096
REMARK INTER + INTRA:          -9.774
REMARK INTER:                  -9.738
REMARK INTRA:                  -0.036
REMARK UNBOUND:                -0.983
REMARK  Name = 
REMARK  6 active torsions:
REMARK  status: ('A' for Active; 'I' for Inactive)
REMARK    1  A    between atoms: C_1  and  O_2
REMARK    2  A    between atoms: O_2  and  C_3
REMARK    3  A    between atoms: C_7  and  C_8
REMARK    4  A    between atoms: C_12  and  C_13
REMARK    5  A    between atoms: C_13  and  N_14
REMARK    6  A    between atoms: C_18  and  C_19
REMARK                            x       y       z     vdW  Elec       q    Type
REMARK                         _______ _______ _______ _____ _____    ______ ____
ROOT
ATOM      1  C   UNL     1      46.234   7.778  12.136  0.00  0.00    +0.000 C 
ATOM      2  C   UNL     1      45.648   8.984  12.857  0.00  0.00    +0.000 C 
ATOM      3  C   UNL     1      46.321   9.173  11.541  0.00  0.00    +0.000 C 
ENDROOT
BRANCH   1   4
ATOM      4  N   UNL     1      47.432   7.141  12.719  0.00  0.00    +0.000 N 
ATOM      5  C   UNL     1      47.388   6.229  13.784  0.00  0.00    +0.000 A 
ATOM      6  C   UNL     1      46.385   5.275  13.933  0.00  0.00    +0.000 A 
ATOM      7  C   UNL     1      46.461   4.341  14.969  0.00  0.00    +0.000 A 
ATOM      8  C   UNL     1      47.541   4.372  15.846  0.00  0.00    +0.000 A 
ATOM      9  C   UNL     1      48.487   5.365  15.646  0.00  0.00    +0.000 A 
ATOM     10  N   UNL     1      48.437   6.274  14.636  0.00  0.00    +0.000 NA
ATOM     11  H   UNL     1      48.213   7.761  12.922  0.00  0.00    +0.000 HD
BRANCH   8  12
ATOM     12  C   UNL     1      47.616   3.391  16.951  0.00  0.00    +0.000 C 
ATOM     13  N   UNL     1      48.856   3.031  17.402  0.00  0.00    +0.000 N 
ATOM     14  O   UNL     1      46.603   2.889  17.423  0.00  0.00    +0.000 OA
ATOM     15  H   UNL     1      49.713   3.222  16.900  0.00  0.00    +0.000 HD
ATOM     16  H   UNL     1      48.880   2.284  18.085  0.00  0.00    +0.000 HD
ENDBRANCH   8  12
ENDBRANCH   1   4
BRANCH   1  21
ATOM     17  C   UNL     1      44.748   4.800  10.163  0.00  0.00    +0.000 A 
ATOM     18  C   UNL     1      43.407   4.867  10.557  0.00  0.00    +0.000 A 
ATOM     19  C   UNL     1      42.966   5.861  11.435  0.00  0.00    +0.000 A 
ATOM     20  C   UNL     1      43.866   6.798  11.943  0.00  0.00    +0.000 A 
ATOM     21  C   UNL     1      45.221   6.782  11.575  0.00  0.00    +0.000 A 
ATOM     22  C   UNL     1      45.624   5.785  10.674  0.00  0.00    +0.000 A 
BRANCH  17  27
ATOM     23  C   UNL     1      46.256   3.096   7.130  0.00  0.00    +0.000 A 
ATOM     24  C   UNL     1      46.126   1.779   7.539  0.00  0.00    +0.000 A 
ATOM     25  N   UNL     1      45.634   1.398   8.741  0.00  0.00    +0.000 NA
ATOM     26  C   UNL     1      45.217   2.392   9.565  0.00  0.00    +0.000 A 
ATOM     27  C   UNL     1      45.266   3.753   9.260  0.00  0.00    +0.000 A 
ATOM     28  C   UNL     1      45.821   4.083   8.009  0.00  0.00    +0.000 A 
BRANCH  23  30
ATOM     29  C   UNL     1      47.877   2.517   5.511  0.00  0.00    +0.000 C 
ATOM     30  O   UNL     1      46.755   3.316   5.878  0.00  0.00    +0.000 OA
ENDBRANCH  23  30
ENDBRANCH  17  27
ENDBRANCH   1  21
TORSDOF 5
ENDMDL
