MODEL 1
REMARK VINA RESULT:    -9.133      0.000      0.000
REMARK INTER + INTRA:         -13.064
REMARK INTER:                 -12.070
REMARK INTRA:                  -0.994
REMARK UNBOUND:                -0.994
REMARK  Name = 
REMARK  6 active torsions:
REMARK  status: ('A' for Active; 'I' for Inactive)
REMARK    1  A    between atoms: C_2  and  C_19
REMARK    2  A    between atoms: N_3  and  C_4
REMARK    3  A    between atoms: C_4  and  C_5
REMARK    4  A    between atoms: C_8  and  C_9
REMARK    5  A    between atoms: C_9  and  O_10
REMARK    6  A    between atoms: C_9  and  C_11
REMARK                            x       y       z     vdW  Elec       q    Type
REMARK                         _______ _______ _______ _____ _____    ______ ____
ROOT
ATOM      1  C   UNL     1      46.144   7.556  12.782  0.00  0.00    +0.000 C 
ENDROOT
BRANCH   1   2
ATOM      2  C   UNL     1      45.672   6.444  11.883  0.00  0.00    +0.000 A 
ATOM      3  C   UNL     1      46.094   6.391  10.550  0.00  0.00    +0.000 A 
ATOM      4  C   UNL     1      45.706   5.333   9.724  0.00  0.00    +0.000 A 
ATOM      5  C   UNL     1      44.877   4.310  10.207  0.00  0.00    +0.000 A 
ATOM      6  C   UNL     1      44.406   4.399  11.528  0.00  0.00    +0.000 A 
ATOM      7  C   UNL     1      44.796   5.456  12.355  0.00  0.00    +0.000 A 
BRANCH   5   8
ATOM      8  C   UNL     1      44.508   3.143   9.307  0.00  0.00    +0.000 C 
BRANCH   8   9
ATOM      9  C   UNL     1      45.549   2.725   8.269  0.00  0.00    +0.000 A 
ATOM     10  C   UNL     1      46.150   1.455   8.354  0.00  0.00    +0.000 A 
ATOM     11  C   UNL     1      47.042   1.010   7.374  0.00  0.00    +0.000 A 
ATOM     12  C   UNL     1      47.338   1.820   6.282  0.00  0.00    +0.000 A 
ATOM     13  C   UNL     1      46.744   3.074   6.170  0.00  0.00    +0.000 A 
ATOM     14  C   UNL     1      45.852   3.520   7.150  0.00  0.00    +0.000 A 
ENDBRANCH   8   9
BRANCH   8  15
ATOM     15  O   UNL     1      44.156   2.058  10.169  0.00  0.00    +0.000 OA
ATOM     16  H   UNL     1      44.987   1.627  10.427  0.00  0.00    +0.000 HD
ENDBRANCH   8  15
ENDBRANCH   5   8
ENDBRANCH   1   2
BRANCH   1  19
ATOM     17  O   UNL     1      48.878   6.878  12.990  0.00  0.00    +0.000 OA
ATOM     18  C   UNL     1      48.159   6.780  13.981  0.00  0.00    +0.000 C 
ATOM     19  N   UNL     1      46.817   7.048  13.947  0.00  0.00    +0.000 N 
ATOM     20  H   UNL     1      46.300   7.110  14.817  0.00  0.00    +0.000 HD
BRANCH  18  21
ATOM     21  C   UNL     1      48.689   6.309  15.268  0.00  0.00    +0.000 A 
ATOM     22  C   UNL     1      49.708   7.013  15.896  0.00  0.00    +0.000 A 
ATOM     23  S   UNL     1      50.206   6.325  17.375  0.00  0.00    +0.000 S 
ATOM     24  C   UNL     1      49.046   5.087  17.253  0.00  0.00    +0.000 A 
ATOM     25  N   UNL     1      48.909   4.160  18.239  0.00  0.00    +0.000 NA
ATOM     26  C   UNL     1      47.956   3.310  18.042  0.00  0.00    +0.000 A 
ATOM     27  N   UNL     1      47.142   3.293  16.939  0.00  0.00    +0.000 N 
ATOM     28  C   UNL     1      47.301   4.152  15.882  0.00  0.00    +0.000 A 
ATOM     29  O   UNL     1      46.656   4.008  14.848  0.00  0.00    +0.000 OA
ATOM     30  C   UNL     1      48.313   5.174  16.082  0.00  0.00    +0.000 A 
ATOM     31  H   UNL     1      46.440   2.576  16.827  0.00  0.00    +0.000 HD
ENDBRANCH  18  21
ENDBRANCH   1  19
TORSDOF 6
ENDMDL
MODEL 2
REMARK VINA RESULT:    -8.473      1.994      2.568
REMARK INTER + INTRA:         -12.191
REMARK INTER:                 -11.341
REMARK INTRA:                  -0.850
REMARK UNBOUND:                -0.994
REMARK  Name = 
REMARK  6 active torsions:
REMARK  status: ('A' for Active; 'I' for Inactive)
REMARK    1  A    between atoms: C_2  and  C_19
REMARK    2  A    between atoms: N_3  and  C_4
REMARK    3  A    between atoms: C_4  and  C_5
REMARK    4  A    between atoms: C_8  and  C_9
REMARK    5  A    between atoms: C_9  and  O_10
REMARK    6  A    between atoms: C_9  and  C_11
REMARK                            x       y       z     vdW  Elec       q    Type
REMARK                         _______ _______ _______ _____ _____    ______ ____
ROOT
ATOM      1  C   UNL     1      47.352   6.754  13.518  0.00  0.00    +0.000 C 
ENDROOT
BRANCH   1   2
ATOM      2  C   UNL     1      46.565   5.898  12.562  0.00  0.00    +0.000 A 
ATOM      3  C   UNL     1      46.305   6.352  11.264  0.00  0.00    +0.000 A 
ATOM      4  C   UNL     1      45.624   5.542  10.351  0.00  0.00    +0.000 A 
ATOM      5  C   UNL     1      45.176   4.265  10.718  0.00  0.00    +0.000 A 
ATOM      6  C   UNL     1      45.386   3.837  12.040  0.00  0.00    +0.000 A 
ATOM      7  C   UNL     1      46.069   4.647  12.953  0.00  0.00    +0.000 A 
BRANCH   5   8
ATOM      8  C   UNL     1      44.482   3.381   9.696  0.00  0.00    +0.000 C 
BRANCH   8   9
ATOM      9  C   UNL     1      45.351   2.833   8.565  0.00  0.00    +0.000 A 
ATOM     10  C   UNL     1      45.751   3.683   7.516  0.00  0.00    +0.000 A 
ATOM     11  C   UNL     1      46.613   3.236   6.511  0.00  0.00    +0.000 A 
ATOM     12  C   UNL     1      47.105   1.935   6.544  0.00  0.00    +0.000 A 
ATOM     13  C   UNL     1      46.735   1.081   7.579  0.00  0.00    +0.000 A 
ATOM     14  C   UNL     1      45.871   1.527   8.584  0.00  0.00    +0.000 A 
ENDBRANCH   8   9
BRANCH   8  15
ATOM     15  O   UNL     1      43.847   2.331  10.429  0.00  0.00    +0.000 OA
ATOM     16  H   UNL     1      42.917   2.320  10.149  0.00  0.00    +0.000 HD
ENDBRANCH   8  15
ENDBRANCH   5   8
ENDBRANCH   1   2
BRANCH   1  19
ATOM     17  O   UNL     1      49.666   6.598  15.130  0.00  0.00    +0.000 OA
ATOM     18  C   UNL     1      48.608   6.145  15.556  0.00  0.00    +0.000 C 
ATOM     19  N   UNL     1      47.455   6.144  14.817  0.00  0.00    +0.000 N 
ATOM     20  H   UNL     1      46.576   5.910  15.265  0.00  0.00    +0.000 HD
BRANCH  18  21
ATOM     21  C   UNL     1      48.522   5.515  16.881  0.00  0.00    +0.000 A 
ATOM     22  C   UNL     1      48.658   4.138  17.003  0.00  0.00    +0.000 A 
ATOM     23  S   UNL     1      48.525   3.576  18.607  0.00  0.00    +0.000 S 
ATOM     24  C   UNL     1      48.325   5.156  19.203  0.00  0.00    +0.000 A 
ATOM     25  N   UNL     1      48.198   5.388  20.538  0.00  0.00    +0.000 NA
ATOM     26  C   UNL     1      48.107   6.637  20.855  0.00  0.00    +0.000 A 
ATOM     27  N   UNL     1      48.111   7.672  19.956  0.00  0.00    +0.000 N 
ATOM     28  C   UNL     1      48.148   7.480  18.599  0.00  0.00    +0.000 A 
ATOM     29  O   UNL     1      47.995   8.419  17.824  0.00  0.00    +0.000 OA
ATOM     30  C   UNL     1      48.323   6.098  18.189  0.00  0.00    +0.000 A 
ATOM     31  H   UNL     1      47.995   8.625  20.267  0.00  0.00    +0.000 HD
ENDBRANCH  18  21
ENDBRANCH   1  19
TORSDOF 6
ENDMDL
MODEL 3
REMARK VINA RESULT:    -8.127      1.944      3.410
REMARK INTER + INTRA:         -11.734
REMARK INTER:                 -10.910
REMARK INTRA:                  -0.824
REMARK UNBOUND:                -0.994
REMARK  Name = 
REMARK  6 active torsions:
REMARK  status: ('A' for Active; 'I' for Inactive)
REMARK    1  A    between atoms: C_2  and  C_19
REMARK    2  A    between atoms: N_3  and  C_4
REMARK    3  A    between atoms: C_4  and  C_5
REMARK    4  A    between atoms: C_8  and  C_9
REMARK    5  A    between atoms: C_9  and  O_10
REMARK    6  A    between atoms: C_9  and  C_11
REMARK                            x       y       z     vdW  Elec       q    Type
REMARK                         _______ _______ _______ _____ _____    ______ ____
ROOT
ATOM      1  C   UNL     1      46.213   4.507  14.471  0.00  0.00    +0.000 C 
ENDROOT
BRANCH   1   2
ATOM      2  C   UNL     1      45.859   4.486  13.008  0.00  0.00    +0.000 A 
ATOM      3  C   UNL     1      46.125   5.600  12.205  0.00  0.00    +0.000 A 
ATOM      4  C   UNL     1      45.852   5.571  10.835  0.00  0.00    +0.000 A 
ATOM      5  C   UNL     1      45.296   4.429  10.237  0.00  0.00    +0.000 A 
ATOM      6  C   UNL     1      44.975   3.335  11.057  0.00  0.00    +0.000 A 
ATOM      7  C   UNL     1      45.250   3.364  12.428  0.00  0.00    +0.000 A 
BRANCH   5   8
ATOM      8  C   UNL     1      45.054   4.399   8.738  0.00  0.00    +0.000 C 
BRANCH   8   9
ATOM      9  C   UNL     1      45.783   3.312   7.950  0.00  0.00    +0.000 A 
ATOM     10  C   UNL     1      46.481   3.649   6.774  0.00  0.00    +0.000 A 
ATOM     11  C   UNL     1      47.227   2.695   6.077  0.00  0.00    +0.000 A 
ATOM     12  C   UNL     1      47.303   1.389   6.550  0.00  0.00    +0.000 A 
ATOM     13  C   UNL     1      46.633   1.036   7.718  0.00  0.00    +0.000 A 
ATOM     14  C   UNL     1      45.885   1.990   8.416  0.00  0.00    +0.000 A 
ENDBRANCH   8   9
BRANCH   8  15
ATOM     15  O   UNL     1      43.638   4.324   8.554  0.00  0.00    +0.000 OA
ATOM     16  H   UNL     1      43.490   3.829   7.733  0.00  0.00    +0.000 HD
ENDBRANCH   8  15
ENDBRANCH   5   8
ENDBRANCH   1   2
BRANCH   1  19
ATOM     17  O   UNL     1      48.374   4.482  16.289  0.00  0.00    +0.000 OA
ATOM     18  C   UNL     1      48.133   5.507  15.660  0.00  0.00    +0.000 C 
ATOM     19  N   UNL     1      47.077   5.610  14.794  0.00  0.00    +0.000 N 
ATOM     20  H   UNL     1      47.013   6.415  14.180  0.00  0.00    +0.000 HD
BRANCH  18  21
ATOM     21  C   UNL     1      48.937   6.724  15.839  0.00  0.00    +0.000 A 
ATOM     22  C   UNL     1      49.082   7.279  17.104  0.00  0.00    +0.000 A 
ATOM     23  S   UNL     1      50.040   8.688  17.130  0.00  0.00    +0.000 S 
ATOM     24  C   UNL     1      50.335   8.585  15.458  0.00  0.00    +0.000 A 
ATOM     25  N   UNL     1      51.141   9.487  14.834  0.00  0.00    +0.000 NA
ATOM     26  C   UNL     1      51.320   9.259  13.575  0.00  0.00    +0.000 A 
ATOM     27  N   UNL     1      50.751   8.222  12.881  0.00  0.00    +0.000 N 
ATOM     28  C   UNL     1      49.865   7.343  13.449  0.00  0.00    +0.000 A 
ATOM     29  O   UNL     1      49.259   6.525  12.763  0.00  0.00    +0.000 OA
ATOM     30  C   UNL     1      49.682   7.510  14.880  0.00  0.00    +0.000 A 
ATOM     31  H   UNL     1      50.900   8.123  11.888  0.00  0.00    +0.000 HD
ENDBRANCH  18  21
ENDBRANCH   1  19
TORSDOF 6
ENDMDL
MODEL 4
REMARK VINA RESULT:    -7.910      2.207      3.633
REMARK INTER + INTRA:         -11.447
REMARK INTER:                 -10.420
REMARK INTRA:                  -1.026
REMARK UNBOUND:                -0.994
REMARK  Name = 
REMARK  6 active torsions:
REMARK  status: ('A' for Active; 'I' for Inactive)
REMARK    1  A    between atoms: C_2  and  C_19
REMARK    2  A    between atoms: N_3  and  C_4
REMARK    3  A    between atoms: C_4  and  C_5
REMARK    4  A    between atoms: C_8  and  C_9
REMARK    5  A    between atoms: C_9  and  O_10
REMARK    6  A    between atoms: C_9  and  C_11
REMARK                            x       y       z     vdW  Elec       q    Type
REMARK                         _______ _______ _______ _____ _____    ______ ____
ROOT
ATOM      1  C   UNL     1      45.360   6.889  13.194  0.00  0.00    +0.000 C 
ENDROOT
BRANCH   1   2
ATOM      2  C   UNL     1      45.240   5.838  12.122  0.00  0.00    +0.000 A 
ATOM      3  C   UNL     1      44.882   4.528  12.459  0.00  0.00    +0.000 A 
ATOM      4  C   UNL     1      44.714   3.559  11.467  0.00  0.00    +0.000 A 
ATOM      5  C   UNL     1      44.913   3.874  10.114  0.00  0.00    +0.000 A 
ATOM      6  C   UNL     1      45.332   5.174   9.785  0.00  0.00    +0.000 A 
ATOM      7  C   UNL     1      45.498   6.143  10.779  0.00  0.00    +0.000 A 
BRANCH   5   8
ATOM      8  C   UNL     1      44.676   2.819   9.047  0.00  0.00    +0.000 C 
BRANCH   8   9
ATOM      9  C   UNL     1      45.799   2.610   8.032  0.00  0.00    +0.000 A 
ATOM     10  C   UNL     1      46.538   1.411   8.044  0.00  0.00    +0.000 A 
ATOM     11  C   UNL     1      47.514   1.154   7.077  0.00  0.00    +0.000 A 
ATOM     12  C   UNL     1      47.760   2.082   6.071  0.00  0.00    +0.000 A 
ATOM     13  C   UNL     1      47.032   3.268   6.031  0.00  0.00    +0.000 A 
ATOM     14  C   UNL     1      46.056   3.528   6.999  0.00  0.00    +0.000 A 
ENDBRANCH   8   9
BRANCH   8  15
ATOM     15  O   UNL     1      44.352   1.608   9.734  0.00  0.00    +0.000 OA
ATOM     16  H   UNL     1      45.116   1.392  10.292  0.00  0.00    +0.000 HD
ENDBRANCH   8  15
ENDBRANCH   5   8
ENDBRANCH   1   2
BRANCH   1  19
ATOM     17  O   UNL     1      47.336   5.462  14.620  0.00  0.00    +0.000 OA
ATOM     18  C   UNL     1      47.638   6.517  14.071  0.00  0.00    +0.000 C 
ATOM     19  N   UNL     1      46.726   7.287  13.399  0.00  0.00    +0.000 N 
ATOM     20  H   UNL     1      47.051   8.060  12.829  0.00  0.00    +0.000 HD
BRANCH  18  21
ATOM     21  C   UNL     1      49.003   7.058  14.148  0.00  0.00    +0.000 A 
ATOM     22  C   UNL     1      49.668   7.086  15.367  0.00  0.00    +0.000 A 
ATOM     23  S   UNL     1      51.236   7.750  15.277  0.00  0.00    +0.000 S 
ATOM     24  C   UNL     1      51.100   7.984  13.598  0.00  0.00    +0.000 A 
ATOM     25  N   UNL     1      52.137   8.491  12.877  0.00  0.00    +0.000 NA
ATOM     26  C   UNL     1      51.917   8.566  11.606  0.00  0.00    +0.000 A 
ATOM     27  N   UNL     1      50.746   8.197  10.995  0.00  0.00    +0.000 N 
ATOM     28  C   UNL     1      49.646   7.765  11.690  0.00  0.00    +0.000 A 
ATOM     29  O   UNL     1      48.570   7.592  11.126  0.00  0.00    +0.000 OA
ATOM     30  C   UNL     1      49.862   7.594  13.116  0.00  0.00    +0.000 A 
ATOM     31  H   UNL     1      50.623   8.319  10.001  0.00  0.00    +0.000 HD
ENDBRANCH  18  21
ENDBRANCH   1  19
TORSDOF 6
ENDMDL
MODEL 5
REMARK VINA RESULT:    -7.855      2.625      3.420
REMARK INTER + INTRA:         -11.375
REMARK INTER:                 -10.752
REMARK INTRA:                  -0.623
REMARK UNBOUND:                -0.994
REMARK  Name = 
REMARK  6 active torsions:
REMARK  status: ('A' for Active; 'I' for Inactive)
REMARK    1  A    between atoms: C_2  and  C_19
REMARK    2  A    between atoms: N_3  and  C_4
REMARK    3  A    between atoms: C_4  and  C_5
REMARK    4  A    between atoms: C_8  and  C_9
REMARK    5  A    between atoms: C_9  and  O_10
REMARK    6  A    between atoms: C_9  and  C_11
REMARK                            x       y       z     vdW  Elec       q    Type
REMARK                         _______ _______ _______ _____ _____    ______ ____
ROOT
ATOM      1  C   UNL     1      45.414   6.632  13.077  0.00  0.00    +0.000 C 
ENDROOT
BRANCH   1   2
ATOM      2  C   UNL     1      45.143   5.624  11.991  0.00  0.00    +0.000 A 
ATOM      3  C   UNL     1      45.532   5.889  10.674  0.00  0.00    +0.000 A 
ATOM      4  C   UNL     1      45.336   4.937   9.670  0.00  0.00    +0.000 A 
ATOM      5  C   UNL     1      44.734   3.703   9.958  0.00  0.00    +0.000 A 
ATOM      6  C   UNL     1      44.289   3.465  11.269  0.00  0.00    +0.000 A 
ATOM      7  C   UNL     1      44.488   4.418  12.274  0.00  0.00    +0.000 A 
BRANCH   5   8
ATOM      8  C   UNL     1      44.575   2.662   8.863  0.00  0.00    +0.000 C 
BRANCH   8   9
ATOM      9  C   UNL     1      45.742   2.512   7.888  0.00  0.00    +0.000 A 
ATOM     10  C   UNL     1      46.573   1.378   7.960  0.00  0.00    +0.000 A 
ATOM     11  C   UNL     1      47.596   1.170   7.031  0.00  0.00    +0.000 A 
ATOM     12  C   UNL     1      47.798   2.083   6.002  0.00  0.00    +0.000 A 
ATOM     13  C   UNL     1      46.980   3.205   5.902  0.00  0.00    +0.000 A 
ATOM     14  C   UNL     1      45.957   3.415   6.832  0.00  0.00    +0.000 A 
ENDBRANCH   8   9
BRANCH   8  15
ATOM     15  O   UNL     1      44.269   1.427   9.514  0.00  0.00    +0.000 OA
ATOM     16  H   UNL     1      45.077   1.148   9.975  0.00  0.00    +0.000 HD
ENDBRANCH   8  15
ENDBRANCH   5   8
ENDBRANCH   1   2
BRANCH   1  19
ATOM     17  O   UNL     1      47.939   5.498  13.639  0.00  0.00    +0.000 OA
ATOM     18  C   UNL     1      47.882   6.629  13.167  0.00  0.00    +0.000 C 
ATOM     19  N   UNL     1      46.696   7.263  12.909  0.00  0.00    +0.000 N 
ATOM     20  H   UNL     1      46.697   8.124  12.374  0.00  0.00    +0.000 HD
BRANCH  18  21
ATOM     21  C   UNL     1      49.099   7.409  12.898  0.00  0.00    +0.000 A 
ATOM     22  C   UNL     1      49.277   8.006  11.656  0.00  0.00    +0.000 A 
ATOM     23  S   UNL     1      50.743   8.865  11.513  0.00  0.00    +0.000 S 
ATOM     24  C   UNL     1      51.173   8.509  13.119  0.00  0.00    +0.000 A 
ATOM     25  N   UNL     1      52.324   8.994  13.658  0.00  0.00    +0.000 NA
ATOM     26  C   UNL     1      52.500   8.690  14.902  0.00  0.00    +0.000 A 
ATOM     27  N   UNL     1      51.638   7.929  15.648  0.00  0.00    +0.000 N 
ATOM     28  C   UNL     1      50.512   7.347  15.123  0.00  0.00    +0.000 A 
ATOM     29  O   UNL     1      49.849   6.549  15.779  0.00  0.00    +0.000 OA
ATOM     30  C   UNL     1      50.228   7.714  13.747  0.00  0.00    +0.000 A 
ATOM     31  H   UNL     1      51.854   7.694  16.605  0.00  0.00    +0.000 HD
ENDBRANCH  18  21
ENDBRANCH   1  19
TORSDOF 6
ENDMDL
MODEL 6
REMARK VINA RESULT:    -7.684      2.730      3.518
REMARK INTER + INTRA:         -11.148
REMARK INTER:                 -10.005
REMARK INTRA:                  -1.143
REMARK UNBOUND:                -0.994
REMARK  Name = 
REMARK  6 active torsions:
REMARK  status: ('A' for Active; 'I' for Inactive)
REMARK    1  A    between atoms: C_2  and  C_19
REMARK    2  A    between atoms: N_3  and  C_4
REMARK    3  A    between atoms: C_4  and  C_5
REMARK    4  A    between atoms: C_8  and  C_9
REMARK    5  A    between atoms: C_9  and  O_10
REMARK    6  A    between atoms: C_9  and  C_11
REMARK                            x       y       z     vdW  Elec       q    Type
REMARK                         _______ _______ _______ _____ _____    ______ ____
ROOT
ATOM      1  C   UNL     1      48.611   6.969  14.193  0.00  0.00    +0.000 C 
ENDROOT
BRANCH   1   2
ATOM      2  C   UNL     1      47.514   6.412  13.325  0.00  0.00    +0.000 A 
ATOM      3  C   UNL     1      47.091   7.114  12.192  0.00  0.00    +0.000 A 
ATOM      4  C   UNL     1      46.112   6.579  11.349  0.00  0.00    +0.000 A 
ATOM      5  C   UNL     1      45.526   5.335  11.627  0.00  0.00    +0.000 A 
ATOM      6  C   UNL     1      45.911   4.662  12.799  0.00  0.00    +0.000 A 
ATOM      7  C   UNL     1      46.891   5.197  13.640  0.00  0.00    +0.000 A 
BRANCH   5   8
ATOM      8  C   UNL     1      44.502   4.749  10.671  0.00  0.00    +0.000 C 
BRANCH   8   9
ATOM      9  C   UNL     1      45.043   3.871   9.544  0.00  0.00    +0.000 A 
ATOM     10  C   UNL     1      45.705   4.464   8.452  0.00  0.00    +0.000 A 
ATOM     11  C   UNL     1      46.284   3.684   7.447  0.00  0.00    +0.000 A 
ATOM     12  C   UNL     1      46.227   2.296   7.522  0.00  0.00    +0.000 A 
ATOM     13  C   UNL     1      45.591   1.688   8.600  0.00  0.00    +0.000 A 
ATOM     14  C   UNL     1      45.009   2.467   9.606  0.00  0.00    +0.000 A 
ENDBRANCH   8   9
BRANCH   8  15
ATOM     15  O   UNL     1      43.548   4.048  11.474  0.00  0.00    +0.000 OA
ATOM     16  H   UNL     1      43.629   3.108  11.246  0.00  0.00    +0.000 HD
ENDBRANCH   8  15
ENDBRANCH   5   8
ENDBRANCH   1   2
BRANCH   1  19
ATOM     17  O   UNL     1      50.265   5.935  16.235  0.00  0.00    +0.000 OA
ATOM     18  C   UNL     1      49.163   6.388  16.529  0.00  0.00    +0.000 C 
ATOM     19  N   UNL     1      48.288   6.867  15.591  0.00  0.00    +0.000 N 
ATOM     20  H   UNL     1      47.465   7.376  15.891  0.00  0.00    +0.000 HD
BRANCH  18  21
ATOM     21  C   UNL     1      48.683   6.396  17.918  0.00  0.00    +0.000 A 
ATOM     22  C   UNL     1      48.740   5.234  18.677  0.00  0.00    +0.000 A 
ATOM     23  S   UNL     1      48.137   5.419  20.261  0.00  0.00    +0.000 S 
ATOM     24  C   UNL     1      47.818   7.070  20.006  0.00  0.00    +0.000 A 
ATOM     25  N   UNL     1      47.320   7.848  21.006  0.00  0.00    +0.000 NA
ATOM     26  C   UNL     1      47.176   9.092  20.691  0.00  0.00    +0.000 A 
ATOM     27  N   UNL     1      47.467   9.625  19.461  0.00  0.00    +0.000 N 
ATOM     28  C   UNL     1      47.886   8.863  18.400  0.00  0.00    +0.000 A 
ATOM     29  O   UNL     1      47.988   9.347  17.277  0.00  0.00    +0.000 OA
ATOM     30  C   UNL     1      48.133   7.468  18.718  0.00  0.00    +0.000 A 
ATOM     31  H   UNL     1      47.293  10.599  19.267  0.00  0.00    +0.000 HD
ENDBRANCH  18  21
ENDBRANCH   1  19
TORSDOF 6
ENDMDL
MODEL 7
REMARK VINA RESULT:    -7.566      2.033      2.724
REMARK INTER + INTRA:         -10.992
REMARK INTER:                  -9.877
REMARK INTRA:                  -1.115
REMARK UNBOUND:                -0.994
REMARK  Name = 
REMARK  6 active torsions:
REMARK  status: ('A' for Active; 'I' for Inactive)
REMARK    1  A    between atoms: C_2  and  C_19
REMARK    2  A    between atoms: N_3  and  C_4
REMARK    3  A    between atoms: C_4  and  C_5
REMARK    4  A    between atoms: C_8  and  C_9
REMARK    5  A    between atoms: C_9  and  O_10
REMARK    6  A    between atoms: C_9  and  C_11
REMARK                            x       y       z     vdW  Elec       q    Type
REMARK                         _______ _______ _______ _____ _____    ______ ____
ROOT
ATOM      1  C   UNL     1      48.419   7.385  14.022  0.00  0.00    +0.000 C 
ENDROOT
BRANCH   1   2
ATOM      2  C   UNL     1      47.350   6.711  13.203  0.00  0.00    +0.000 A 
ATOM      3  C   UNL     1      46.737   7.396  12.148  0.00  0.00    +0.000 A 
ATOM      4  C   UNL     1      45.784   6.761  11.347  0.00  0.00    +0.000 A 
ATOM      5  C   UNL     1      45.414   5.430  11.589  0.00  0.00    +0.000 A 
ATOM      6  C   UNL     1      45.987   4.765  12.686  0.00  0.00    +0.000 A 
ATOM      7  C   UNL     1      46.942   5.401  13.486  0.00  0.00    +0.000 A 
BRANCH   5   8
ATOM      8  C   UNL     1      44.414   4.742  10.675  0.00  0.00    +0.000 C 
BRANCH   8   9
ATOM      9  C   UNL     1      44.993   3.862   9.569  0.00  0.00    +0.000 A 
ATOM     10  C   UNL     1      45.696   4.452   8.501  0.00  0.00    +0.000 A 
ATOM     11  C   UNL     1      46.309   3.669   7.518  0.00  0.00    +0.000 A 
ATOM     12  C   UNL     1      46.245   2.282   7.592  0.00  0.00    +0.000 A 
ATOM     13  C   UNL     1      45.568   1.676   8.647  0.00  0.00    +0.000 A 
ATOM     14  C   UNL     1      44.953   2.458   9.630  0.00  0.00    +0.000 A 
ENDBRANCH   8   9
BRANCH   8  15
ATOM     15  O   UNL     1      43.525   4.010  11.521  0.00  0.00    +0.000 OA
ATOM     16  H   UNL     1      44.075   3.413  12.054  0.00  0.00    +0.000 HD
ENDBRANCH   8  15
ENDBRANCH   5   8
ENDBRANCH   1   2
BRANCH   1  19
ATOM     17  O   UNL     1      49.616   8.784  16.163  0.00  0.00    +0.000 OA
ATOM     18  C   UNL     1      48.860   7.848  16.407  0.00  0.00    +0.000 C 
ATOM     19  N   UNL     1      48.277   7.095  15.424  0.00  0.00    +0.000 N 
ATOM     20  H   UNL     1      47.540   6.443  15.667  0.00  0.00    +0.000 HD
BRANCH  18  21
ATOM     21  C   UNL     1      48.573   7.435  17.788  0.00  0.00    +0.000 A 
ATOM     22  C   UNL     1      47.980   8.330  18.669  0.00  0.00    +0.000 A 
ATOM     23  S   UNL     1      47.724   7.689  20.228  0.00  0.00    +0.000 S 
ATOM     24  C   UNL     1      48.355   6.177  19.771  0.00  0.00    +0.000 A 
ATOM     25  N   UNL     1      48.386   5.139  20.650  0.00  0.00    +0.000 NA
ATOM     26  C   UNL     1      48.841   4.035  20.155  0.00  0.00    +0.000 A 
ATOM     27  N   UNL     1      49.286   3.884  18.867  0.00  0.00    +0.000 N 
ATOM     28  C   UNL     1      49.355   4.923  17.975  0.00  0.00    +0.000 A 
ATOM     29  O   UNL     1      49.901   4.785  16.884  0.00  0.00    +0.000 OA
ATOM     30  C   UNL     1      48.789   6.171  18.456  0.00  0.00    +0.000 A 
ATOM     31  H   UNL     1      49.669   3.004  18.554  0.00  0.00    +0.000 HD
ENDBRANCH  18  21
ENDBRANCH   1  19
TORSDOF 6
ENDMDL
MODEL 8
REMARK VINA RESULT:    -7.549      2.626      4.308
REMARK INTER + INTRA:         -10.971
REMARK INTER:                  -9.669
REMARK INTRA:                  -1.302
REMARK UNBOUND:                -0.994
REMARK  Name = 
REMARK  6 active torsions:
REMARK  status: ('A' for Active; 'I' for Inactive)
REMARK    1  A    between atoms: C_2  and  C_19
REMARK    2  A    between atoms: N_3  and  C_4
REMARK    3  A    between atoms: C_4  and  C_5
REMARK    4  A    between atoms: C_8  and  C_9
REMARK    5  A    between atoms: C_9  and  O_10
REMARK    6  A    between atoms: C_9  and  C_11
REMARK                            x       y       z     vdW  Elec       q    Type
REMARK                         _______ _______ _______ _____ _____    ______ ____
ROOT
ATOM      1  C   UNL     1      47.275   5.506  14.863  0.00  0.00    +0.000 C 
ENDROOT
BRANCH   1   2
ATOM      2  C   UNL     1      46.592   5.035  13.606  0.00  0.00    +0.000 A 
ATOM      3  C   UNL     1      46.312   3.677  13.426  0.00  0.00    +0.000 A 
ATOM      4  C   UNL     1      45.628   3.237  12.290  0.00  0.00    +0.000 A 
ATOM      5  C   UNL     1      45.219   4.144  11.300  0.00  0.00    +0.000 A 
ATOM      6  C   UNL     1      45.556   5.499  11.456  0.00  0.00    +0.000 A 
ATOM      7  C   UNL     1      46.238   5.939  12.595  0.00  0.00    +0.000 A 
BRANCH   5   8
ATOM      8  C   UNL     1      44.433   3.652  10.098  0.00  0.00    +0.000 C 
BRANCH   8   9
ATOM      9  C   UNL     1      45.248   3.130   8.915  0.00  0.00    +0.000 A 
ATOM     10  C   UNL     1      45.765   4.035   7.968  0.00  0.00    +0.000 A 
ATOM     11  C   UNL     1      46.584   3.599   6.923  0.00  0.00    +0.000 A 
ATOM     12  C   UNL     1      46.916   2.253   6.813  0.00  0.00    +0.000 A 
ATOM     13  C   UNL     1      46.428   1.342   7.746  0.00  0.00    +0.000 A 
ATOM     14  C   UNL     1      45.607   1.776   8.792  0.00  0.00    +0.000 A 
ENDBRANCH   8   9
BRANCH   8  15
ATOM     15  O   UNL     1      43.518   2.667  10.583  0.00  0.00    +0.000 OA
ATOM     16  H   UNL     1      42.841   2.553   9.896  0.00  0.00    +0.000 HD
ENDBRANCH   8  15
ENDBRANCH   5   8
ENDBRANCH   1   2
BRANCH   1  19
ATOM     17  O   UNL     1      49.821   6.192  15.875  0.00  0.00    +0.000 OA
ATOM     18  C   UNL     1      49.232   6.986  15.148  0.00  0.00    +0.000 C 
ATOM     19  N   UNL     1      47.978   6.744  14.654  0.00  0.00    +0.000 N 
ATOM     20  H   UNL     1      47.600   7.349  13.934  0.00  0.00    +0.000 HD
BRANCH  18  21
ATOM     21  C   UNL     1      49.818   8.289  14.801  0.00  0.00    +0.000 A 
ATOM     22  C   UNL     1      50.190   9.170  15.807  0.00  0.00    +0.000 A 
ATOM     23  S   UNL     1      50.846  10.634  15.228  0.00  0.00    +0.000 S 
ATOM     24  C   UNL     1      50.698  10.125  13.612  0.00  0.00    +0.000 A 
ATOM     25  N   UNL     1      51.129  10.914  12.590  0.00  0.00    +0.000 NA
ATOM     26  C   UNL     1      51.005  10.382  11.419  0.00  0.00    +0.000 A 
ATOM     27  N   UNL     1      50.471   9.142  11.178  0.00  0.00    +0.000 N 
ATOM     28  C   UNL     1      49.945   8.352  12.167  0.00  0.00    +0.000 A 
ATOM     29  O   UNL     1      49.339   7.320  11.896  0.00  0.00    +0.000 OA
ATOM     30  C   UNL     1      50.123   8.870  13.512  0.00  0.00    +0.000 A 
ATOM     31  H   UNL     1      50.365   8.801  10.234  0.00  0.00    +0.000 HD
ENDBRANCH  18  21
ENDBRANCH   1  19
TORSDOF 6
ENDMDL
