MODEL 1
REMARK VINA RESULT:    -9.032      0.000      0.000
REMARK INTER + INTRA:         -13.191
REMARK INTER:                 -12.200
REMARK INTRA:                  -0.991
REMARK UNBOUND:                -0.991
REMARK  Name = 
REMARK  6 active torsions:
REMARK  status: ('A' for Active; 'I' for Inactive)
REMARK    1  A    between atoms: C_2  and  C_3
REMARK    2  A    between atoms: C_6  and  C_7
REMARK    3  A    between atoms: C_9  and  C_10
REMARK    4  A    between atoms: C_10  and  N_11
REMARK    5  A    between atoms: N_11  and  C_12
REMARK    6  A    between atoms: C_15  and  C_16
REMARK                            x       y       z     vdW  Elec       q    Type
REMARK                         _______ _______ _______ _____ _____    ______ ____
ROOT
ATOM      1  C   UNL     1      43.771   5.375  11.280  0.00  0.00    +0.000 C 
ATOM      2  C   UNL     1      42.649   6.179  11.900  0.00  0.00    +0.000 C 
ATOM      3  C   UNL     1      42.653   4.701  12.078  0.00  0.00    +0.000 C 
ENDROOT
BRANCH   1   6
ATOM      4  C   UNL     1      47.264   6.564  12.312  0.00  0.00    +0.000 A 
ATOM      5  C   UNL     1      46.038   6.481  11.655  0.00  0.00    +0.000 A 
ATOM      6  C   UNL     1      45.145   5.439  11.935  0.00  0.00    +0.000 A 
ATOM      7  C   UNL     1      45.569   4.477  12.857  0.00  0.00    +0.000 A 
ATOM      8  C   UNL     1      46.792   4.627  13.483  0.00  0.00    +0.000 A 
ATOM      9  N   UNL     1      47.639   5.643  13.233  0.00  0.00    +0.000 NA
BRANCH   4  13
ATOM     10  C   UNL     1      50.149   9.664  11.529  0.00  0.00    +0.000 A 
ATOM     11  C   UNL     1      48.829  10.004  11.805  0.00  0.00    +0.000 A 
ATOM     12  C   UNL     1      47.884   9.002  12.068  0.00  0.00    +0.000 A 
ATOM     13  C   UNL     1      48.241   7.640  12.051  0.00  0.00    +0.000 A 
ATOM     14  C   UNL     1      49.586   7.326  11.774  0.00  0.00    +0.000 A 
ATOM     15  C   UNL     1      50.530   8.321  11.514  0.00  0.00    +0.000 A 
BRANCH  10  17
ATOM     16  N   UNL     1      51.894  11.514  11.049  0.00  0.00    +0.000 NA
ATOM     17  C   UNL     1      51.112  10.683  11.267  0.00  0.00    +0.000 C 
ENDBRANCH  10  17
ENDBRANCH   4  13
ENDBRANCH   1   6
BRANCH   1  18
ATOM     18  N   UNL     1      43.802   4.989   9.869  0.00  0.00    +0.000 N 
ATOM     19  H   UNL     1      43.212   5.522   9.239  0.00  0.00    +0.000 HD
BRANCH  18  20
ATOM     20  C   UNL     1      44.612   4.030   9.240  0.00  0.00    +0.000 A 
ATOM     21  C   UNL     1      45.499   4.503   8.258  0.00  0.00    +0.000 A 
ATOM     22  C   UNL     1      46.381   3.653   7.582  0.00  0.00    +0.000 A 
ATOM     23  C   UNL     1      46.391   2.287   7.867  0.00  0.00    +0.000 A 
ATOM     24  C   UNL     1      45.479   1.788   8.805  0.00  0.00    +0.000 A 
ATOM     25  C   UNL     1      44.601   2.650   9.473  0.00  0.00    +0.000 A 
ATOM     26  F   UNL     1      43.768   2.104  10.372  0.00  0.00    +0.000 F 
BRANCH  23  27
ATOM     27  C   UNL     1      47.343   1.337   7.226  0.00  0.00    +0.000 C 
ATOM     28  N   UNL     1      48.349   1.838   6.445  0.00  0.00    +0.000 N 
ATOM     29  O   UNL     1      47.246   0.128   7.396  0.00  0.00    +0.000 OA
ATOM     30  H   UNL     1      48.523   2.812   6.260  0.00  0.00    +0.000 HD
ATOM     31  H   UNL     1      48.990   1.165   6.043  0.00  0.00    +0.000 HD
ENDBRANCH  23  27
ENDBRANCH  18  20
ENDBRANCH   1  18
TORSDOF 6
ENDMDL
MODEL 2
REMARK VINA RESULT:    -8.612      2.404      4.101
REMARK INTER + INTRA:         -12.624
REMARK INTER:                 -12.358
REMARK INTRA:                  -0.266
REMARK UNBOUND:                -0.991
REMARK  Name = 
REMARK  6 active torsions:
REMARK  status: ('A' for Active; 'I' for Inactive)
REMARK    1  A    between atoms: C_2  and  C_3
REMARK    2  A    between atoms: C_6  and  C_7
REMARK    3  A    between atoms: C_9  and  C_10
REMARK    4  A    between atoms: C_10  and  N_11
REMARK    5  A    between atoms: N_11  and  C_12
REMARK    6  A    between atoms: C_15  and  C_16
REMARK                            x       y       z     vdW  Elec       q    Type
REMARK                         _______ _______ _______ _____ _____    ______ ____
ROOT
ATOM      1  C   UNL     1      43.903   4.964  11.540  0.00  0.00    +0.000 C 
ATOM      2  C   UNL     1      42.678   5.166  12.406  0.00  0.00    +0.000 C 
ATOM      3  C   UNL     1      43.328   3.826  12.387  0.00  0.00    +0.000 C 
ENDROOT
BRANCH   1   6
ATOM      4  C   UNL     1      47.006   5.767  13.640  0.00  0.00    +0.000 A 
ATOM      5  C   UNL     1      45.769   5.253  13.254  0.00  0.00    +0.000 A 
ATOM      6  C   UNL     1      45.218   5.575  12.006  0.00  0.00    +0.000 A 
ATOM      7  C   UNL     1      45.944   6.463  11.207  0.00  0.00    +0.000 A 
ATOM      8  C   UNL     1      47.171   6.925  11.646  0.00  0.00    +0.000 A 
ATOM      9  N   UNL     1      47.713   6.595  12.833  0.00  0.00    +0.000 NA
BRANCH   4  13
ATOM     10  C   UNL     1      48.842   4.928  17.443  0.00  0.00    +0.000 A 
ATOM     11  C   UNL     1      47.821   4.108  16.974  0.00  0.00    +0.000 A 
ATOM     12  C   UNL     1      47.222   4.369  15.734  0.00  0.00    +0.000 A 
ATOM     13  C   UNL     1      47.628   5.461  14.943  0.00  0.00    +0.000 A 
ATOM     14  C   UNL     1      48.668   6.270  15.441  0.00  0.00    +0.000 A 
ATOM     15  C   UNL     1      49.269   6.012  16.674  0.00  0.00    +0.000 A 
BRANCH  10  17
ATOM     16  N   UNL     1      49.951   4.439  19.730  0.00  0.00    +0.000 NA
ATOM     17  C   UNL     1      49.456   4.659  18.702  0.00  0.00    +0.000 C 
ENDBRANCH  10  17
ENDBRANCH   4  13
ENDBRANCH   1   6
BRANCH   1  18
ATOM     18  N   UNL     1      43.839   4.715  10.099  0.00  0.00    +0.000 N 
ATOM     19  H   UNL     1      43.152   5.247   9.575  0.00  0.00    +0.000 HD
BRANCH  18  20
ATOM     20  C   UNL     1      44.669   3.898   9.313  0.00  0.00    +0.000 A 
ATOM     21  C   UNL     1      45.490   4.551   8.378  0.00  0.00    +0.000 A 
ATOM     22  C   UNL     1      46.383   3.852   7.559  0.00  0.00    +0.000 A 
ATOM     23  C   UNL     1      46.471   2.463   7.648  0.00  0.00    +0.000 A 
ATOM     24  C   UNL     1      45.624   1.789   8.536  0.00  0.00    +0.000 A 
ATOM     25  C   UNL     1      44.734   2.501   9.349  0.00  0.00    +0.000 A 
ATOM     26  F   UNL     1      43.966   1.791  10.189  0.00  0.00    +0.000 F 
BRANCH  23  27
ATOM     27  C   UNL     1      47.441   1.664   6.846  0.00  0.00    +0.000 C 
ATOM     28  N   UNL     1      48.588   2.267   6.408  0.00  0.00    +0.000 N 
ATOM     29  O   UNL     1      47.232   0.485   6.587  0.00  0.00    +0.000 OA
ATOM     30  H   UNL     1      48.858   3.220   6.583  0.00  0.00    +0.000 HD
ATOM     31  H   UNL     1      49.234   1.689   5.884  0.00  0.00    +0.000 HD
ENDBRANCH  23  27
ENDBRANCH  18  20
ENDBRANCH   1  18
TORSDOF 6
ENDMDL
MODEL 3
REMARK VINA RESULT:    -7.921      1.645      2.059
REMARK INTER + INTRA:         -11.691
REMARK INTER:                 -11.282
REMARK INTRA:                  -0.409
REMARK UNBOUND:                -0.991
REMARK  Name = 
REMARK  6 active torsions:
REMARK  status: ('A' for Active; 'I' for Inactive)
REMARK    1  A    between atoms: C_2  and  C_3
REMARK    2  A    between atoms: C_6  and  C_7
REMARK    3  A    between atoms: C_9  and  C_10
REMARK    4  A    between atoms: C_10  and  N_11
REMARK    5  A    between atoms: N_11  and  C_12
REMARK    6  A    between atoms: C_15  and  C_16
REMARK                            x       y       z     vdW  Elec       q    Type
REMARK                         _______ _______ _______ _____ _____    ______ ____
ROOT
ATOM      1  C   UNL     1      43.957   5.201  11.522  0.00  0.00    +0.000 C 
ATOM      2  C   UNL     1      43.077   4.733  12.661  0.00  0.00    +0.000 C 
ATOM      3  C   UNL     1      44.406   4.087  12.471  0.00  0.00    +0.000 C 
ENDROOT
BRANCH   1   6
ATOM      4  C   UNL     1      46.645   7.873  12.081  0.00  0.00    +0.000 A 
ATOM      5  C   UNL     1      46.003   6.638  12.023  0.00  0.00    +0.000 A 
ATOM      6  C   UNL     1      44.653   6.549  11.661  0.00  0.00    +0.000 A 
ATOM      7  C   UNL     1      43.986   7.753  11.415  0.00  0.00    +0.000 A 
ATOM      8  C   UNL     1      44.687   8.942  11.476  0.00  0.00    +0.000 A 
ATOM      9  N   UNL     1      45.991   9.026  11.799  0.00  0.00    +0.000 NA
BRANCH   4  13
ATOM     10  C   UNL     1      50.799   8.307  13.131  0.00  0.00    +0.000 A 
ATOM     11  C   UNL     1      49.820   8.459  14.109  0.00  0.00    +0.000 A 
ATOM     12  C   UNL     1      48.466   8.313  13.777  0.00  0.00    +0.000 A 
ATOM     13  C   UNL     1      48.065   8.021  12.460  0.00  0.00    +0.000 A 
ATOM     14  C   UNL     1      49.077   7.866  11.493  0.00  0.00    +0.000 A 
ATOM     15  C   UNL     1      50.427   8.008  11.819  0.00  0.00    +0.000 A 
BRANCH  10  17
ATOM     16  N   UNL     1      53.299   8.568  13.749  0.00  0.00    +0.000 NA
ATOM     17  C   UNL     1      52.177   8.450  13.469  0.00  0.00    +0.000 C 
ENDBRANCH  10  17
ENDBRANCH   4  13
ENDBRANCH   1   6
BRANCH   1  18
ATOM     18  N   UNL     1      43.784   4.760  10.137  0.00  0.00    +0.000 N 
ATOM     19  H   UNL     1      42.973   5.116   9.644  0.00  0.00    +0.000 HD
BRANCH  18  20
ATOM     20  C   UNL     1      44.645   3.971   9.355  0.00  0.00    +0.000 A 
ATOM     21  C   UNL     1      45.505   4.659   8.481  0.00  0.00    +0.000 A 
ATOM     22  C   UNL     1      46.430   3.989   7.673  0.00  0.00    +0.000 A 
ATOM     23  C   UNL     1      46.513   2.598   7.711  0.00  0.00    +0.000 A 
ATOM     24  C   UNL     1      45.629   1.892   8.536  0.00  0.00    +0.000 A 
ATOM     25  C   UNL     1      44.707   2.574   9.339  0.00  0.00    +0.000 A 
ATOM     26  F   UNL     1      43.904   1.833  10.118  0.00  0.00    +0.000 F 
BRANCH  23  27
ATOM     27  C   UNL     1      47.515   1.828   6.919  0.00  0.00    +0.000 C 
ATOM     28  N   UNL     1      48.597   2.489   6.405  0.00  0.00    +0.000 N 
ATOM     29  O   UNL     1      47.389   0.624   6.734  0.00  0.00    +0.000 OA
ATOM     30  H   UNL     1      48.798   3.469   6.516  0.00  0.00    +0.000 HD
ATOM     31  H   UNL     1      49.268   1.931   5.891  0.00  0.00    +0.000 HD
ENDBRANCH  23  27
ENDBRANCH  18  20
ENDBRANCH   1  18
TORSDOF 6
ENDMDL
MODEL 4
REMARK VINA RESULT:    -6.766      4.514      6.477
REMARK INTER + INTRA:         -10.131
REMARK INTER:                  -9.159
REMARK INTRA:                  -0.972
REMARK UNBOUND:                -0.991
REMARK  Name = 
REMARK  6 active torsions:
REMARK  status: ('A' for Active; 'I' for Inactive)
REMARK    1  A    between atoms: C_2  and  C_3
REMARK    2  A    between atoms: C_6  and  C_7
REMARK    3  A    between atoms: C_9  and  C_10
REMARK    4  A    between atoms: C_10  and  N_11
REMARK    5  A    between atoms: N_11  and  C_12
REMARK    6  A    between atoms: C_15  and  C_16
REMARK                            x       y       z     vdW  Elec       q    Type
REMARK                         _______ _______ _______ _____ _____    ______ ____
ROOT
ATOM      1  C   UNL     1      47.778   7.984  13.286  0.00  0.00    +0.000 C 
ATOM      2  C   UNL     1      48.694   7.815  12.093  0.00  0.00    +0.000 C 
ATOM      3  C   UNL     1      48.109   9.158  12.362  0.00  0.00    +0.000 C 
ENDROOT
BRANCH   1   6
ATOM      4  C   UNL     1      49.805   6.985  16.381  0.00  0.00    +0.000 A 
ATOM      5  C   UNL     1      49.181   6.928  15.136  0.00  0.00    +0.000 A 
ATOM      6  C   UNL     1      48.406   8.000  14.674  0.00  0.00    +0.000 A 
ATOM      7  C   UNL     1      48.256   9.088  15.540  0.00  0.00    +0.000 A 
ATOM      8  C   UNL     1      48.914   9.085  16.755  0.00  0.00    +0.000 A 
ATOM      9  N   UNL     1      49.680   8.066  17.188  0.00  0.00    +0.000 NA
BRANCH   4  13
ATOM     10  C   UNL     1      52.164   3.733  17.930  0.00  0.00    +0.000 A 
ATOM     11  C   UNL     1      52.794   4.893  17.490  0.00  0.00    +0.000 A 
ATOM     12  C   UNL     1      52.033   5.959  16.990  0.00  0.00    +0.000 A 
ATOM     13  C   UNL     1      50.630   5.882  16.913  0.00  0.00    +0.000 A 
ATOM     14  C   UNL     1      50.020   4.698  17.372  0.00  0.00    +0.000 A 
ATOM     15  C   UNL     1      50.773   3.635  17.873  0.00  0.00    +0.000 A 
BRANCH  10  17
ATOM     16  N   UNL     1      53.566   1.765  18.858  0.00  0.00    +0.000 NA
ATOM     17  C   UNL     1      52.937   2.650  18.444  0.00  0.00    +0.000 C 
ENDBRANCH  10  17
ENDBRANCH   4  13
ENDBRANCH   1   6
BRANCH   1  18
ATOM     18  N   UNL     1      46.364   7.607  13.276  0.00  0.00    +0.000 N 
ATOM     19  H   UNL     1      45.703   8.314  13.578  0.00  0.00    +0.000 HD
BRANCH  18  20
ATOM     20  C   UNL     1      45.778   6.416  12.816  0.00  0.00    +0.000 A 
ATOM     21  C   UNL     1      45.009   6.507  11.643  0.00  0.00    +0.000 A 
ATOM     22  C   UNL     1      44.400   5.387  11.067  0.00  0.00    +0.000 A 
ATOM     23  C   UNL     1      44.538   4.133  11.662  0.00  0.00    +0.000 A 
ATOM     24  C   UNL     1      45.257   4.030  12.859  0.00  0.00    +0.000 A 
ATOM     25  C   UNL     1      45.860   5.159  13.426  0.00  0.00    +0.000 A 
ATOM     26  F   UNL     1      46.549   4.983  14.564  0.00  0.00    +0.000 F 
BRANCH  23  27
ATOM     27  C   UNL     1      43.963   2.892  11.068  0.00  0.00    +0.000 C 
ATOM     28  N   UNL     1      44.614   2.301  10.021  0.00  0.00    +0.000 N 
ATOM     29  O   UNL     1      42.935   2.394  11.510  0.00  0.00    +0.000 OA
ATOM     30  H   UNL     1      45.470   2.621   9.600  0.00  0.00    +0.000 HD
ATOM     31  H   UNL     1      44.207   1.448   9.656  0.00  0.00    +0.000 HD
ENDBRANCH  23  27
ENDBRANCH  18  20
ENDBRANCH   1  18
TORSDOF 6
ENDMDL
MODEL 5
REMARK VINA RESULT:    -6.662      4.496      6.504
REMARK INTER + INTRA:          -9.991
REMARK INTER:                  -9.151
REMARK INTRA:                  -0.840
REMARK UNBOUND:                -0.991
REMARK  Name = 
REMARK  6 active torsions:
REMARK  status: ('A' for Active; 'I' for Inactive)
REMARK    1  A    between atoms: C_2  and  C_3
REMARK    2  A    between atoms: C_6  and  C_7
REMARK    3  A    between atoms: C_9  and  C_10
REMARK    4  A    between atoms: C_10  and  N_11
REMARK    5  A    between atoms: N_11  and  C_12
REMARK    6  A    between atoms: C_15  and  C_16
REMARK                            x       y       z     vdW  Elec       q    Type
REMARK                         _______ _______ _______ _____ _____    ______ ____
ROOT
ATOM      1  C   UNL     1      47.734   8.014  13.329  0.00  0.00    +0.000 C 
ATOM      2  C   UNL     1      48.647   7.890  12.128  0.00  0.00    +0.000 C 
ATOM      3  C   UNL     1      48.046   9.217  12.436  0.00  0.00    +0.000 C 
ENDROOT
BRANCH   1   6
ATOM      4  C   UNL     1      49.764   6.943  16.397  0.00  0.00    +0.000 A 
ATOM      5  C   UNL     1      49.135   6.913  15.154  0.00  0.00    +0.000 A 
ATOM      6  C   UNL     1      48.367   8.000  14.715  0.00  0.00    +0.000 A 
ATOM      7  C   UNL     1      48.231   9.074  15.600  0.00  0.00    +0.000 A 
ATOM      8  C   UNL     1      48.893   9.043  16.812  0.00  0.00    +0.000 A 
ATOM      9  N   UNL     1      49.652   8.011  17.224  0.00  0.00    +0.000 NA
BRANCH   4  13
ATOM     10  C   UNL     1      52.099   3.642  17.880  0.00  0.00    +0.000 A 
ATOM     11  C   UNL     1      52.737   4.808  17.468  0.00  0.00    +0.000 A 
ATOM     12  C   UNL     1      51.984   5.890  16.990  0.00  0.00    +0.000 A 
ATOM     13  C   UNL     1      50.580   5.823  16.907  0.00  0.00    +0.000 A 
ATOM     14  C   UNL     1      49.962   4.632  17.337  0.00  0.00    +0.000 A 
ATOM     15  C   UNL     1      50.708   3.553  17.816  0.00  0.00    +0.000 A 
BRANCH  10  17
ATOM     16  N   UNL     1      53.485   1.645  18.768  0.00  0.00    +0.000 NA
ATOM     17  C   UNL     1      52.864   2.543  18.371  0.00  0.00    +0.000 C 
ENDBRANCH  10  17
ENDBRANCH   4  13
ENDBRANCH   1   6
BRANCH   1  18
ATOM     18  N   UNL     1      46.325   7.619  13.314  0.00  0.00    +0.000 N 
ATOM     19  H   UNL     1      45.670   8.254  13.759  0.00  0.00    +0.000 HD
BRANCH  18  20
ATOM     20  C   UNL     1      45.731   6.514  12.683  0.00  0.00    +0.000 A 
ATOM     21  C   UNL     1      46.103   5.245  13.160  0.00  0.00    +0.000 A 
ATOM     22  C   UNL     1      45.558   4.067  12.636  0.00  0.00    +0.000 A 
ATOM     23  C   UNL     1      44.624   4.129  11.602  0.00  0.00    +0.000 A 
ATOM     24  C   UNL     1      44.280   5.381  11.078  0.00  0.00    +0.000 A 
ATOM     25  C   UNL     1      44.834   6.551  11.611  0.00  0.00    +0.000 A 
ATOM     26  F   UNL     1      44.444   7.716  11.071  0.00  0.00    +0.000 F 
BRANCH  23  27
ATOM     27  C   UNL     1      43.965   2.917  11.039  0.00  0.00    +0.000 C 
ATOM     28  N   UNL     1      44.560   2.269   9.992  0.00  0.00    +0.000 N 
ATOM     29  O   UNL     1      42.915   2.491  11.505  0.00  0.00    +0.000 OA
ATOM     30  H   UNL     1      45.428   2.528   9.553  0.00  0.00    +0.000 HD
ATOM     31  H   UNL     1      44.095   1.437   9.648  0.00  0.00    +0.000 HD
ENDBRANCH  23  27
ENDBRANCH  18  20
ENDBRANCH   1  18
TORSDOF 6
ENDMDL
MODEL 6
REMARK VINA RESULT:    -6.569      5.569      8.677
REMARK INTER + INTRA:          -9.864
REMARK INTER:                  -8.823
REMARK INTRA:                  -1.041
REMARK UNBOUND:                -0.991
REMARK  Name = 
REMARK  6 active torsions:
REMARK  status: ('A' for Active; 'I' for Inactive)
REMARK    1  A    between atoms: C_2  and  C_3
REMARK    2  A    between atoms: C_6  and  C_7
REMARK    3  A    between atoms: C_9  and  C_10
REMARK    4  A    between atoms: C_10  and  N_11
REMARK    5  A    between atoms: N_11  and  C_12
REMARK    6  A    between atoms: C_15  and  C_16
REMARK                            x       y       z     vdW  Elec       q    Type
REMARK                         _______ _______ _______ _____ _____    ______ ____
ROOT
ATOM      1  C   UNL     1      48.905   5.858  18.119  0.00  0.00    +0.000 C 
ATOM      2  C   UNL     1      47.503   5.602  18.631  0.00  0.00    +0.000 C 
ATOM      3  C   UNL     1      48.181   6.875  19.005  0.00  0.00    +0.000 C 
ENDROOT
BRANCH   1   6
ATOM      4  C   UNL     1      48.259   6.239  14.361  0.00  0.00    +0.000 A 
ATOM      5  C   UNL     1      48.125   5.843  15.691  0.00  0.00    +0.000 A 
ATOM      6  C   UNL     1      49.075   6.220  16.649  0.00  0.00    +0.000 A 
ATOM      7  C   UNL     1      50.170   6.960  16.193  0.00  0.00    +0.000 A 
ATOM      8  C   UNL     1      50.233   7.331  14.863  0.00  0.00    +0.000 A 
ATOM      9  N   UNL     1      49.307   6.991  13.947  0.00  0.00    +0.000 NA
BRANCH   4  13
ATOM     10  C   UNL     1      45.402   5.112  11.343  0.00  0.00    +0.000 A 
ATOM     11  C   UNL     1      46.190   6.244  11.159  0.00  0.00    +0.000 A 
ATOM     12  C   UNL     1      47.127   6.614  12.133  0.00  0.00    +0.000 A 
ATOM     13  C   UNL     1      47.288   5.865  13.314  0.00  0.00    +0.000 A 
ATOM     14  C   UNL     1      46.481   4.720  13.470  0.00  0.00    +0.000 A 
ATOM     15  C   UNL     1      45.548   4.346  12.501  0.00  0.00    +0.000 A 
BRANCH  10  17
ATOM     16  N   UNL     1      43.677   4.426   9.540  0.00  0.00    +0.000 NA
ATOM     17  C   UNL     1      44.452   4.731  10.349  0.00  0.00    +0.000 C 
ENDBRANCH  10  17
ENDBRANCH   4  13
ENDBRANCH   1   6
BRANCH   1  18
ATOM     18  N   UNL     1      50.104   5.289  18.735  0.00  0.00    +0.000 N 
ATOM     19  H   UNL     1      50.452   5.752  19.567  0.00  0.00    +0.000 HD
BRANCH  18  20
ATOM     20  C   UNL     1      50.800   4.120  18.383  0.00  0.00    +0.000 A 
ATOM     21  C   UNL     1      52.156   4.064  18.745  0.00  0.00    +0.000 A 
ATOM     22  C   UNL     1      52.950   2.943  18.479  0.00  0.00    +0.000 A 
ATOM     23  C   UNL     1      52.402   1.839  17.826  0.00  0.00    +0.000 A 
ATOM     24  C   UNL     1      51.066   1.896  17.409  0.00  0.00    +0.000 A 
ATOM     25  C   UNL     1      50.284   3.025  17.681  0.00  0.00    +0.000 A 
ATOM     26  F   UNL     1      49.008   3.003  17.269  0.00  0.00    +0.000 F 
BRANCH  23  27
ATOM     27  C   UNL     1      53.176   0.592  17.563  0.00  0.00    +0.000 C 
ATOM     28  N   UNL     1      52.918  -0.516  18.323  0.00  0.00    +0.000 N 
ATOM     29  O   UNL     1      54.021   0.543  16.678  0.00  0.00    +0.000 OA
ATOM     30  H   UNL     1      52.234  -0.582  19.058  0.00  0.00    +0.000 HD
ATOM     31  H   UNL     1      53.447  -1.351  18.103  0.00  0.00    +0.000 HD
ENDBRANCH  23  27
ENDBRANCH  18  20
ENDBRANCH   1  18
TORSDOF 6
ENDMDL
MODEL 7
REMARK VINA RESULT:    -6.451      2.547      3.172
REMARK INTER + INTRA:          -9.706
REMARK INTER:                  -9.069
REMARK INTRA:                  -0.636
REMARK UNBOUND:                -0.991
REMARK  Name = 
REMARK  6 active torsions:
REMARK  status: ('A' for Active; 'I' for Inactive)
REMARK    1  A    between atoms: C_2  and  C_3
REMARK    2  A    between atoms: C_6  and  C_7
REMARK    3  A    between atoms: C_9  and  C_10
REMARK    4  A    between atoms: C_10  and  N_11
REMARK    5  A    between atoms: N_11  and  C_12
REMARK    6  A    between atoms: C_15  and  C_16
REMARK                            x       y       z     vdW  Elec       q    Type
REMARK                         _______ _______ _______ _____ _____    ______ ____
ROOT
ATOM      1  C   UNL     1      43.971   5.311  11.727  0.00  0.00    +0.000 C 
ATOM      2  C   UNL     1      42.523   5.557  11.357  0.00  0.00    +0.000 C 
ATOM      3  C   UNL     1      42.834   5.008  12.706  0.00  0.00    +0.000 C 
ENDROOT
BRANCH   1   6
ATOM      4  C   UNL     1      46.857   7.490  12.994  0.00  0.00    +0.000 A 
ATOM      5  C   UNL     1      46.031   6.389  12.775  0.00  0.00    +0.000 A 
ATOM      6  C   UNL     1      44.846   6.518  12.038  0.00  0.00    +0.000 A 
ATOM      7  C   UNL     1      44.521   7.801  11.588  0.00  0.00    +0.000 A 
ATOM      8  C   UNL     1      45.392   8.847  11.829  0.00  0.00    +0.000 A 
ATOM      9  N   UNL     1      46.544   8.718  12.514  0.00  0.00    +0.000 NA
BRANCH   4  13
ATOM     10  C   UNL     1      50.499   7.202  15.273  0.00  0.00    +0.000 A 
ATOM     11  C   UNL     1      50.465   7.984  14.122  0.00  0.00    +0.000 A 
ATOM     12  C   UNL     1      49.282   8.088  13.378  0.00  0.00    +0.000 A 
ATOM     13  C   UNL     1      48.113   7.407  13.766  0.00  0.00    +0.000 A 
ATOM     14  C   UNL     1      48.175   6.628  14.938  0.00  0.00    +0.000 A 
ATOM     15  C   UNL     1      49.351   6.523  15.684  0.00  0.00    +0.000 A 
BRANCH  10  17
ATOM     16  N   UNL     1      52.681   7.021  16.654  0.00  0.00    +0.000 NA
ATOM     17  C   UNL     1      51.701   7.100  16.034  0.00  0.00    +0.000 C 
ENDBRANCH  10  17
ENDBRANCH   4  13
ENDBRANCH   1   6
BRANCH   1  18
ATOM     18  N   UNL     1      44.719   4.125  11.309  0.00  0.00    +0.000 N 
ATOM     19  H   UNL     1      44.772   3.362  11.975  0.00  0.00    +0.000 HD
BRANCH  18  20
ATOM     20  C   UNL     1      45.306   3.854  10.062  0.00  0.00    +0.000 A 
ATOM     21  C   UNL     1      45.369   2.504   9.677  0.00  0.00    +0.000 A 
ATOM     22  C   UNL     1      45.901   2.108   8.445  0.00  0.00    +0.000 A 
ATOM     23  C   UNL     1      46.400   3.063   7.560  0.00  0.00    +0.000 A 
ATOM     24  C   UNL     1      46.394   4.409   7.946  0.00  0.00    +0.000 A 
ATOM     25  C   UNL     1      45.860   4.791   9.182  0.00  0.00    +0.000 A 
ATOM     26  F   UNL     1      45.871   6.100   9.478  0.00  0.00    +0.000 F 
BRANCH  23  27
ATOM     27  C   UNL     1      46.928   2.713   6.210  0.00  0.00    +0.000 C 
ATOM     28  N   UNL     1      48.275   2.538   6.055  0.00  0.00    +0.000 N 
ATOM     29  O   UNL     1      46.177   2.569   5.253  0.00  0.00    +0.000 OA
ATOM     30  H   UNL     1      48.969   2.616   6.780  0.00  0.00    +0.000 HD
ATOM     31  H   UNL     1      48.596   2.281   5.129  0.00  0.00    +0.000 HD
ENDBRANCH  23  27
ENDBRANCH  18  20
ENDBRANCH   1  18
TORSDOF 6
ENDMDL
MODEL 8
REMARK VINA RESULT:    -6.294      4.783      8.413
REMARK INTER + INTRA:          -9.493
REMARK INTER:                  -8.367
REMARK INTRA:                  -1.126
REMARK UNBOUND:                -0.991
REMARK  Name = 
REMARK  6 active torsions:
REMARK  status: ('A' for Active; 'I' for Inactive)
REMARK    1  A    between atoms: C_2  and  C_3
REMARK    2  A    between atoms: C_6  and  C_7
REMARK    3  A    between atoms: C_9  and  C_10
REMARK    4  A    between atoms: C_10  and  N_11
REMARK    5  A    between atoms: N_11  and  C_12
REMARK    6  A    between atoms: C_15  and  C_16
REMARK                            x       y       z     vdW  Elec       q    Type
REMARK                         _______ _______ _______ _____ _____    ______ ____
ROOT
ATOM      1  C   UNL     1      49.221   8.656  16.932  0.00  0.00    +0.000 C 
ATOM      2  C   UNL     1      48.148   9.657  17.305  0.00  0.00    +0.000 C 
ATOM      3  C   UNL     1      49.560  10.122  17.212  0.00  0.00    +0.000 C 
ENDROOT
BRANCH   1   6
ATOM      4  C   UNL     1      48.336   7.052  13.567  0.00  0.00    +0.000 A 
ATOM      5  C   UNL     1      48.286   7.411  14.913  0.00  0.00    +0.000 A 
ATOM      6  C   UNL     1      49.299   8.194  15.483  0.00  0.00    +0.000 A 
ATOM      7  C   UNL     1      50.366   8.545  14.652  0.00  0.00    +0.000 A 
ATOM      8  C   UNL     1      50.346   8.167  13.322  0.00  0.00    +0.000 A 
ATOM      9  N   UNL     1      49.360   7.437  12.768  0.00  0.00    +0.000 NA
BRANCH   4  13
ATOM     10  C   UNL     1      45.297   4.617  11.730  0.00  0.00    +0.000 A 
ATOM     11  C   UNL     1      45.739   5.769  11.087  0.00  0.00    +0.000 A 
ATOM     12  C   UNL     1      46.733   6.564  11.675  0.00  0.00    +0.000 A 
ATOM     13  C   UNL     1      47.297   6.227  12.920  0.00  0.00    +0.000 A 
ATOM     14  C   UNL     1      46.833   5.052  13.544  0.00  0.00    +0.000 A 
ATOM     15  C   UNL     1      45.846   4.255  12.961  0.00  0.00    +0.000 A 
BRANCH  10  17
ATOM     16  N   UNL     1      43.466   3.146  10.641  0.00  0.00    +0.000 NA
ATOM     17  C   UNL     1      44.289   3.804  11.130  0.00  0.00    +0.000 C 
ENDBRANCH  10  17
ENDBRANCH   4  13
ENDBRANCH   1   6
BRANCH   1  18
ATOM     18  N   UNL     1      49.818   7.721  17.888  0.00  0.00    +0.000 N 
ATOM     19  H   UNL     1      50.058   8.094  18.800  0.00  0.00    +0.000 HD
BRANCH  18  20
ATOM     20  C   UNL     1      50.026   6.339  17.748  0.00  0.00    +0.000 A 
ATOM     21  C   UNL     1      51.352   5.921  17.545  0.00  0.00    +0.000 A 
ATOM     22  C   UNL     1      51.693   4.569  17.424  0.00  0.00    +0.000 A 
ATOM     23  C   UNL     1      50.702   3.590  17.492  0.00  0.00    +0.000 A 
ATOM     24  C   UNL     1      49.368   3.989  17.642  0.00  0.00    +0.000 A 
ATOM     25  C   UNL     1      49.041   5.345  17.761  0.00  0.00    +0.000 A 
ATOM     26  F   UNL     1      47.745   5.653  17.919  0.00  0.00    +0.000 F 
BRANCH  23  27
ATOM     27  C   UNL     1      51.005   2.132  17.427  0.00  0.00    +0.000 C 
ATOM     28  N   UNL     1      52.007   1.631  18.212  0.00  0.00    +0.000 N 
ATOM     29  O   UNL     1      50.367   1.382  16.697  0.00  0.00    +0.000 OA
ATOM     30  H   UNL     1      52.573   2.159  18.855  0.00  0.00    +0.000 HD
ATOM     31  H   UNL     1      52.171   0.633  18.158  0.00  0.00    +0.000 HD
ENDBRANCH  23  27
ENDBRANCH  18  20
ENDBRANCH   1  18
TORSDOF 6
ENDMDL
MODEL 9
REMARK VINA RESULT:    -6.201      2.725      6.871
REMARK INTER + INTRA:          -9.368
REMARK INTER:                  -8.518
REMARK INTRA:                  -0.849
REMARK UNBOUND:                -0.991
REMARK  Name = 
REMARK  6 active torsions:
REMARK  status: ('A' for Active; 'I' for Inactive)
REMARK    1  A    between atoms: C_2  and  C_3
REMARK    2  A    between atoms: C_6  and  C_7
REMARK    3  A    between atoms: C_9  and  C_10
REMARK    4  A    between atoms: C_10  and  N_11
REMARK    5  A    between atoms: N_11  and  C_12
REMARK    6  A    between atoms: C_15  and  C_16
REMARK                            x       y       z     vdW  Elec       q    Type
REMARK                         _______ _______ _______ _____ _____    ______ ____
ROOT
ATOM      1  C   UNL     1      44.058   8.496  11.642  0.00  0.00    +0.000 C 
ATOM      2  C   UNL     1      42.955   9.498  11.375  0.00  0.00    +0.000 C 
ATOM      3  C   UNL     1      44.126   9.460  10.455  0.00  0.00    +0.000 C 
ENDROOT
BRANCH   1   6
ATOM      4  C   UNL     1      44.368   4.962  10.195  0.00  0.00    +0.000 A 
ATOM      5  C   UNL     1      44.586   6.319  10.423  0.00  0.00    +0.000 A 
ATOM      6  C   UNL     1      43.786   7.030  11.327  0.00  0.00    +0.000 A 
ATOM      7  C   UNL     1      42.745   6.325  11.937  0.00  0.00    +0.000 A 
ATOM      8  C   UNL     1      42.593   4.976  11.676  0.00  0.00    +0.000 A 
ATOM      9  N   UNL     1      43.378   4.286  10.828  0.00  0.00    +0.000 NA
BRANCH   4  13
ATOM     10  C   UNL     1      46.769   2.695   7.431  0.00  0.00    +0.000 A 
ATOM     11  C   UNL     1      45.938   2.031   8.328  0.00  0.00    +0.000 A 
ATOM     12  C   UNL     1      45.148   2.761   9.227  0.00  0.00    +0.000 A 
ATOM     13  C   UNL     1      45.180   4.168   9.251  0.00  0.00    +0.000 A 
ATOM     14  C   UNL     1      46.026   4.813   8.327  0.00  0.00    +0.000 A 
ATOM     15  C   UNL     1      46.813   4.090   7.429  0.00  0.00    +0.000 A 
BRANCH  10  17
ATOM     16  N   UNL     1      48.220   1.352   5.760  0.00  0.00    +0.000 NA
ATOM     17  C   UNL     1      47.569   1.953   6.512  0.00  0.00    +0.000 C 
ENDBRANCH  10  17
ENDBRANCH   4  13
ENDBRANCH   1   6
BRANCH   1  18
ATOM     18  N   UNL     1      45.115   8.706  12.632  0.00  0.00    +0.000 N 
ATOM     19  H   UNL     1      44.821   9.010  13.554  0.00  0.00    +0.000 HD
BRANCH  18  20
ATOM     20  C   UNL     1      46.492   8.457  12.510  0.00  0.00    +0.000 A 
ATOM     21  C   UNL     1      47.284   9.523  12.051  0.00  0.00    +0.000 A 
ATOM     22  C   UNL     1      48.673   9.411  11.917  0.00  0.00    +0.000 A 
ATOM     23  C   UNL     1      49.311   8.212  12.232  0.00  0.00    +0.000 A 
ATOM     24  C   UNL     1      48.532   7.121  12.641  0.00  0.00    +0.000 A 
ATOM     25  C   UNL     1      47.144   7.247  12.770  0.00  0.00    +0.000 A 
ATOM     26  F   UNL     1      46.465   6.166  13.184  0.00  0.00    +0.000 F 
BRANCH  23  27
ATOM     27  C   UNL     1      50.790   8.044  12.166  0.00  0.00    +0.000 C 
ATOM     28  N   UNL     1      51.505   8.035  13.332  0.00  0.00    +0.000 N 
ATOM     29  O   UNL     1      51.366   7.904  11.094  0.00  0.00    +0.000 OA
ATOM     30  H   UNL     1      51.124   8.124  14.260  0.00  0.00    +0.000 HD
ATOM     31  H   UNL     1      52.505   7.897  13.251  0.00  0.00    +0.000 HD
ENDBRANCH  23  27
ENDBRANCH  18  20
ENDBRANCH   1  18
TORSDOF 6
ENDMDL
