MODEL 1
REMARK VINA RESULT:    -9.030      0.000      0.000
REMARK INTER + INTRA:         -13.319
REMARK INTER:                 -12.198
REMARK INTRA:                  -1.122
REMARK UNBOUND:                -1.122
REMARK  Name = 
REMARK  6 active torsions:
REMARK  status: ('A' for Active; 'I' for Inactive)
REMARK    1  A    between atoms: C_2  and  C_4
REMARK    2  A    between atoms: C_7  and  N_8
REMARK    3  A    between atoms: N_8  and  C_9
REMARK    4  A    between atoms: C_9  and  C_10
REMARK    5  A    between atoms: C_10  and  C_13
REMARK    6  A    between atoms: C_17  and  C_18
REMARK                            x       y       z     vdW  Elec       q    Type
REMARK                         _______ _______ _______ _____ _____    ______ ____
ROOT
ATOM      1  C   UNL     1      43.301   5.101  12.481  0.00  0.00    +0.000 C 
ATOM      2  F   UNL     1      42.627   6.265  12.241  0.00  0.00    +0.000 F 
ATOM      3  F   UNL     1      42.666   4.539  13.558  0.00  0.00    +0.000 F 
ENDROOT
BRANCH   1   4
ATOM      4  C   UNL     1      44.772   5.355  12.758  0.00  0.00    +0.000 A 
ATOM      5  C   UNL     1      45.569   4.352  13.323  0.00  0.00    +0.000 A 
ATOM      6  C   UNL     1      46.921   4.583  13.565  0.00  0.00    +0.000 A 
ATOM      7  C   UNL     1      47.491   5.817  13.240  0.00  0.00    +0.000 A 
ATOM      8  C   UNL     1      46.732   6.848  12.656  0.00  0.00    +0.000 A 
ATOM      9  C   UNL     1      45.363   6.594  12.439  0.00  0.00    +0.000 A 
BRANCH   8  10
ATOM     10  C   UNL     1      47.356   8.130  12.255  0.00  0.00    +0.000 A 
ATOM     11  C   UNL     1      48.674   8.214  11.783  0.00  0.00    +0.000 A 
ATOM     12  C   UNL     1      49.232   9.447  11.438  0.00  0.00    +0.000 A 
ATOM     13  C   UNL     1      48.451  10.581  11.561  0.00  0.00    +0.000 A 
ATOM     14  N   UNL     1      47.180  10.561  12.001  0.00  0.00    +0.000 NA
ATOM     15  C   UNL     1      46.672   9.347  12.339  0.00  0.00    +0.000 A 
ENDBRANCH   8  10
ENDBRANCH   1   4
BRANCH   1  16
ATOM     16  C   UNL     1      43.110   4.151  11.270  0.00  0.00    +0.000 C 
BRANCH  16  17
ATOM     17  N   UNL     1      43.717   4.664  10.029  0.00  0.00    +0.000 N 
ATOM     18  H   UNL     1      43.091   5.211   9.441  0.00  0.00    +0.000 HD
BRANCH  17  22
ATOM     19  C   UNL     1      46.430   2.339   7.787  0.00  0.00    +0.000 A 
ATOM     20  C   UNL     1      46.430   3.727   7.644  0.00  0.00    +0.000 A 
ATOM     21  C   UNL     1      45.549   4.510   8.398  0.00  0.00    +0.000 A 
ATOM     22  C   UNL     1      44.675   3.937   9.329  0.00  0.00    +0.000 A 
ATOM     23  C   UNL     1      44.677   2.540   9.447  0.00  0.00    +0.000 A 
ATOM     24  C   UNL     1      45.540   1.743   8.682  0.00  0.00    +0.000 A 
BRANCH  19  26
ATOM     25  N   UNL     1      48.409   2.069   6.394  0.00  0.00    +0.000 N 
ATOM     26  C   UNL     1      47.320   1.474   6.970  0.00  0.00    +0.000 C 
ATOM     27  O   UNL     1      47.113   0.275   6.838  0.00  0.00    +0.000 OA
ATOM     28  H   UNL     1      49.059   1.454   5.920  0.00  0.00    +0.000 HD
ATOM     29  H   UNL     1      48.746   2.976   6.681  0.00  0.00    +0.000 HD
ENDBRANCH  19  26
ENDBRANCH  17  22
ENDBRANCH  16  17
ENDBRANCH   1  16
TORSDOF 6
ENDMDL
MODEL 2
REMARK VINA RESULT:    -8.857      2.338      3.660
REMARK INTER + INTRA:         -13.086
REMARK INTER:                 -11.932
REMARK INTRA:                  -1.154
REMARK UNBOUND:                -1.122
REMARK  Name = 
REMARK  6 active torsions:
REMARK  status: ('A' for Active; 'I' for Inactive)
REMARK    1  A    between atoms: C_2  and  C_4
REMARK    2  A    between atoms: C_7  and  N_8
REMARK    3  A    between atoms: N_8  and  C_9
REMARK    4  A    between atoms: C_9  and  C_10
REMARK    5  A    between atoms: C_10  and  C_13
REMARK    6  A    between atoms: C_17  and  C_18
REMARK                            x       y       z     vdW  Elec       q    Type
REMARK                         _______ _______ _______ _____ _____    ______ ____
ROOT
ATOM      1  C   UNL     1      43.836   4.694  12.425  0.00  0.00    +0.000 C 
ATOM      2  F   UNL     1      42.897   5.251  13.247  0.00  0.00    +0.000 F 
ATOM      3  F   UNL     1      43.709   3.341  12.605  0.00  0.00    +0.000 F 
ENDROOT
BRANCH   1   4
ATOM      4  C   UNL     1      45.234   5.183  12.762  0.00  0.00    +0.000 A 
ATOM      5  C   UNL     1      45.909   6.048  11.893  0.00  0.00    +0.000 A 
ATOM      6  C   UNL     1      47.186   6.505  12.210  0.00  0.00    +0.000 A 
ATOM      7  C   UNL     1      47.798   6.107  13.402  0.00  0.00    +0.000 A 
ATOM      8  C   UNL     1      47.149   5.254  14.313  0.00  0.00    +0.000 A 
ATOM      9  C   UNL     1      45.865   4.791  13.959  0.00  0.00    +0.000 A 
BRANCH   8  10
ATOM     10  C   UNL     1      47.775   4.888  15.604  0.00  0.00    +0.000 A 
ATOM     11  C   UNL     1      47.550   3.653  16.231  0.00  0.00    +0.000 A 
ATOM     12  C   UNL     1      48.141   3.358  17.461  0.00  0.00    +0.000 A 
ATOM     13  C   UNL     1      48.963   4.306  18.042  0.00  0.00    +0.000 A 
ATOM     14  N   UNL     1      49.220   5.504  17.486  0.00  0.00    +0.000 NA
ATOM     15  C   UNL     1      48.621   5.763  16.295  0.00  0.00    +0.000 A 
ENDBRANCH   8  10
ENDBRANCH   1   4
BRANCH   1  16
ATOM     16  C   UNL     1      43.466   5.014  10.953  0.00  0.00    +0.000 C 
BRANCH  16  17
ATOM     17  N   UNL     1      43.455   3.823  10.086  0.00  0.00    +0.000 N 
ATOM     18  H   UNL     1      42.948   3.024  10.463  0.00  0.00    +0.000 HD
BRANCH  17  22
ATOM     19  C   UNL     1      46.608   2.658   7.537  0.00  0.00    +0.000 A 
ATOM     20  C   UNL     1      46.238   4.002   7.607  0.00  0.00    +0.000 A 
ATOM     21  C   UNL     1      45.208   4.403   8.465  0.00  0.00    +0.000 A 
ATOM     22  C   UNL     1      44.547   3.487   9.290  0.00  0.00    +0.000 A 
ATOM     23  C   UNL     1      44.919   2.139   9.194  0.00  0.00    +0.000 A 
ATOM     24  C   UNL     1      45.936   1.722   8.324  0.00  0.00    +0.000 A 
BRANCH  19  26
ATOM     25  N   UNL     1      47.930   2.979   5.518  0.00  0.00    +0.000 N 
ATOM     26  C   UNL     1      47.665   2.191   6.604  0.00  0.00    +0.000 C 
ATOM     27  O   UNL     1      48.301   1.164   6.808  0.00  0.00    +0.000 OA
ATOM     28  H   UNL     1      48.716   2.702   4.942  0.00  0.00    +0.000 HD
ATOM     29  H   UNL     1      47.615   3.936   5.453  0.00  0.00    +0.000 HD
ENDBRANCH  19  26
ENDBRANCH  17  22
ENDBRANCH  16  17
ENDBRANCH   1  16
TORSDOF 6
ENDMDL
MODEL 3
REMARK VINA RESULT:    -8.268      2.323      3.366
REMARK INTER + INTRA:         -12.290
REMARK INTER:                 -11.161
REMARK INTRA:                  -1.130
REMARK UNBOUND:                -1.122
REMARK  Name = 
REMARK  6 active torsions:
REMARK  status: ('A' for Active; 'I' for Inactive)
REMARK    1  A    between atoms: C_2  and  C_4
REMARK    2  A    between atoms: C_7  and  N_8
REMARK    3  A    between atoms: N_8  and  C_9
REMARK    4  A    between atoms: C_9  and  C_10
REMARK    5  A    between atoms: C_10  and  C_13
REMARK    6  A    between atoms: C_17  and  C_18
REMARK                            x       y       z     vdW  Elec       q    Type
REMARK                         _______ _______ _______ _____ _____    ______ ____
ROOT
ATOM      1  C   UNL     1      44.632   4.998  12.446  0.00  0.00    +0.000 C 
ATOM      2  F   UNL     1      43.758   5.342  13.438  0.00  0.00    +0.000 F 
ATOM      3  F   UNL     1      44.780   3.640  12.558  0.00  0.00    +0.000 F 
ENDROOT
BRANCH   1   4
ATOM      4  C   UNL     1      45.956   5.728  12.592  0.00  0.00    +0.000 A 
ATOM      5  C   UNL     1      46.438   6.533  11.554  0.00  0.00    +0.000 A 
ATOM      6  C   UNL     1      47.646   7.211  11.694  0.00  0.00    +0.000 A 
ATOM      7  C   UNL     1      48.382   7.095  12.877  0.00  0.00    +0.000 A 
ATOM      8  C   UNL     1      47.928   6.310  13.952  0.00  0.00    +0.000 A 
ATOM      9  C   UNL     1      46.711   5.621  13.777  0.00  0.00    +0.000 A 
BRANCH   8  10
ATOM     10  C   UNL     1      48.680   6.243  15.227  0.00  0.00    +0.000 A 
ATOM     11  C   UNL     1      48.282   5.428  16.297  0.00  0.00    +0.000 A 
ATOM     12  C   UNL     1      49.005   5.413  17.491  0.00  0.00    +0.000 A 
ATOM     13  C   UNL     1      50.129   6.212  17.591  0.00  0.00    +0.000 A 
ATOM     14  N   UNL     1      50.562   7.009  16.597  0.00  0.00    +0.000 NA
ATOM     15  C   UNL     1      49.829   7.008  15.453  0.00  0.00    +0.000 A 
ENDBRANCH   8  10
ENDBRANCH   1   4
BRANCH   1  16
ATOM     16  C   UNL     1      43.974   5.292  11.073  0.00  0.00    +0.000 C 
BRANCH  16  17
ATOM     17  N   UNL     1      43.618   4.073  10.327  0.00  0.00    +0.000 N 
ATOM     18  H   UNL     1      43.054   3.403  10.847  0.00  0.00    +0.000 HD
BRANCH  17  22
ATOM     19  C   UNL     1      46.455   2.443   7.664  0.00  0.00    +0.000 A 
ATOM     20  C   UNL     1      45.667   1.590   8.438  0.00  0.00    +0.000 A 
ATOM     21  C   UNL     1      44.708   2.119   9.309  0.00  0.00    +0.000 A 
ATOM     22  C   UNL     1      44.491   3.498   9.407  0.00  0.00    +0.000 A 
ATOM     23  C   UNL     1      45.304   4.340   8.635  0.00  0.00    +0.000 A 
ATOM     24  C   UNL     1      46.281   3.824   7.774  0.00  0.00    +0.000 A 
BRANCH  19  26
ATOM     25  N   UNL     1      48.575   2.741   6.503  0.00  0.00    +0.000 N 
ATOM     26  C   UNL     1      47.513   1.918   6.763  0.00  0.00    +0.000 C 
ATOM     27  O   UNL     1      47.463   0.788   6.295  0.00  0.00    +0.000 OA
ATOM     28  H   UNL     1      49.334   2.339   5.968  0.00  0.00    +0.000 HD
ATOM     29  H   UNL     1      48.774   3.560   7.058  0.00  0.00    +0.000 HD
ENDBRANCH  19  26
ENDBRANCH  17  22
ENDBRANCH  16  17
ENDBRANCH   1  16
TORSDOF 6
ENDMDL
MODEL 4
REMARK VINA RESULT:    -8.193      1.738      2.508
REMARK INTER + INTRA:         -12.188
REMARK INTER:                 -11.569
REMARK INTRA:                  -0.620
REMARK UNBOUND:                -1.122
REMARK  Name = 
REMARK  6 active torsions:
REMARK  status: ('A' for Active; 'I' for Inactive)
REMARK    1  A    between atoms: C_2  and  C_4
REMARK    2  A    between atoms: C_7  and  N_8
REMARK    3  A    between atoms: N_8  and  C_9
REMARK    4  A    between atoms: C_9  and  C_10
REMARK    5  A    between atoms: C_10  and  C_13
REMARK    6  A    between atoms: C_17  and  C_18
REMARK                            x       y       z     vdW  Elec       q    Type
REMARK                         _______ _______ _______ _____ _____    ______ ____
ROOT
ATOM      1  C   UNL     1      44.329   4.319  12.307  0.00  0.00    +0.000 C 
ATOM      2  F   UNL     1      43.747   4.090  13.522  0.00  0.00    +0.000 F 
ATOM      3  F   UNL     1      45.235   3.302  12.150  0.00  0.00    +0.000 F 
ENDROOT
BRANCH   1   4
ATOM      4  C   UNL     1      44.992   5.684  12.255  0.00  0.00    +0.000 A 
ATOM      5  C   UNL     1      44.306   6.784  11.725  0.00  0.00    +0.000 A 
ATOM      6  C   UNL     1      44.911   8.037  11.690  0.00  0.00    +0.000 A 
ATOM      7  C   UNL     1      46.206   8.206  12.188  0.00  0.00    +0.000 A 
ATOM      8  C   UNL     1      46.926   7.133  12.744  0.00  0.00    +0.000 A 
ATOM      9  C   UNL     1      46.297   5.871  12.752  0.00  0.00    +0.000 A 
BRANCH   8  10
ATOM     10  C   UNL     1      48.272   7.331  13.330  0.00  0.00    +0.000 A 
ATOM     11  C   UNL     1      49.274   8.075  12.689  0.00  0.00    +0.000 A 
ATOM     12  C   UNL     1      50.538   8.216  13.265  0.00  0.00    +0.000 A 
ATOM     13  C   UNL     1      50.776   7.616  14.487  0.00  0.00    +0.000 A 
ATOM     14  N   UNL     1      49.853   6.897  15.152  0.00  0.00    +0.000 NA
ATOM     15  C   UNL     1      48.638   6.769  14.558  0.00  0.00    +0.000 A 
ENDBRANCH   8  10
ENDBRANCH   1   4
BRANCH   1  16
ATOM     16  C   UNL     1      43.254   4.171  11.199  0.00  0.00    +0.000 C 
BRANCH  16  17
ATOM     17  N   UNL     1      43.705   4.656   9.883  0.00  0.00    +0.000 N 
ATOM     18  H   UNL     1      42.999   5.158   9.347  0.00  0.00    +0.000 HD
BRANCH  17  22
ATOM     19  C   UNL     1      46.638   2.581   7.673  0.00  0.00    +0.000 A 
ATOM     20  C   UNL     1      45.707   1.864   8.428  0.00  0.00    +0.000 A 
ATOM     21  C   UNL     1      44.717   2.541   9.147  0.00  0.00    +0.000 A 
ATOM     22  C   UNL     1      44.611   3.936   9.110  0.00  0.00    +0.000 A 
ATOM     23  C   UNL     1      45.565   4.640   8.361  0.00  0.00    +0.000 A 
ATOM     24  C   UNL     1      46.573   3.975   7.652  0.00  0.00    +0.000 A 
BRANCH  19  26
ATOM     25  N   UNL     1      48.618   2.691   6.261  0.00  0.00    +0.000 N 
ATOM     26  C   UNL     1      47.730   1.897   6.934  0.00  0.00    +0.000 C 
ATOM     27  O   UNL     1      47.858   0.679   6.949  0.00  0.00    +0.000 OA
ATOM     28  H   UNL     1      49.411   2.221   5.841  0.00  0.00    +0.000 HD
ATOM     29  H   UNL     1      48.695   3.682   6.430  0.00  0.00    +0.000 HD
ENDBRANCH  19  26
ENDBRANCH  17  22
ENDBRANCH  16  17
ENDBRANCH   1  16
TORSDOF 6
ENDMDL
MODEL 5
REMARK VINA RESULT:    -7.969      1.651      2.584
REMARK INTER + INTRA:         -11.885
REMARK INTER:                 -10.939
REMARK INTRA:                  -0.946
REMARK UNBOUND:                -1.122
REMARK  Name = 
REMARK  6 active torsions:
REMARK  status: ('A' for Active; 'I' for Inactive)
REMARK    1  A    between atoms: C_2  and  C_4
REMARK    2  A    between atoms: C_7  and  N_8
REMARK    3  A    between atoms: N_8  and  C_9
REMARK    4  A    between atoms: C_9  and  C_10
REMARK    5  A    between atoms: C_10  and  C_13
REMARK    6  A    between atoms: C_17  and  C_18
REMARK                            x       y       z     vdW  Elec       q    Type
REMARK                         _______ _______ _______ _____ _____    ______ ____
ROOT
ATOM      1  C   UNL     1      45.153   5.240  12.309  0.00  0.00    +0.000 C 
ATOM      2  F   UNL     1      44.877   4.861  13.593  0.00  0.00    +0.000 F 
ATOM      3  F   UNL     1      46.067   4.323  11.858  0.00  0.00    +0.000 F 
ENDROOT
BRANCH   1   4
ATOM      4  C   UNL     1      45.693   6.658  12.249  0.00  0.00    +0.000 A 
ATOM      5  C   UNL     1      44.836   7.749  12.441  0.00  0.00    +0.000 A 
ATOM      6  C   UNL     1      45.335   9.048  12.398  0.00  0.00    +0.000 A 
ATOM      7  C   UNL     1      46.696   9.270  12.168  0.00  0.00    +0.000 A 
ATOM      8  C   UNL     1      47.595   8.204  11.988  0.00  0.00    +0.000 A 
ATOM      9  C   UNL     1      47.061   6.899  12.018  0.00  0.00    +0.000 A 
BRANCH   8  10
ATOM     10  C   UNL     1      49.047   8.442  11.811  0.00  0.00    +0.000 A 
ATOM     11  C   UNL     1      49.885   7.539  11.140  0.00  0.00    +0.000 A 
ATOM     12  C   UNL     1      51.253   7.791  11.017  0.00  0.00    +0.000 A 
ATOM     13  C   UNL     1      51.760   8.956  11.561  0.00  0.00    +0.000 A 
ATOM     14  N   UNL     1      51.005   9.862  12.209  0.00  0.00    +0.000 NA
ATOM     15  C   UNL     1      49.680   9.581  12.321  0.00  0.00    +0.000 A 
ENDBRANCH   8  10
ENDBRANCH   1   4
BRANCH   1  16
ATOM     16  C   UNL     1      43.868   5.088  11.454  0.00  0.00    +0.000 C 
BRANCH  16  17
ATOM     17  N   UNL     1      44.123   5.167  10.004  0.00  0.00    +0.000 N 
ATOM     18  H   UNL     1      43.410   5.662   9.471  0.00  0.00    +0.000 HD
BRANCH  17  22
ATOM     19  C   UNL     1      46.217   2.094   8.012  0.00  0.00    +0.000 A 
ATOM     20  C   UNL     1      45.225   1.765   8.936  0.00  0.00    +0.000 A 
ATOM     21  C   UNL     1      44.509   2.776   9.587  0.00  0.00    +0.000 A 
ATOM     22  C   UNL     1      44.741   4.128   9.313  0.00  0.00    +0.000 A 
ATOM     23  C   UNL     1      45.754   4.441   8.395  0.00  0.00    +0.000 A 
ATOM     24  C   UNL     1      46.491   3.438   7.752  0.00  0.00    +0.000 A 
BRANCH  19  26
ATOM     25  N   UNL     1      46.744  -0.254   7.645  0.00  0.00    +0.000 N 
ATOM     26  C   UNL     1      47.028   1.048   7.337  0.00  0.00    +0.000 C 
ATOM     27  O   UNL     1      47.891   1.328   6.515  0.00  0.00    +0.000 OA
ATOM     28  H   UNL     1      47.235  -0.959   7.109  0.00  0.00    +0.000 HD
ATOM     29  H   UNL     1      45.892  -0.528   8.111  0.00  0.00    +0.000 HD
ENDBRANCH  19  26
ENDBRANCH  17  22
ENDBRANCH  16  17
ENDBRANCH   1  16
TORSDOF 6
ENDMDL
MODEL 6
REMARK VINA RESULT:    -7.736      3.584      7.193
REMARK INTER + INTRA:         -11.571
REMARK INTER:                 -10.460
REMARK INTRA:                  -1.110
REMARK UNBOUND:                -1.122
REMARK  Name = 
REMARK  6 active torsions:
REMARK  status: ('A' for Active; 'I' for Inactive)
REMARK    1  A    between atoms: C_2  and  C_4
REMARK    2  A    between atoms: C_7  and  N_8
REMARK    3  A    between atoms: N_8  and  C_9
REMARK    4  A    between atoms: C_9  and  C_10
REMARK    5  A    between atoms: C_10  and  C_13
REMARK    6  A    between atoms: C_17  and  C_18
REMARK                            x       y       z     vdW  Elec       q    Type
REMARK                         _______ _______ _______ _____ _____    ______ ____
ROOT
ATOM      1  C   UNL     1      45.841   7.596  12.009  0.00  0.00    +0.000 C 
ATOM      2  F   UNL     1      45.359   7.961  13.234  0.00  0.00    +0.000 F 
ATOM      3  F   UNL     1      45.739   8.724  11.236  0.00  0.00    +0.000 F 
ENDROOT
BRANCH   1   4
ATOM      4  C   UNL     1      45.057   6.434  11.424  0.00  0.00    +0.000 A 
ATOM      5  C   UNL     1      43.708   6.255  11.753  0.00  0.00    +0.000 A 
ATOM      6  C   UNL     1      42.988   5.196  11.207  0.00  0.00    +0.000 A 
ATOM      7  C   UNL     1      43.607   4.309  10.321  0.00  0.00    +0.000 A 
ATOM      8  C   UNL     1      44.955   4.461   9.950  0.00  0.00    +0.000 A 
ATOM      9  C   UNL     1      45.666   5.530  10.531  0.00  0.00    +0.000 A 
BRANCH   8  10
ATOM     10  C   UNL     1      45.587   3.557   8.961  0.00  0.00    +0.000 A 
ATOM     11  C   UNL     1      46.243   4.030   7.815  0.00  0.00    +0.000 A 
ATOM     12  C   UNL     1      46.805   3.142   6.895  0.00  0.00    +0.000 A 
ATOM     13  C   UNL     1      46.709   1.786   7.146  0.00  0.00    +0.000 A 
ATOM     14  N   UNL     1      46.098   1.274   8.229  0.00  0.00    +0.000 NA
ATOM     15  C   UNL     1      45.552   2.165   9.098  0.00  0.00    +0.000 A 
ENDBRANCH   8  10
ENDBRANCH   1   4
BRANCH   1  16
ATOM     16  C   UNL     1      47.347   7.249  12.146  0.00  0.00    +0.000 C 
BRANCH  16  17
ATOM     17  N   UNL     1      47.847   7.372  13.527  0.00  0.00    +0.000 N 
ATOM     18  H   UNL     1      48.630   8.012  13.643  0.00  0.00    +0.000 HD
BRANCH  17  22
ATOM     19  C   UNL     1      47.764   4.233  16.344  0.00  0.00    +0.000 A 
ATOM     20  C   UNL     1      47.069   4.098  15.141  0.00  0.00    +0.000 A 
ATOM     21  C   UNL     1      47.108   5.124  14.190  0.00  0.00    +0.000 A 
ATOM     22  C   UNL     1      47.857   6.287  14.399  0.00  0.00    +0.000 A 
ATOM     23  C   UNL     1      48.533   6.413  15.621  0.00  0.00    +0.000 A 
ATOM     24  C   UNL     1      48.487   5.402  16.589  0.00  0.00    +0.000 A 
BRANCH  19  26
ATOM     25  N   UNL     1      48.855   2.952  18.104  0.00  0.00    +0.000 N 
ATOM     26  C   UNL     1      47.708   3.185  17.395  0.00  0.00    +0.000 C 
ATOM     27  O   UNL     1      46.677   2.573  17.645  0.00  0.00    +0.000 OA
ATOM     28  H   UNL     1      48.780   2.306  18.880  0.00  0.00    +0.000 HD
ATOM     29  H   UNL     1      49.633   3.595  18.102  0.00  0.00    +0.000 HD
ENDBRANCH  19  26
ENDBRANCH  17  22
ENDBRANCH  16  17
ENDBRANCH   1  16
TORSDOF 6
ENDMDL
MODEL 7
REMARK VINA RESULT:    -7.582      2.842      6.753
REMARK INTER + INTRA:         -11.363
REMARK INTER:                 -10.480
REMARK INTRA:                  -0.883
REMARK UNBOUND:                -1.122
REMARK  Name = 
REMARK  6 active torsions:
REMARK  status: ('A' for Active; 'I' for Inactive)
REMARK    1  A    between atoms: C_2  and  C_4
REMARK    2  A    between atoms: C_7  and  N_8
REMARK    3  A    between atoms: N_8  and  C_9
REMARK    4  A    between atoms: C_9  and  C_10
REMARK    5  A    between atoms: C_10  and  C_13
REMARK    6  A    between atoms: C_17  and  C_18
REMARK                            x       y       z     vdW  Elec       q    Type
REMARK                         _______ _______ _______ _____ _____    ______ ____
ROOT
ATOM      1  C   UNL     1      44.355   6.366  11.384  0.00  0.00    +0.000 C 
ATOM      2  F   UNL     1      43.121   6.946  11.296  0.00  0.00    +0.000 F 
ATOM      3  F   UNL     1      45.166   7.136  10.591  0.00  0.00    +0.000 F 
ENDROOT
BRANCH   1   4
ATOM      4  C   UNL     1      44.324   4.918  10.929  0.00  0.00    +0.000 A 
ATOM      5  C   UNL     1      43.499   3.991  11.577  0.00  0.00    +0.000 A 
ATOM      6  C   UNL     1      43.464   2.666  11.150  0.00  0.00    +0.000 A 
ATOM      7  C   UNL     1      44.247   2.255  10.068  0.00  0.00    +0.000 A 
ATOM      8  C   UNL     1      45.078   3.156   9.377  0.00  0.00    +0.000 A 
ATOM      9  C   UNL     1      45.109   4.487   9.841  0.00  0.00    +0.000 A 
BRANCH   8  10
ATOM     10  C   UNL     1      45.856   2.731   8.191  0.00  0.00    +0.000 A 
ATOM     11  C   UNL     1      46.072   3.570   7.088  0.00  0.00    +0.000 A 
ATOM     12  C   UNL     1      46.791   3.120   5.978  0.00  0.00    +0.000 A 
ATOM     13  C   UNL     1      47.295   1.833   5.997  0.00  0.00    +0.000 A 
ATOM     14  N   UNL     1      47.126   0.986   7.029  0.00  0.00    +0.000 NA
ATOM     15  C   UNL     1      46.412   1.451   8.087  0.00  0.00    +0.000 A 
ENDBRANCH   8  10
ENDBRANCH   1   4
BRANCH   1  16
ATOM     16  C   UNL     1      44.864   6.489  12.844  0.00  0.00    +0.000 C 
BRANCH  16  17
ATOM     17  N   UNL     1      45.561   7.760  13.110  0.00  0.00    +0.000 N 
ATOM     18  H   UNL     1      44.993   8.595  12.978  0.00  0.00    +0.000 HD
BRANCH  17  22
ATOM     19  C   UNL     1      49.633   8.074  12.054  0.00  0.00    +0.000 A 
ATOM     20  C   UNL     1      48.763   9.127  11.768  0.00  0.00    +0.000 A 
ATOM     21  C   UNL     1      47.415   9.043  12.133  0.00  0.00    +0.000 A 
ATOM     22  C   UNL     1      46.910   7.929  12.814  0.00  0.00    +0.000 A 
ATOM     23  C   UNL     1      47.794   6.873  13.077  0.00  0.00    +0.000 A 
ATOM     24  C   UNL     1      49.142   6.937  12.698  0.00  0.00    +0.000 A 
BRANCH  19  26
ATOM     25  N   UNL     1      51.449   7.225  10.673  0.00  0.00    +0.000 N 
ATOM     26  C   UNL     1      51.059   8.110  11.640  0.00  0.00    +0.000 C 
ATOM     27  O   UNL     1      51.850   8.915  12.114  0.00  0.00    +0.000 OA
ATOM     28  H   UNL     1      52.397   7.323  10.331  0.00  0.00    +0.000 HD
ATOM     29  H   UNL     1      50.789   6.733  10.090  0.00  0.00    +0.000 HD
ENDBRANCH  19  26
ENDBRANCH  17  22
ENDBRANCH  16  17
ENDBRANCH   1  16
TORSDOF 6
ENDMDL
MODEL 8
REMARK VINA RESULT:    -7.208      1.949      2.836
REMARK INTER + INTRA:         -10.857
REMARK INTER:                  -9.955
REMARK INTRA:                  -0.902
REMARK UNBOUND:                -1.122
REMARK  Name = 
REMARK  6 active torsions:
REMARK  status: ('A' for Active; 'I' for Inactive)
REMARK    1  A    between atoms: C_2  and  C_4
REMARK    2  A    between atoms: C_7  and  N_8
REMARK    3  A    between atoms: N_8  and  C_9
REMARK    4  A    between atoms: C_9  and  C_10
REMARK    5  A    between atoms: C_10  and  C_13
REMARK    6  A    between atoms: C_17  and  C_18
REMARK                            x       y       z     vdW  Elec       q    Type
REMARK                         _______ _______ _______ _____ _____    ______ ____
ROOT
ATOM      1  C   UNL     1      45.543   6.706  12.010  0.00  0.00    +0.000 C 
ATOM      2  F   UNL     1      45.370   7.425  10.861  0.00  0.00    +0.000 F 
ATOM      3  F   UNL     1      44.568   7.159  12.861  0.00  0.00    +0.000 F 
ENDROOT
BRANCH   1   4
ATOM      4  C   UNL     1      46.935   6.900  12.586  0.00  0.00    +0.000 A 
ATOM      5  C   UNL     1      47.239   6.433  13.871  0.00  0.00    +0.000 A 
ATOM      6  C   UNL     1      48.519   6.601  14.392  0.00  0.00    +0.000 A 
ATOM      7  C   UNL     1      49.509   7.232  13.633  0.00  0.00    +0.000 A 
ATOM      8  C   UNL     1      49.252   7.701  12.332  0.00  0.00    +0.000 A 
ATOM      9  C   UNL     1      47.944   7.534  11.835  0.00  0.00    +0.000 A 
BRANCH   8  10
ATOM     10  C   UNL     1      50.322   8.309  11.508  0.00  0.00    +0.000 A 
ATOM     11  C   UNL     1      50.486   9.697  11.387  0.00  0.00    +0.000 A 
ATOM     12  C   UNL     1      51.493  10.230  10.579  0.00  0.00    +0.000 A 
ATOM     13  C   UNL     1      52.332   9.357   9.911  0.00  0.00    +0.000 A 
ATOM     14  N   UNL     1      52.227   8.019   9.994  0.00  0.00    +0.000 NA
ATOM     15  C   UNL     1      51.230   7.534  10.779  0.00  0.00    +0.000 A 
ENDBRANCH   8  10
ENDBRANCH   1   4
BRANCH   1  16
ATOM     16  C   UNL     1      45.257   5.211  11.715  0.00  0.00    +0.000 C 
BRANCH  16  17
ATOM     17  N   UNL     1      44.565   4.995  10.432  0.00  0.00    +0.000 N 
ATOM     18  H   UNL     1      43.549   4.953  10.496  0.00  0.00    +0.000 HD
BRANCH  17  22
ATOM     19  C   UNL     1      46.453   2.650   7.477  0.00  0.00    +0.000 A 
ATOM     20  C   UNL     1      45.676   2.030   8.457  0.00  0.00    +0.000 A 
ATOM     21  C   UNL     1      45.028   2.800   9.429  0.00  0.00    +0.000 A 
ATOM     22  C   UNL     1      45.111   4.196   9.432  0.00  0.00    +0.000 A 
ATOM     23  C   UNL     1      45.911   4.801   8.450  0.00  0.00    +0.000 A 
ATOM     24  C   UNL     1      46.581   4.040   7.484  0.00  0.00    +0.000 A 
BRANCH  19  26
ATOM     25  N   UNL     1      47.878   2.563   5.505  0.00  0.00    +0.000 N 
ATOM     26  C   UNL     1      47.192   1.861   6.458  0.00  0.00    +0.000 C 
ATOM     27  O   UNL     1      47.218   0.637   6.481  0.00  0.00    +0.000 OA
ATOM     28  H   UNL     1      48.455   2.019   4.876  0.00  0.00    +0.000 HD
ATOM     29  H   UNL     1      48.086   3.546   5.601  0.00  0.00    +0.000 HD
ENDBRANCH  19  26
ENDBRANCH  17  22
ENDBRANCH  16  17
ENDBRANCH   1  16
TORSDOF 6
ENDMDL
