MODEL 1
REMARK VINA RESULT:    -9.423      0.000      0.000
REMARK INTER + INTRA:         -12.614
REMARK INTER:                 -12.728
REMARK INTRA:                   0.114
REMARK UNBOUND:                 0.114
REMARK  Name = 
REMARK  6 active torsions:
REMARK  status: ('A' for Active; 'I' for Inactive)
REMARK    1  A    between atoms: C_2  and  C_3
REMARK    2  A    between atoms: C_6  and  C_7
REMARK    3  A    between atoms: C_11  and  C_12
REMARK    4  A    between atoms: C_12  and  N_13
REMARK    5  A    between atoms: N_13  and  C_14
REMARK    6  A    between atoms: C_17  and  C_18
REMARK                            x       y       z     vdW  Elec       q    Type
REMARK                         _______ _______ _______ _____ _____    ______ ____
ROOT
ATOM      1  C   UNL     1      44.092   4.965  11.525  0.00  0.00    +0.000 C 
ATOM      2  C   UNL     1      42.943   5.141  12.501  0.00  0.00    +0.000 C 
ATOM      3  C   UNL     1      43.570   3.798  12.366  0.00  0.00    +0.000 C 
ENDROOT
BRANCH   1   8
ATOM      4  C   UNL     1      47.137   5.731  13.562  0.00  0.00    +0.000 A 
ATOM      5  C   UNL     1      47.893   6.554  12.734  0.00  0.00    +0.000 A 
ATOM      6  C   UNL     1      47.416   6.856  11.464  0.00  0.00    +0.000 A 
ATOM      7  C   UNL     1      46.192   6.338  11.056  0.00  0.00    +0.000 A 
ATOM      8  C   UNL     1      45.468   5.519  11.922  0.00  0.00    +0.000 A 
ATOM      9  N   UNL     1      45.956   5.205  13.154  0.00  0.00    +0.000 NA
BRANCH   4  13
ATOM     10  C   UNL     1      48.270   4.732  17.599  0.00  0.00    +0.000 A 
ATOM     11  C   UNL     1      48.813   5.859  16.979  0.00  0.00    +0.000 A 
ATOM     12  C   UNL     1      48.448   6.182  15.666  0.00  0.00    +0.000 A 
ATOM     13  C   UNL     1      47.538   5.390  14.943  0.00  0.00    +0.000 A 
ATOM     14  C   UNL     1      46.995   4.267  15.595  0.00  0.00    +0.000 A 
ATOM     15  C   UNL     1      47.357   3.936  16.907  0.00  0.00    +0.000 A 
BRANCH  10  17
ATOM     16  N   UNL     1      48.943   4.140  20.033  0.00  0.00    +0.000 NA
ATOM     17  C   UNL     1      48.644   4.402  18.941  0.00  0.00    +0.000 C 
ENDBRANCH  10  17
ENDBRANCH   4  13
ENDBRANCH   1   8
BRANCH   1  18
ATOM     18  N   UNL     1      43.903   4.803  10.070  0.00  0.00    +0.000 N 
ATOM     19  H   UNL     1      42.934   4.708   9.768  0.00  0.00    +0.000 HD
BRANCH  18  20
ATOM     20  C   UNL     1      44.668   3.972   9.248  0.00  0.00    +0.000 A 
ATOM     21  N   UNL     1      45.458   4.630   8.364  0.00  0.00    +0.000 NA
ATOM     22  C   UNL     1      46.321   3.900   7.607  0.00  0.00    +0.000 A 
ATOM     23  C   UNL     1      46.466   2.524   7.712  0.00  0.00    +0.000 A 
ATOM     24  C   UNL     1      45.631   1.851   8.594  0.00  0.00    +0.000 A 
ATOM     25  C   UNL     1      44.724   2.580   9.354  0.00  0.00    +0.000 A 
ATOM     26  F   UNL     1      43.936   1.890  10.189  0.00  0.00    +0.000 F 
BRANCH  23  27
ATOM     27  C   UNL     1      47.473   1.833   6.886  0.00  0.00    +0.000 C 
ATOM     28  N   UNL     1      48.543   2.569   6.457  0.00  0.00    +0.000 N 
ATOM     29  O   UNL     1      47.339   0.660   6.570  0.00  0.00    +0.000 OA
ATOM     30  H   UNL     1      48.576   3.578   6.499  0.00  0.00    +0.000 HD
ATOM     31  H   UNL     1      49.179   2.112   5.816  0.00  0.00    +0.000 HD
ENDBRANCH  23  27
ENDBRANCH  18  20
ENDBRANCH   1  18
TORSDOF 6
ENDMDL
MODEL 2
REMARK VINA RESULT:    -9.201      2.741      4.347
REMARK INTER + INTRA:         -12.314
REMARK INTER:                 -11.382
REMARK INTRA:                  -0.932
REMARK UNBOUND:                 0.114
REMARK  Name = 
REMARK  6 active torsions:
REMARK  status: ('A' for Active; 'I' for Inactive)
REMARK    1  A    between atoms: C_2  and  C_3
REMARK    2  A    between atoms: C_6  and  C_7
REMARK    3  A    between atoms: C_11  and  C_12
REMARK    4  A    between atoms: C_12  and  N_13
REMARK    5  A    between atoms: N_13  and  C_14
REMARK    6  A    between atoms: C_17  and  C_18
REMARK                            x       y       z     vdW  Elec       q    Type
REMARK                         _______ _______ _______ _____ _____    ______ ____
ROOT
ATOM      1  C   UNL     1      43.746   5.209  11.258  0.00  0.00    +0.000 C 
ATOM      2  C   UNL     1      43.020   6.530  11.077  0.00  0.00    +0.000 C 
ATOM      3  C   UNL     1      42.465   5.531  12.032  0.00  0.00    +0.000 C 
ENDROOT
BRANCH   1   8
ATOM      4  C   UNL     1      47.096   6.239  12.570  0.00  0.00    +0.000 A 
ATOM      5  C   UNL     1      47.437   5.217  13.450  0.00  0.00    +0.000 A 
ATOM      6  C   UNL     1      46.547   4.168  13.646  0.00  0.00    +0.000 A 
ATOM      7  C   UNL     1      45.343   4.160  12.950  0.00  0.00    +0.000 A 
ATOM      8  C   UNL     1      45.045   5.206  12.077  0.00  0.00    +0.000 A 
ATOM      9  N   UNL     1      45.910   6.244  11.913  0.00  0.00    +0.000 NA
BRANCH   4  13
ATOM     10  C   UNL     1      49.737   9.535  11.705  0.00  0.00    +0.000 A 
ATOM     11  C   UNL     1      48.357   9.741  11.767  0.00  0.00    +0.000 A 
ATOM     12  C   UNL     1      47.498   8.671  12.044  0.00  0.00    +0.000 A 
ATOM     13  C   UNL     1      47.994   7.373  12.263  0.00  0.00    +0.000 A 
ATOM     14  C   UNL     1      49.389   7.193  12.208  0.00  0.00    +0.000 A 
ATOM     15  C   UNL     1      50.253   8.258  11.929  0.00  0.00    +0.000 A 
BRANCH  10  17
ATOM     16  N   UNL     1      51.331  11.516  11.193  0.00  0.00    +0.000 NA
ATOM     17  C   UNL     1      50.614  10.630  11.421  0.00  0.00    +0.000 C 
ENDBRANCH  10  17
ENDBRANCH   4  13
ENDBRANCH   1   8
BRANCH   1  18
ATOM     18  N   UNL     1      43.622   4.079  10.316  0.00  0.00    +0.000 N 
ATOM     19  H   UNL     1      43.112   3.272  10.673  0.00  0.00    +0.000 HD
BRANCH  18  20
ATOM     20  C   UNL     1      44.655   3.586   9.513  0.00  0.00    +0.000 A 
ATOM     21  N   UNL     1      44.702   2.234   9.428  0.00  0.00    +0.000 NA
ATOM     22  C   UNL     1      45.603   1.675   8.576  0.00  0.00    +0.000 A 
ATOM     23  C   UNL     1      46.453   2.409   7.761  0.00  0.00    +0.000 A 
ATOM     24  C   UNL     1      46.424   3.794   7.877  0.00  0.00    +0.000 A 
ATOM     25  C   UNL     1      45.528   4.378   8.764  0.00  0.00    +0.000 A 
ATOM     26  F   UNL     1      45.537   5.715   8.846  0.00  0.00    +0.000 F 
BRANCH  23  27
ATOM     27  C   UNL     1      47.354   1.708   6.828  0.00  0.00    +0.000 C 
ATOM     28  N   UNL     1      48.366   2.438   6.269  0.00  0.00    +0.000 N 
ATOM     29  O   UNL     1      47.181   0.533   6.541  0.00  0.00    +0.000 OA
ATOM     30  H   UNL     1      48.405   3.447   6.297  0.00  0.00    +0.000 HD
ATOM     31  H   UNL     1      48.921   1.974   5.561  0.00  0.00    +0.000 HD
ENDBRANCH  23  27
ENDBRANCH  18  20
ENDBRANCH   1  18
TORSDOF 6
ENDMDL
MODEL 3
REMARK VINA RESULT:    -8.641      2.247      3.151
REMARK INTER + INTRA:         -11.558
REMARK INTER:                 -10.787
REMARK INTRA:                  -0.771
REMARK UNBOUND:                 0.114
REMARK  Name = 
REMARK  6 active torsions:
REMARK  status: ('A' for Active; 'I' for Inactive)
REMARK    1  A    between atoms: C_2  and  C_3
REMARK    2  A    between atoms: C_6  and  C_7
REMARK    3  A    between atoms: C_11  and  C_12
REMARK    4  A    between atoms: C_12  and  N_13
REMARK    5  A    between atoms: N_13  and  C_14
REMARK    6  A    between atoms: C_17  and  C_18
REMARK                            x       y       z     vdW  Elec       q    Type
REMARK                         _______ _______ _______ _____ _____    ______ ____
ROOT
ATOM      1  C   UNL     1      44.113   5.669  11.028  0.00  0.00    +0.000 C 
ATOM      2  C   UNL     1      44.035   7.176  10.870  0.00  0.00    +0.000 C 
ATOM      3  C   UNL     1      42.988   6.484  11.671  0.00  0.00    +0.000 C 
ENDROOT
BRANCH   1   8
ATOM      4  C   UNL     1      47.161   5.421  13.185  0.00  0.00    +0.000 A 
ATOM      5  C   UNL     1      47.139   4.107  13.643  0.00  0.00    +0.000 A 
ATOM      6  C   UNL     1      46.092   3.277  13.262  0.00  0.00    +0.000 A 
ATOM      7  C   UNL     1      45.100   3.774  12.425  0.00  0.00    +0.000 A 
ATOM      8  C   UNL     1      45.166   5.097  11.989  0.00  0.00    +0.000 A 
ATOM      9  N   UNL     1      46.179   5.913  12.391  0.00  0.00    +0.000 NA
BRANCH   4  13
ATOM     10  C   UNL     1      50.370   8.159  14.076  0.00  0.00    +0.000 A 
ATOM     11  C   UNL     1      49.693   7.512  15.113  0.00  0.00    +0.000 A 
ATOM     12  C   UNL     1      48.649   6.626  14.824  0.00  0.00    +0.000 A 
ATOM     13  C   UNL     1      48.254   6.366  13.499  0.00  0.00    +0.000 A 
ATOM     14  C   UNL     1      48.960   7.019  12.472  0.00  0.00    +0.000 A 
ATOM     15  C   UNL     1      50.004   7.909  12.753  0.00  0.00    +0.000 A 
BRANCH  10  17
ATOM     16  N   UNL     1      52.303   9.801  14.619  0.00  0.00    +0.000 NA
ATOM     17  C   UNL     1      51.437   9.065  14.372  0.00  0.00    +0.000 C 
ENDBRANCH  10  17
ENDBRANCH   4  13
ENDBRANCH   1   8
BRANCH   1  18
ATOM     18  N   UNL     1      43.664   4.720   9.990  0.00  0.00    +0.000 N 
ATOM     19  H   UNL     1      42.856   4.152  10.244  0.00  0.00    +0.000 HD
BRANCH  18  20
ATOM     20  C   UNL     1      44.506   3.911   9.222  0.00  0.00    +0.000 A 
ATOM     21  N   UNL     1      45.328   4.590   8.385  0.00  0.00    +0.000 NA
ATOM     22  C   UNL     1      46.260   3.885   7.688  0.00  0.00    +0.000 A 
ATOM     23  C   UNL     1      46.442   2.516   7.811  0.00  0.00    +0.000 A 
ATOM     24  C   UNL     1      45.575   1.819   8.644  0.00  0.00    +0.000 A 
ATOM     25  C   UNL     1      44.600   2.522   9.342  0.00  0.00    +0.000 A 
ATOM     26  F   UNL     1      43.784   1.810  10.130  0.00  0.00    +0.000 F 
BRANCH  23  27
ATOM     27  C   UNL     1      47.521   1.853   7.054  0.00  0.00    +0.000 C 
ATOM     28  N   UNL     1      48.488   2.655   6.513  0.00  0.00    +0.000 N 
ATOM     29  O   UNL     1      47.531   0.643   6.890  0.00  0.00    +0.000 OA
ATOM     30  H   UNL     1      48.395   3.657   6.427  0.00  0.00    +0.000 HD
ATOM     31  H   UNL     1      49.170   2.202   5.919  0.00  0.00    +0.000 HD
ENDBRANCH  23  27
ENDBRANCH  18  20
ENDBRANCH   1  18
TORSDOF 6
ENDMDL
MODEL 4
REMARK VINA RESULT:    -8.378      2.850      3.500
REMARK INTER + INTRA:         -11.203
REMARK INTER:                 -11.242
REMARK INTRA:                   0.039
REMARK UNBOUND:                 0.114
REMARK  Name = 
REMARK  6 active torsions:
REMARK  status: ('A' for Active; 'I' for Inactive)
REMARK    1  A    between atoms: C_2  and  C_3
REMARK    2  A    between atoms: C_6  and  C_7
REMARK    3  A    between atoms: C_11  and  C_12
REMARK    4  A    between atoms: C_12  and  N_13
REMARK    5  A    between atoms: N_13  and  C_14
REMARK    6  A    between atoms: C_17  and  C_18
REMARK                            x       y       z     vdW  Elec       q    Type
REMARK                         _______ _______ _______ _____ _____    ______ ____
ROOT
ATOM      1  C   UNL     1      44.477   5.288  11.472  0.00  0.00    +0.000 C 
ATOM      2  C   UNL     1      43.912   4.637  12.721  0.00  0.00    +0.000 C 
ATOM      3  C   UNL     1      45.249   4.204  12.228  0.00  0.00    +0.000 C 
ENDROOT
BRANCH   1   8
ATOM      4  C   UNL     1      46.854   8.117  12.068  0.00  0.00    +0.000 A 
ATOM      5  C   UNL     1      46.067   9.253  11.905  0.00  0.00    +0.000 A 
ATOM      6  C   UNL     1      44.727   9.104  11.568  0.00  0.00    +0.000 A 
ATOM      7  C   UNL     1      44.203   7.825  11.413  0.00  0.00    +0.000 A 
ATOM      8  C   UNL     1      45.030   6.716  11.590  0.00  0.00    +0.000 A 
ATOM      9  N   UNL     1      46.349   6.872  11.891  0.00  0.00    +0.000 NA
BRANCH   4  13
ATOM     10  C   UNL     1      50.991   8.296  13.267  0.00  0.00    +0.000 A 
ATOM     11  C   UNL     1      50.620   8.671  11.974  0.00  0.00    +0.000 A 
ATOM     12  C   UNL     1      49.277   8.609  11.583  0.00  0.00    +0.000 A 
ATOM     13  C   UNL     1      48.276   8.172  12.468  0.00  0.00    +0.000 A 
ATOM     14  C   UNL     1      48.673   7.812  13.770  0.00  0.00    +0.000 A 
ATOM     15  C   UNL     1      50.014   7.869  14.167  0.00  0.00    +0.000 A 
BRANCH  10  17
ATOM     16  N   UNL     1      53.479   8.417  13.988  0.00  0.00    +0.000 NA
ATOM     17  C   UNL     1      52.364   8.359  13.666  0.00  0.00    +0.000 C 
ENDBRANCH  10  17
ENDBRANCH   4  13
ENDBRANCH   1   8
BRANCH   1  18
ATOM     18  N   UNL     1      44.072   4.908  10.104  0.00  0.00    +0.000 N 
ATOM     19  H   UNL     1      43.082   4.693   9.990  0.00  0.00    +0.000 HD
BRANCH  18  20
ATOM     20  C   UNL     1      44.776   4.033   9.272  0.00  0.00    +0.000 A 
ATOM     21  N   UNL     1      45.616   4.643   8.399  0.00  0.00    +0.000 NA
ATOM     22  C   UNL     1      46.425   3.862   7.634  0.00  0.00    +0.000 A 
ATOM     23  C   UNL     1      46.466   2.478   7.719  0.00  0.00    +0.000 A 
ATOM     24  C   UNL     1      45.579   1.856   8.589  0.00  0.00    +0.000 A 
ATOM     25  C   UNL     1      44.727   2.640   9.358  0.00  0.00    +0.000 A 
ATOM     26  F   UNL     1      43.887   1.999  10.180  0.00  0.00    +0.000 F 
BRANCH  23  27
ATOM     27  C   UNL     1      47.421   1.724   6.885  0.00  0.00    +0.000 C 
ATOM     28  N   UNL     1      48.507   2.406   6.408  0.00  0.00    +0.000 N 
ATOM     29  O   UNL     1      47.232   0.550   6.606  0.00  0.00    +0.000 OA
ATOM     30  H   UNL     1      48.580   3.413   6.421  0.00  0.00    +0.000 HD
ATOM     31  H   UNL     1      49.106   1.907   5.763  0.00  0.00    +0.000 HD
ENDBRANCH  23  27
ENDBRANCH  18  20
ENDBRANCH   1  18
TORSDOF 6
ENDMDL
MODEL 5
REMARK VINA RESULT:    -7.756      3.039      8.144
REMARK INTER + INTRA:         -10.362
REMARK INTER:                  -9.468
REMARK INTRA:                  -0.894
REMARK UNBOUND:                 0.114
REMARK  Name = 
REMARK  6 active torsions:
REMARK  status: ('A' for Active; 'I' for Inactive)
REMARK    1  A    between atoms: C_2  and  C_3
REMARK    2  A    between atoms: C_6  and  C_7
REMARK    3  A    between atoms: C_11  and  C_12
REMARK    4  A    between atoms: C_12  and  N_13
REMARK    5  A    between atoms: N_13  and  C_14
REMARK    6  A    between atoms: C_17  and  C_18
REMARK                            x       y       z     vdW  Elec       q    Type
REMARK                         _______ _______ _______ _____ _____    ______ ____
ROOT
ATOM      1  C   UNL     1      46.120   7.498  12.631  0.00  0.00    +0.000 C 
ATOM      2  C   UNL     1      45.473   8.687  13.318  0.00  0.00    +0.000 C 
ATOM      3  C   UNL     1      46.175   8.901  12.023  0.00  0.00    +0.000 C 
ENDROOT
BRANCH   1   8
ATOM      4  C   UNL     1      44.942   4.889  10.220  0.00  0.00    +0.000 A 
ATOM      5  C   UNL     1      43.597   4.725  10.538  0.00  0.00    +0.000 A 
ATOM      6  C   UNL     1      43.055   5.465  11.582  0.00  0.00    +0.000 A 
ATOM      7  C   UNL     1      43.864   6.358  12.275  0.00  0.00    +0.000 A 
ATOM      8  C   UNL     1      45.206   6.490  11.919  0.00  0.00    +0.000 A 
ATOM      9  N   UNL     1      45.737   5.740  10.914  0.00  0.00    +0.000 NA
BRANCH   4  13
ATOM     10  C   UNL     1      46.870   2.799   6.981  0.00  0.00    +0.000 A 
ATOM     11  C   UNL     1      46.968   4.189   7.074  0.00  0.00    +0.000 A 
ATOM     12  C   UNL     1      46.339   4.869   8.123  0.00  0.00    +0.000 A 
ATOM     13  C   UNL     1      45.598   4.181   9.101  0.00  0.00    +0.000 A 
ATOM     14  C   UNL     1      45.525   2.779   8.993  0.00  0.00    +0.000 A 
ATOM     15  C   UNL     1      46.149   2.093   7.945  0.00  0.00    +0.000 A 
BRANCH  10  17
ATOM     16  N   UNL     1      48.031   1.536   5.035  0.00  0.00    +0.000 NA
ATOM     17  C   UNL     1      47.513   2.105   5.907  0.00  0.00    +0.000 C 
ENDBRANCH  10  17
ENDBRANCH   4  13
ENDBRANCH   1   8
BRANCH   1  18
ATOM     18  N   UNL     1      47.434   6.950  13.025  0.00  0.00    +0.000 N 
ATOM     19  H   UNL     1      47.979   6.547  12.264  0.00  0.00    +0.000 HD
BRANCH  18  20
ATOM     20  C   UNL     1      47.670   6.165  14.156  0.00  0.00    +0.000 A 
ATOM     21  N   UNL     1      48.447   6.755  15.097  0.00  0.00    +0.000 NA
ATOM     22  C   UNL     1      48.631   6.106  16.278  0.00  0.00    +0.000 A 
ATOM     23  C   UNL     1      48.039   4.891  16.590  0.00  0.00    +0.000 A 
ATOM     24  C   UNL     1      47.272   4.273  15.611  0.00  0.00    +0.000 A 
ATOM     25  C   UNL     1      47.098   4.911  14.388  0.00  0.00    +0.000 A 
ATOM     26  F   UNL     1      46.354   4.279  13.472  0.00  0.00    +0.000 F 
BRANCH  23  27
ATOM     27  C   UNL     1      48.255   4.297  17.923  0.00  0.00    +0.000 C 
ATOM     28  N   UNL     1      47.498   3.205  18.251  0.00  0.00    +0.000 N 
ATOM     29  O   UNL     1      49.051   4.781  18.713  0.00  0.00    +0.000 OA
ATOM     30  H   UNL     1      46.681   2.919  17.731  0.00  0.00    +0.000 HD
ATOM     31  H   UNL     1      47.586   2.863  19.199  0.00  0.00    +0.000 HD
ENDBRANCH  23  27
ENDBRANCH  18  20
ENDBRANCH   1  18
TORSDOF 6
ENDMDL
MODEL 6
REMARK VINA RESULT:    -7.713      3.154      5.143
REMARK INTER + INTRA:         -10.304
REMARK INTER:                  -9.285
REMARK INTRA:                  -1.019
REMARK UNBOUND:                 0.114
REMARK  Name = 
REMARK  6 active torsions:
REMARK  status: ('A' for Active; 'I' for Inactive)
REMARK    1  A    between atoms: C_2  and  C_3
REMARK    2  A    between atoms: C_6  and  C_7
REMARK    3  A    between atoms: C_11  and  C_12
REMARK    4  A    between atoms: C_12  and  N_13
REMARK    5  A    between atoms: N_13  and  C_14
REMARK    6  A    between atoms: C_17  and  C_18
REMARK                            x       y       z     vdW  Elec       q    Type
REMARK                         _______ _______ _______ _____ _____    ______ ____
ROOT
ATOM      1  C   UNL     1      48.198   7.480  13.631  0.00  0.00    +0.000 C 
ATOM      2  C   UNL     1      49.176   7.087  12.539  0.00  0.00    +0.000 C 
ATOM      3  C   UNL     1      48.870   8.530  12.743  0.00  0.00    +0.000 C 
ENDROOT
BRANCH   1   8
ATOM      4  C   UNL     1      49.787   6.220  16.776  0.00  0.00    +0.000 A 
ATOM      5  C   UNL     1      49.501   7.209  17.713  0.00  0.00    +0.000 A 
ATOM      6  C   UNL     1      48.790   8.334  17.312  0.00  0.00    +0.000 A 
ATOM      7  C   UNL     1      48.372   8.438  15.991  0.00  0.00    +0.000 A 
ATOM      8  C   UNL     1      48.680   7.421  15.088  0.00  0.00    +0.000 A 
ATOM      9  N   UNL     1      49.403   6.336  15.482  0.00  0.00    +0.000 NA
BRANCH   4  13
ATOM     10  C   UNL     1      51.889   2.582  17.741  0.00  0.00    +0.000 A 
ATOM     11  C   UNL     1      50.530   2.542  17.423  0.00  0.00    +0.000 A 
ATOM     12  C   UNL     1      49.846   3.724  17.114  0.00  0.00    +0.000 A 
ATOM     13  C   UNL     1      50.499   4.970  17.116  0.00  0.00    +0.000 A 
ATOM     14  C   UNL     1      51.871   4.983  17.427  0.00  0.00    +0.000 A 
ATOM     15  C   UNL     1      52.561   3.805  17.740  0.00  0.00    +0.000 A 
BRANCH  10  17
ATOM     16  N   UNL     1      53.154   0.394  18.323  0.00  0.00    +0.000 NA
ATOM     17  C   UNL     1      52.587   1.374  18.058  0.00  0.00    +0.000 C 
ENDBRANCH  10  17
ENDBRANCH   4  13
ENDBRANCH   1   8
BRANCH   1  18
ATOM     18  N   UNL     1      46.732   7.397  13.476  0.00  0.00    +0.000 N 
ATOM     19  H   UNL     1      46.193   7.780  14.252  0.00  0.00    +0.000 HD
BRANCH  18  20
ATOM     20  C   UNL     1      46.036   6.279  13.009  0.00  0.00    +0.000 A 
ATOM     21  N   UNL     1      45.443   6.451  11.801  0.00  0.00    +0.000 NA
ATOM     22  C   UNL     1      44.843   5.377  11.221  0.00  0.00    +0.000 A 
ATOM     23  C   UNL     1      44.834   4.106  11.776  0.00  0.00    +0.000 A 
ATOM     24  C   UNL     1      45.413   3.942  13.028  0.00  0.00    +0.000 A 
ATOM     25  C   UNL     1      46.005   5.037  13.647  0.00  0.00    +0.000 A 
ATOM     26  F   UNL     1      46.547   4.834  14.854  0.00  0.00    +0.000 F 
BRANCH  23  27
ATOM     27  C   UNL     1      44.207   2.993  11.038  0.00  0.00    +0.000 C 
ATOM     28  N   UNL     1      44.934   2.424  10.029  0.00  0.00    +0.000 N 
ATOM     29  O   UNL     1      43.073   2.619  11.297  0.00  0.00    +0.000 OA
ATOM     30  H   UNL     1      45.764   2.845   9.637  0.00  0.00    +0.000 HD
ATOM     31  H   UNL     1      44.461   1.726   9.470  0.00  0.00    +0.000 HD
ENDBRANCH  23  27
ENDBRANCH  18  20
ENDBRANCH   1  18
TORSDOF 6
ENDMDL
MODEL 7
REMARK VINA RESULT:    -7.408      3.522      5.552
REMARK INTER + INTRA:          -9.892
REMARK INTER:                  -9.068
REMARK INTRA:                  -0.824
REMARK UNBOUND:                 0.114
REMARK  Name = 
REMARK  6 active torsions:
REMARK  status: ('A' for Active; 'I' for Inactive)
REMARK    1  A    between atoms: C_2  and  C_3
REMARK    2  A    between atoms: C_6  and  C_7
REMARK    3  A    between atoms: C_11  and  C_12
REMARK    4  A    between atoms: C_12  and  N_13
REMARK    5  A    between atoms: N_13  and  C_14
REMARK    6  A    between atoms: C_17  and  C_18
REMARK                            x       y       z     vdW  Elec       q    Type
REMARK                         _______ _______ _______ _____ _____    ______ ____
ROOT
ATOM      1  C   UNL     1      48.426   7.586  14.016  0.00  0.00    +0.000 C 
ATOM      2  C   UNL     1      49.453   7.287  12.939  0.00  0.00    +0.000 C 
ATOM      3  C   UNL     1      49.146   8.707  13.262  0.00  0.00    +0.000 C 
ENDROOT
BRANCH   1   8
ATOM      4  C   UNL     1      49.897   6.047  17.094  0.00  0.00    +0.000 A 
ATOM      5  C   UNL     1      49.535   6.925  18.111  0.00  0.00    +0.000 A 
ATOM      6  C   UNL     1      48.810   8.067  17.791  0.00  0.00    +0.000 A 
ATOM      7  C   UNL     1      48.455   8.298  16.467  0.00  0.00    +0.000 A 
ATOM      8  C   UNL     1      48.838   7.388  15.482  0.00  0.00    +0.000 A 
ATOM      9  N   UNL     1      49.573   6.287  15.799  0.00  0.00    +0.000 NA
BRANCH   4  13
ATOM     10  C   UNL     1      52.055   2.380  17.785  0.00  0.00    +0.000 A 
ATOM     11  C   UNL     1      50.678   2.349  17.556  0.00  0.00    +0.000 A 
ATOM     12  C   UNL     1      49.976   3.540  17.335  0.00  0.00    +0.000 A 
ATOM     13  C   UNL     1      50.628   4.786  17.340  0.00  0.00    +0.000 A 
ATOM     14  C   UNL     1      52.018   4.790  17.560  0.00  0.00    +0.000 A 
ATOM     15  C   UNL     1      52.727   3.603  17.784  0.00  0.00    +0.000 A 
BRANCH  10  17
ATOM     16  N   UNL     1      53.356   0.172  18.188  0.00  0.00    +0.000 NA
ATOM     17  C   UNL     1      52.773   1.162  18.011  0.00  0.00    +0.000 C 
ENDBRANCH  10  17
ENDBRANCH   4  13
ENDBRANCH   1   8
BRANCH   1  18
ATOM     18  N   UNL     1      46.969   7.532  13.784  0.00  0.00    +0.000 N 
ATOM     19  H   UNL     1      46.394   7.775  14.590  0.00  0.00    +0.000 HD
BRANCH  18  20
ATOM     20  C   UNL     1      46.302   6.511  13.102  0.00  0.00    +0.000 A 
ATOM     21  N   UNL     1      46.474   5.275  13.632  0.00  0.00    +0.000 NA
ATOM     22  C   UNL     1      45.766   4.243  13.099  0.00  0.00    +0.000 A 
ATOM     23  C   UNL     1      44.851   4.387  12.066  0.00  0.00    +0.000 A 
ATOM     24  C   UNL     1      44.703   5.649  11.504  0.00  0.00    +0.000 A 
ATOM     25  C   UNL     1      45.440   6.708  12.020  0.00  0.00    +0.000 A 
ATOM     26  F   UNL     1      45.269   7.905  11.445  0.00  0.00    +0.000 F 
BRANCH  23  27
ATOM     27  C   UNL     1      44.090   3.213  11.598  0.00  0.00    +0.000 C 
ATOM     28  N   UNL     1      43.878   2.206  12.498  0.00  0.00    +0.000 N 
ATOM     29  O   UNL     1      43.696   3.132  10.444  0.00  0.00    +0.000 OA
ATOM     30  H   UNL     1      44.375   2.130  13.374  0.00  0.00    +0.000 HD
ATOM     31  H   UNL     1      43.438   1.367  12.142  0.00  0.00    +0.000 HD
ENDBRANCH  23  27
ENDBRANCH  18  20
ENDBRANCH   1  18
TORSDOF 6
ENDMDL
MODEL 8
REMARK VINA RESULT:    -7.223      4.089      8.248
REMARK INTER + INTRA:          -9.642
REMARK INTER:                  -8.649
REMARK INTRA:                  -0.993
REMARK UNBOUND:                 0.114
REMARK  Name = 
REMARK  6 active torsions:
REMARK  status: ('A' for Active; 'I' for Inactive)
REMARK    1  A    between atoms: C_2  and  C_3
REMARK    2  A    between atoms: C_6  and  C_7
REMARK    3  A    between atoms: C_11  and  C_12
REMARK    4  A    between atoms: C_12  and  N_13
REMARK    5  A    between atoms: N_13  and  C_14
REMARK    6  A    between atoms: C_17  and  C_18
REMARK                            x       y       z     vdW  Elec       q    Type
REMARK                         _______ _______ _______ _____ _____    ______ ____
ROOT
ATOM      1  C   UNL     1      49.188   8.439  16.990  0.00  0.00    +0.000 C 
ATOM      2  C   UNL     1      47.917   9.139  17.434  0.00  0.00    +0.000 C 
ATOM      3  C   UNL     1      49.173   9.931  17.330  0.00  0.00    +0.000 C 
ENDROOT
BRANCH   1   8
ATOM      4  C   UNL     1      48.463   7.004  13.610  0.00  0.00    +0.000 A 
ATOM      5  C   UNL     1      49.581   7.348  12.856  0.00  0.00    +0.000 A 
ATOM      6  C   UNL     1      50.595   8.088  13.451  0.00  0.00    +0.000 A 
ATOM      7  C   UNL     1      50.474   8.457  14.785  0.00  0.00    +0.000 A 
ATOM      8  C   UNL     1      49.337   8.088  15.502  0.00  0.00    +0.000 A 
ATOM      9  N   UNL     1      48.334   7.388  14.904  0.00  0.00    +0.000 NA
BRANCH   4  13
ATOM     10  C   UNL     1      45.251   4.576  12.070  0.00  0.00    +0.000 A 
ATOM     11  C   UNL     1      45.699   5.684  11.348  0.00  0.00    +0.000 A 
ATOM     12  C   UNL     1      46.740   6.475  11.850  0.00  0.00    +0.000 A 
ATOM     13  C   UNL     1      47.354   6.182  13.080  0.00  0.00    +0.000 A 
ATOM     14  C   UNL     1      46.894   5.053  13.783  0.00  0.00    +0.000 A 
ATOM     15  C   UNL     1      45.852   4.259  13.289  0.00  0.00    +0.000 A 
BRANCH  10  17
ATOM     16  N   UNL     1      43.323   3.115  11.134  0.00  0.00    +0.000 NA
ATOM     17  C   UNL     1      44.187   3.768  11.557  0.00  0.00    +0.000 C 
ENDBRANCH  10  17
ENDBRANCH   4  13
ENDBRANCH   1   8
BRANCH   1  18
ATOM     18  N   UNL     1      50.018   7.615  17.891  0.00  0.00    +0.000 N 
ATOM     19  H   UNL     1      50.925   8.014  18.129  0.00  0.00    +0.000 HD
BRANCH  18  20
ATOM     20  C   UNL     1      50.197   6.234  17.779  0.00  0.00    +0.000 A 
ATOM     21  N   UNL     1      49.046   5.518  17.748  0.00  0.00    +0.000 NA
ATOM     22  C   UNL     1      49.127   4.179  17.524  0.00  0.00    +0.000 A 
ATOM     23  C   UNL     1      50.318   3.507  17.289  0.00  0.00    +0.000 A 
ATOM     24  C   UNL     1      51.498   4.238  17.355  0.00  0.00    +0.000 A 
ATOM     25  C   UNL     1      51.433   5.603  17.612  0.00  0.00    +0.000 A 
ATOM     26  F   UNL     1      52.594   6.267  17.671  0.00  0.00    +0.000 F 
BRANCH  23  27
ATOM     27  C   UNL     1      50.294   2.062  16.998  0.00  0.00    +0.000 C 
ATOM     28  N   UNL     1      51.168   1.270  17.690  0.00  0.00    +0.000 N 
ATOM     29  O   UNL     1      49.547   1.597  16.149  0.00  0.00    +0.000 OA
ATOM     30  H   UNL     1      51.948   1.634  18.220  0.00  0.00    +0.000 HD
ATOM     31  H   UNL     1      51.209   0.296  17.417  0.00  0.00    +0.000 HD
ENDBRANCH  23  27
ENDBRANCH  18  20
ENDBRANCH   1  18
TORSDOF 6
ENDMDL
MODEL 9
REMARK VINA RESULT:    -7.197      3.943      8.684
REMARK INTER + INTRA:          -9.607
REMARK INTER:                  -9.024
REMARK INTRA:                  -0.583
REMARK UNBOUND:                 0.114
REMARK  Name = 
REMARK  6 active torsions:
REMARK  status: ('A' for Active; 'I' for Inactive)
REMARK    1  A    between atoms: C_2  and  C_3
REMARK    2  A    between atoms: C_6  and  C_7
REMARK    3  A    between atoms: C_11  and  C_12
REMARK    4  A    between atoms: C_12  and  N_13
REMARK    5  A    between atoms: N_13  and  C_14
REMARK    6  A    between atoms: C_17  and  C_18
REMARK                            x       y       z     vdW  Elec       q    Type
REMARK                         _______ _______ _______ _____ _____    ______ ____
ROOT
ATOM      1  C   UNL     1      49.008   5.519  17.960  0.00  0.00    +0.000 C 
ATOM      2  C   UNL     1      47.640   4.966  18.319  0.00  0.00    +0.000 C 
ATOM      3  C   UNL     1      48.077   6.252  18.929  0.00  0.00    +0.000 C 
ENDROOT
BRANCH   1   8
ATOM      4  C   UNL     1      48.422   6.388  14.367  0.00  0.00    +0.000 A 
ATOM      5  C   UNL     1      49.492   7.218  14.047  0.00  0.00    +0.000 A 
ATOM      6  C   UNL     1      50.424   7.528  15.029  0.00  0.00    +0.000 A 
ATOM      7  C   UNL     1      50.272   6.993  16.303  0.00  0.00    +0.000 A 
ATOM      8  C   UNL     1      49.185   6.164  16.578  0.00  0.00    +0.000 A 
ATOM      9  N   UNL     1      48.260   5.889  15.617  0.00  0.00    +0.000 NA
BRANCH   4  13
ATOM     10  C   UNL     1      45.443   5.194  11.489  0.00  0.00    +0.000 A 
ATOM     11  C   UNL     1      45.614   4.460  12.664  0.00  0.00    +0.000 A 
ATOM     12  C   UNL     1      46.584   4.845  13.597  0.00  0.00    +0.000 A 
ATOM     13  C   UNL     1      47.405   5.966  13.380  0.00  0.00    +0.000 A 
ATOM     14  C   UNL     1      47.204   6.698  12.195  0.00  0.00    +0.000 A 
ATOM     15  C   UNL     1      46.237   6.317  11.256  0.00  0.00    +0.000 A 
BRANCH  10  17
ATOM     16  N   UNL     1      43.651   4.480   9.755  0.00  0.00    +0.000 NA
ATOM     17  C   UNL     1      44.451   4.800  10.535  0.00  0.00    +0.000 C 
ENDBRANCH  10  17
ENDBRANCH   4  13
ENDBRANCH   1   8
BRANCH   1  18
ATOM     18  N   UNL     1      50.263   5.035  18.567  0.00  0.00    +0.000 N 
ATOM     19  H   UNL     1      50.961   5.756  18.749  0.00  0.00    +0.000 HD
BRANCH  18  20
ATOM     20  C   UNL     1      50.957   3.888  18.172  0.00  0.00    +0.000 A 
ATOM     21  N   UNL     1      52.221   3.802  18.655  0.00  0.00    +0.000 NA
ATOM     22  C   UNL     1      52.924   2.662  18.414  0.00  0.00    +0.000 A 
ATOM     23  C   UNL     1      52.411   1.568  17.733  0.00  0.00    +0.000 A 
ATOM     24  C   UNL     1      51.128   1.674  17.211  0.00  0.00    +0.000 A 
ATOM     25  C   UNL     1      50.407   2.843  17.424  0.00  0.00    +0.000 A 
ATOM     26  F   UNL     1      49.176   2.904  16.900  0.00  0.00    +0.000 F 
BRANCH  23  27
ATOM     27  C   UNL     1      53.236   0.356  17.576  0.00  0.00    +0.000 C 
ATOM     28  N   UNL     1      53.085  -0.629  18.513  0.00  0.00    +0.000 N 
ATOM     29  O   UNL     1      54.043   0.251  16.664  0.00  0.00    +0.000 OA
ATOM     30  H   UNL     1      52.611  -0.490  19.394  0.00  0.00    +0.000 HD
ATOM     31  H   UNL     1      53.720  -1.414  18.450  0.00  0.00    +0.000 HD
ENDBRANCH  23  27
ENDBRANCH  18  20
ENDBRANCH   1  18
TORSDOF 6
ENDMDL
