MODEL 1
REMARK VINA RESULT:    -9.341      0.000      0.000
REMARK INTER + INTRA:         -12.706
REMARK INTER:                 -13.163
REMARK INTRA:                   0.457
REMARK UNBOUND:                 0.457
REMARK  Name = 
REMARK  7 active torsions:
REMARK  status: ('A' for Active; 'I' for Inactive)
REMARK    1  A    between atoms: C_2  and  C_4
REMARK    2  A    between atoms: N_8  and  C_9
REMARK    3  A    between atoms: C_9  and  C_10
REMARK    4  A    between atoms: C_10  and  C_13
REMARK    5  A    between atoms: C_17  and  N_18
REMARK    6  A    between atoms: N_18  and  C_19
REMARK    7  A    between atoms: N_21  and  C_22
REMARK                            x       y       z     vdW  Elec       q    Type
REMARK                         _______ _______ _______ _____ _____    ______ ____
ROOT
ATOM      1  C   UNL     1      43.380   5.546  12.104  0.00  0.00    +0.000 C 
ATOM      2  F   UNL     1      42.902   6.776  11.718  0.00  0.00    +0.000 F 
ATOM      3  F   UNL     1      42.518   5.132  13.084  0.00  0.00    +0.000 F 
ENDROOT
BRANCH   1   4
ATOM      4  C   UNL     1      44.795   5.656  12.646  0.00  0.00    +0.000 A 
ATOM      5  C   UNL     1      45.549   6.803  12.360  0.00  0.00    +0.000 A 
ATOM      6  C   UNL     1      46.846   6.939  12.859  0.00  0.00    +0.000 A 
ATOM      7  C   UNL     1      47.413   5.928  13.644  0.00  0.00    +0.000 A 
ATOM      8  C   UNL     1      46.687   4.777  13.937  0.00  0.00    +0.000 A 
ATOM      9  C   UNL     1      45.384   4.659  13.443  0.00  0.00    +0.000 A 
BRANCH   8  10
ATOM     10  N   UNL     1      47.157   3.730  14.757  0.00  0.00    +0.000 N 
ATOM     11  H   UNL     1      46.762   2.845  14.433  0.00  0.00    +0.000 HD
BRANCH  10  12
ATOM     12  C   UNL     1      47.321   3.786  16.182  0.00  0.00    +0.000 C 
ATOM     13  C   UNL     1      48.261   4.934  16.621  0.00  0.00    +0.000 C 
ATOM     14  N   UNL     1      49.030   3.986  17.455  0.00  0.00    +0.000 NA
ATOM     15  C   UNL     1      48.394   2.851  16.756  0.00  0.00    +0.000 C 
BRANCH  14  16
ATOM     16  C   UNL     1      48.625   4.059  18.851  0.00  0.00    +0.000 C 
ATOM     17  F   UNL     1      47.642   4.956  19.088  0.00  0.00    +0.000 F 
ATOM     18  F   UNL     1      48.200   2.867  19.332  0.00  0.00    +0.000 F 
ATOM     19  F   UNL     1      49.691   4.426  19.601  0.00  0.00    +0.000 F 
ENDBRANCH  14  16
ENDBRANCH  10  12
ENDBRANCH   8  10
ENDBRANCH   1   4
BRANCH   1  20
ATOM     20  C   UNL     1      43.230   4.598  10.889  0.00  0.00    +0.000 C 
BRANCH  20  25
ATOM     21  C   UNL     1      46.296   2.074   7.905  0.00  0.00    +0.000 A 
ATOM     22  C   UNL     1      46.345   3.381   7.419  0.00  0.00    +0.000 A 
ATOM     23  C   UNL     1      45.579   4.363   8.044  0.00  0.00    +0.000 A 
ATOM     24  C   UNL     1      44.787   4.032   9.141  0.00  0.00    +0.000 A 
ATOM     25  N   UNL     1      43.983   5.036   9.701  0.00  0.00    +0.000 N 
ATOM     26  N   UNL     1      44.723   2.766   9.609  0.00  0.00    +0.000 NA
ATOM     27  C   UNL     1      45.468   1.817   8.983  0.00  0.00    +0.000 A 
ATOM     28  H   UNL     1      44.517   5.885   9.873  0.00  0.00    +0.000 HD
BRANCH  21  30
ATOM     29  N   UNL     1      46.733  -0.305   7.693  0.00  0.00    +0.000 N 
ATOM     30  C   UNL     1      47.059   0.964   7.303  0.00  0.00    +0.000 C 
ATOM     31  O   UNL     1      47.924   1.167   6.461  0.00  0.00    +0.000 OA
ATOM     32  H   UNL     1      47.193  -1.060   7.198  0.00  0.00    +0.000 HD
ATOM     33  H   UNL     1      45.877  -0.522   8.184  0.00  0.00    +0.000 HD
ENDBRANCH  21  30
ENDBRANCH  20  25
ENDBRANCH   1  20
TORSDOF 7
ENDMDL
MODEL 2
REMARK VINA RESULT:    -9.126      1.235      1.662
REMARK INTER + INTRA:         -12.404
REMARK INTER:                 -12.616
REMARK INTRA:                   0.213
REMARK UNBOUND:                 0.457
REMARK  Name = 
REMARK  7 active torsions:
REMARK  status: ('A' for Active; 'I' for Inactive)
REMARK    1  A    between atoms: C_2  and  C_4
REMARK    2  A    between atoms: N_8  and  C_9
REMARK    3  A    between atoms: C_9  and  C_10
REMARK    4  A    between atoms: C_10  and  C_13
REMARK    5  A    between atoms: C_17  and  N_18
REMARK    6  A    between atoms: N_18  and  C_19
REMARK    7  A    between atoms: N_21  and  C_22
REMARK                            x       y       z     vdW  Elec       q    Type
REMARK                         _______ _______ _______ _____ _____    ______ ____
ROOT
ATOM      1  C   UNL     1      43.593   5.875  11.705  0.00  0.00    +0.000 C 
ATOM      2  F   UNL     1      43.260   7.190  11.475  0.00  0.00    +0.000 F 
ATOM      3  F   UNL     1      42.677   5.442  12.626  0.00  0.00    +0.000 F 
ENDROOT
BRANCH   1   4
ATOM      4  C   UNL     1      45.004   5.758  12.256  0.00  0.00    +0.000 A 
ATOM      5  C   UNL     1      46.024   6.540  11.695  0.00  0.00    +0.000 A 
ATOM      6  C   UNL     1      47.326   6.466  12.193  0.00  0.00    +0.000 A 
ATOM      7  C   UNL     1      47.632   5.604  13.252  0.00  0.00    +0.000 A 
ATOM      8  C   UNL     1      46.639   4.813  13.823  0.00  0.00    +0.000 A 
ATOM      9  C   UNL     1      45.335   4.906  13.324  0.00  0.00    +0.000 A 
BRANCH   8  10
ATOM     10  N   UNL     1      46.843   3.953  14.921  0.00  0.00    +0.000 N 
ATOM     11  H   UNL     1      45.948   3.546  15.201  0.00  0.00    +0.000 HD
BRANCH  10  12
ATOM     12  C   UNL     1      47.721   4.197  16.030  0.00  0.00    +0.000 C 
ATOM     13  C   UNL     1      48.252   2.887  16.659  0.00  0.00    +0.000 C 
ATOM     14  N   UNL     1      47.861   3.373  18.000  0.00  0.00    +0.000 NA
ATOM     15  C   UNL     1      47.028   4.422  17.381  0.00  0.00    +0.000 C 
BRANCH  14  16
ATOM     16  C   UNL     1      49.000   3.934  18.713  0.00  0.00    +0.000 C 
ATOM     17  F   UNL     1      50.183   3.371  18.380  0.00  0.00    +0.000 F 
ATOM     18  F   UNL     1      49.126   5.268  18.522  0.00  0.00    +0.000 F 
ATOM     19  F   UNL     1      48.825   3.743  20.042  0.00  0.00    +0.000 F 
ENDBRANCH  14  16
ENDBRANCH  10  12
ENDBRANCH   8  10
ENDBRANCH   1   4
BRANCH   1  20
ATOM     20  C   UNL     1      43.356   5.108  10.381  0.00  0.00    +0.000 C 
BRANCH  20  25
ATOM     21  C   UNL     1      46.499   2.630   7.439  0.00  0.00    +0.000 A 
ATOM     22  C   UNL     1      46.023   1.662   8.324  0.00  0.00    +0.000 A 
ATOM     23  C   UNL     1      45.106   2.035   9.304  0.00  0.00    +0.000 A 
ATOM     24  C   UNL     1      44.672   3.356   9.382  0.00  0.00    +0.000 A 
ATOM     25  N   UNL     1      43.798   3.704  10.422  0.00  0.00    +0.000 N 
ATOM     26  N   UNL     1      45.139   4.303   8.538  0.00  0.00    +0.000 NA
ATOM     27  C   UNL     1      46.041   3.926   7.593  0.00  0.00    +0.000 A 
ATOM     28  H   UNL     1      43.016   3.055  10.481  0.00  0.00    +0.000 HD
BRANCH  21  30
ATOM     29  N   UNL     1      47.523   3.185   5.309  0.00  0.00    +0.000 N 
ATOM     30  C   UNL     1      47.481   2.335   6.378  0.00  0.00    +0.000 C 
ATOM     31  O   UNL     1      48.252   1.389   6.467  0.00  0.00    +0.000 OA
ATOM     32  H   UNL     1      48.266   3.031   4.639  0.00  0.00    +0.000 HD
ATOM     33  H   UNL     1      47.086   4.096   5.318  0.00  0.00    +0.000 HD
ENDBRANCH  21  30
ENDBRANCH  20  25
ENDBRANCH   1  20
TORSDOF 7
ENDMDL
MODEL 3
REMARK VINA RESULT:    -8.466      3.541      4.586
REMARK INTER + INTRA:         -11.473
REMARK INTER:                 -11.503
REMARK INTRA:                   0.030
REMARK UNBOUND:                 0.457
REMARK  Name = 
REMARK  7 active torsions:
REMARK  status: ('A' for Active; 'I' for Inactive)
REMARK    1  A    between atoms: C_2  and  C_4
REMARK    2  A    between atoms: N_8  and  C_9
REMARK    3  A    between atoms: C_9  and  C_10
REMARK    4  A    between atoms: C_10  and  C_13
REMARK    5  A    between atoms: C_17  and  N_18
REMARK    6  A    between atoms: N_18  and  C_19
REMARK    7  A    between atoms: N_21  and  C_22
REMARK                            x       y       z     vdW  Elec       q    Type
REMARK                         _______ _______ _______ _____ _____    ______ ____
ROOT
ATOM      1  C   UNL     1      43.485   5.550  12.056  0.00  0.00    +0.000 C 
ATOM      2  F   UNL     1      43.236   6.855  11.699  0.00  0.00    +0.000 F 
ATOM      3  F   UNL     1      42.491   5.239  12.945  0.00  0.00    +0.000 F 
ENDROOT
BRANCH   1   4
ATOM      4  C   UNL     1      44.850   5.413  12.707  0.00  0.00    +0.000 A 
ATOM      5  C   UNL     1      45.243   4.166  13.215  0.00  0.00    +0.000 A 
ATOM      6  C   UNL     1      46.499   4.008  13.803  0.00  0.00    +0.000 A 
ATOM      7  C   UNL     1      47.378   5.092  13.903  0.00  0.00    +0.000 A 
ATOM      8  C   UNL     1      47.009   6.342  13.411  0.00  0.00    +0.000 A 
ATOM      9  C   UNL     1      45.754   6.485  12.811  0.00  0.00    +0.000 A 
BRANCH   8  10
ATOM     10  N   UNL     1      47.845   7.477  13.423  0.00  0.00    +0.000 N 
ATOM     11  H   UNL     1      47.276   8.315  13.282  0.00  0.00    +0.000 HD
BRANCH  10  12
ATOM     12  C   UNL     1      49.146   7.572  12.825  0.00  0.00    +0.000 C 
ATOM     13  C   UNL     1      49.731   9.001  12.913  0.00  0.00    +0.000 C 
ATOM     14  N   UNL     1      50.039   8.965  11.467  0.00  0.00    +0.000 NA
ATOM     15  C   UNL     1      49.157   7.792  11.306  0.00  0.00    +0.000 C 
BRANCH  14  16
ATOM     16  C   UNL     1      51.436   8.629  11.232  0.00  0.00    +0.000 C 
ATOM     17  F   UNL     1      52.151   8.443  12.364  0.00  0.00    +0.000 F 
ATOM     18  F   UNL     1      51.582   7.514  10.479  0.00  0.00    +0.000 F 
ATOM     19  F   UNL     1      52.022   9.641  10.550  0.00  0.00    +0.000 F 
ENDBRANCH  14  16
ENDBRANCH  10  12
ENDBRANCH   8  10
ENDBRANCH   1   4
BRANCH   1  20
ATOM     20  C   UNL     1      43.291   4.687  10.785  0.00  0.00    +0.000 C 
BRANCH  20  25
ATOM     21  C   UNL     1      46.359   2.100   7.858  0.00  0.00    +0.000 A 
ATOM     22  C   UNL     1      46.493   3.417   7.415  0.00  0.00    +0.000 A 
ATOM     23  C   UNL     1      45.748   4.417   8.037  0.00  0.00    +0.000 A 
ATOM     24  C   UNL     1      44.894   4.095   9.088  0.00  0.00    +0.000 A 
ATOM     25  N   UNL     1      44.115   5.121   9.644  0.00  0.00    +0.000 N 
ATOM     26  N   UNL     1      44.748   2.820   9.513  0.00  0.00    +0.000 NA
ATOM     27  C   UNL     1      45.473   1.854   8.891  0.00  0.00    +0.000 A 
ATOM     28  H   UNL     1      44.682   5.937   9.865  0.00  0.00    +0.000 HD
BRANCH  21  30
ATOM     29  N   UNL     1      46.785  -0.285   7.697  0.00  0.00    +0.000 N 
ATOM     30  C   UNL     1      47.093   0.971   7.254  0.00  0.00    +0.000 C 
ATOM     31  O   UNL     1      47.919   1.148   6.368  0.00  0.00    +0.000 OA
ATOM     32  H   UNL     1      47.221  -1.055   7.205  0.00  0.00    +0.000 HD
ATOM     33  H   UNL     1      45.952  -0.486   8.233  0.00  0.00    +0.000 HD
ENDBRANCH  21  30
ENDBRANCH  20  25
ENDBRANCH   1  20
TORSDOF 7
ENDMDL
MODEL 4
REMARK VINA RESULT:    -8.406      4.267      9.041
REMARK INTER + INTRA:         -11.389
REMARK INTER:                 -11.862
REMARK INTRA:                   0.473
REMARK UNBOUND:                 0.457
REMARK  Name = 
REMARK  7 active torsions:
REMARK  status: ('A' for Active; 'I' for Inactive)
REMARK    1  A    between atoms: C_2  and  C_4
REMARK    2  A    between atoms: N_8  and  C_9
REMARK    3  A    between atoms: C_9  and  C_10
REMARK    4  A    between atoms: C_10  and  C_13
REMARK    5  A    between atoms: C_17  and  N_18
REMARK    6  A    between atoms: N_18  and  C_19
REMARK    7  A    between atoms: N_21  and  C_22
REMARK                            x       y       z     vdW  Elec       q    Type
REMARK                         _______ _______ _______ _____ _____    ______ ____
ROOT
ATOM      1  C   UNL     1      46.491   6.422  12.478  0.00  0.00    +0.000 C 
ATOM      2  F   UNL     1      45.822   7.324  13.273  0.00  0.00    +0.000 F 
ATOM      3  F   UNL     1      46.997   7.175  11.452  0.00  0.00    +0.000 F 
ENDROOT
BRANCH   1   4
ATOM      4  C   UNL     1      45.546   5.358  11.946  0.00  0.00    +0.000 A 
ATOM      5  C   UNL     1      44.918   4.489  12.851  0.00  0.00    +0.000 A 
ATOM      6  C   UNL     1      44.032   3.513  12.392  0.00  0.00    +0.000 A 
ATOM      7  C   UNL     1      43.766   3.382  11.024  0.00  0.00    +0.000 A 
ATOM      8  C   UNL     1      44.382   4.229  10.106  0.00  0.00    +0.000 A 
ATOM      9  C   UNL     1      45.257   5.212  10.579  0.00  0.00    +0.000 A 
BRANCH   8  10
ATOM     10  N   UNL     1      44.139   4.204   8.717  0.00  0.00    +0.000 N 
ATOM     11  H   UNL     1      43.131   4.172   8.552  0.00  0.00    +0.000 HD
BRANCH  10  12
ATOM     12  C   UNL     1      44.892   3.466   7.744  0.00  0.00    +0.000 C 
ATOM     13  C   UNL     1      45.661   2.279   8.372  0.00  0.00    +0.000 C 
ATOM     14  N   UNL     1      46.900   2.723   7.697  0.00  0.00    +0.000 NA
ATOM     15  C   UNL     1      46.280   4.034   7.418  0.00  0.00    +0.000 C 
BRANCH  14  16
ATOM     16  C   UNL     1      47.139   1.966   6.477  0.00  0.00    +0.000 C 
ATOM     17  F   UNL     1      46.786   0.664   6.565  0.00  0.00    +0.000 F 
ATOM     18  F   UNL     1      46.489   2.484   5.408  0.00  0.00    +0.000 F 
ATOM     19  F   UNL     1      48.461   2.004   6.188  0.00  0.00    +0.000 F 
ENDBRANCH  14  16
ENDBRANCH  10  12
ENDBRANCH   8  10
ENDBRANCH   1   4
BRANCH   1  20
ATOM     20  C   UNL     1      47.674   5.873  13.311  0.00  0.00    +0.000 C 
BRANCH  20  25
ATOM     21  C   UNL     1      48.845   5.062  18.070  0.00  0.00    +0.000 A 
ATOM     22  C   UNL     1      48.986   6.442  17.913  0.00  0.00    +0.000 A 
ATOM     23  C   UNL     1      48.730   7.009  16.666  0.00  0.00    +0.000 A 
ATOM     24  C   UNL     1      48.334   6.201  15.604  0.00  0.00    +0.000 A 
ATOM     25  N   UNL     1      48.149   6.802  14.350  0.00  0.00    +0.000 N 
ATOM     26  N   UNL     1      48.209   4.863  15.744  0.00  0.00    +0.000 NA
ATOM     27  C   UNL     1      48.471   4.322  16.963  0.00  0.00    +0.000 A 
ATOM     28  H   UNL     1      47.564   7.633  14.421  0.00  0.00    +0.000 HD
BRANCH  21  30
ATOM     29  N   UNL     1      48.398   3.226  19.594  0.00  0.00    +0.000 N 
ATOM     30  C   UNL     1      49.106   4.368  19.345  0.00  0.00    +0.000 C 
ATOM     31  O   UNL     1      49.948   4.777  20.134  0.00  0.00    +0.000 OA
ATOM     32  H   UNL     1      48.658   2.706  20.423  0.00  0.00    +0.000 HD
ATOM     33  H   UNL     1      47.889   2.732  18.874  0.00  0.00    +0.000 HD
ENDBRANCH  21  30
ENDBRANCH  20  25
ENDBRANCH   1  20
TORSDOF 7
ENDMDL
MODEL 5
REMARK VINA RESULT:    -8.111      1.966      2.360
REMARK INTER + INTRA:         -10.972
REMARK INTER:                 -11.637
REMARK INTRA:                   0.665
REMARK UNBOUND:                 0.457
REMARK  Name = 
REMARK  7 active torsions:
REMARK  status: ('A' for Active; 'I' for Inactive)
REMARK    1  A    between atoms: C_2  and  C_4
REMARK    2  A    between atoms: N_8  and  C_9
REMARK    3  A    between atoms: C_9  and  C_10
REMARK    4  A    between atoms: C_10  and  C_13
REMARK    5  A    between atoms: C_17  and  N_18
REMARK    6  A    between atoms: N_18  and  C_19
REMARK    7  A    between atoms: N_21  and  C_22
REMARK                            x       y       z     vdW  Elec       q    Type
REMARK                         _______ _______ _______ _____ _____    ______ ____
ROOT
ATOM      1  C   UNL     1      43.770   4.494  12.422  0.00  0.00    +0.000 C 
ATOM      2  F   UNL     1      42.666   4.739  13.207  0.00  0.00    +0.000 F 
ATOM      3  F   UNL     1      44.294   3.330  12.917  0.00  0.00    +0.000 F 
ENDROOT
BRANCH   1   4
ATOM      4  C   UNL     1      44.778   5.626  12.532  0.00  0.00    +0.000 A 
ATOM      5  C   UNL     1      44.455   6.882  11.999  0.00  0.00    +0.000 A 
ATOM      6  C   UNL     1      45.355   7.945  12.101  0.00  0.00    +0.000 A 
ATOM      7  C   UNL     1      46.595   7.767  12.727  0.00  0.00    +0.000 A 
ATOM      8  C   UNL     1      46.941   6.527  13.258  0.00  0.00    +0.000 A 
ATOM      9  C   UNL     1      46.025   5.475  13.162  0.00  0.00    +0.000 A 
BRANCH   8  10
ATOM     10  N   UNL     1      48.143   6.268  13.947  0.00  0.00    +0.000 N 
ATOM     11  H   UNL     1      48.348   5.268  13.901  0.00  0.00    +0.000 HD
BRANCH  10  12
ATOM     12  C   UNL     1      48.552   6.871  15.184  0.00  0.00    +0.000 C 
ATOM     13  C   UNL     1      50.081   7.101  15.248  0.00  0.00    +0.000 C 
ATOM     14  N   UNL     1      50.124   6.446  16.574  0.00  0.00    +0.000 NA
ATOM     15  C   UNL     1      48.773   5.896  16.349  0.00  0.00    +0.000 C 
BRANCH  14  16
ATOM     16  C   UNL     1      50.138   7.428  17.649  0.00  0.00    +0.000 C 
ATOM     17  F   UNL     1      50.169   8.709  17.217  0.00  0.00    +0.000 F 
ATOM     18  F   UNL     1      49.072   7.310  18.473  0.00  0.00    +0.000 F 
ATOM     19  F   UNL     1      51.243   7.234  18.407  0.00  0.00    +0.000 F 
ENDBRANCH  14  16
ENDBRANCH  10  12
ENDBRANCH   8  10
ENDBRANCH   1   4
BRANCH   1  20
ATOM     20  C   UNL     1      43.256   4.228  10.986  0.00  0.00    +0.000 C 
BRANCH  20  25
ATOM     21  C   UNL     1      46.505   2.371   7.719  0.00  0.00    +0.000 A 
ATOM     22  C   UNL     1      46.545   3.749   7.497  0.00  0.00    +0.000 A 
ATOM     23  C   UNL     1      45.731   4.580   8.262  0.00  0.00    +0.000 A 
ATOM     24  C   UNL     1      44.900   4.033   9.236  0.00  0.00    +0.000 A 
ATOM     25  N   UNL     1      44.049   4.898   9.941  0.00  0.00    +0.000 N 
ATOM     26  N   UNL     1      44.845   2.699   9.449  0.00  0.00    +0.000 NA
ATOM     27  C   UNL     1      45.638   1.899   8.688  0.00  0.00    +0.000 A 
ATOM     28  H   UNL     1      44.556   5.705  10.298  0.00  0.00    +0.000 HD
BRANCH  21  30
ATOM     29  N   UNL     1      48.383   1.908   6.252  0.00  0.00    +0.000 N 
ATOM     30  C   UNL     1      47.319   1.410   6.951  0.00  0.00    +0.000 C 
ATOM     31  O   UNL     1      47.075   0.211   6.967  0.00  0.00    +0.000 OA
ATOM     32  H   UNL     1      48.991   1.228   5.813  0.00  0.00    +0.000 HD
ATOM     33  H   UNL     1      48.756   2.833   6.412  0.00  0.00    +0.000 HD
ENDBRANCH  21  30
ENDBRANCH  20  25
ENDBRANCH   1  20
TORSDOF 7
ENDMDL
MODEL 6
REMARK VINA RESULT:    -7.909      3.573      4.408
REMARK INTER + INTRA:         -10.688
REMARK INTER:                 -11.048
REMARK INTRA:                   0.361
REMARK UNBOUND:                 0.457
REMARK  Name = 
REMARK  7 active torsions:
REMARK  status: ('A' for Active; 'I' for Inactive)
REMARK    1  A    between atoms: C_2  and  C_4
REMARK    2  A    between atoms: N_8  and  C_9
REMARK    3  A    between atoms: C_9  and  C_10
REMARK    4  A    between atoms: C_10  and  C_13
REMARK    5  A    between atoms: C_17  and  N_18
REMARK    6  A    between atoms: N_18  and  C_19
REMARK    7  A    between atoms: N_21  and  C_22
REMARK                            x       y       z     vdW  Elec       q    Type
REMARK                         _______ _______ _______ _____ _____    ______ ____
ROOT
ATOM      1  C   UNL     1      43.562   5.783  11.702  0.00  0.00    +0.000 C 
ATOM      2  F   UNL     1      43.157   7.085  11.519  0.00  0.00    +0.000 F 
ATOM      3  F   UNL     1      42.648   5.257  12.576  0.00  0.00    +0.000 F 
ENDROOT
BRANCH   1   4
ATOM      4  C   UNL     1      44.962   5.725  12.290  0.00  0.00    +0.000 A 
ATOM      5  C   UNL     1      45.230   4.820  13.326  0.00  0.00    +0.000 A 
ATOM      6  C   UNL     1      46.512   4.732  13.873  0.00  0.00    +0.000 A 
ATOM      7  C   UNL     1      47.543   5.553  13.400  0.00  0.00    +0.000 A 
ATOM      8  C   UNL     1      47.300   6.464  12.375  0.00  0.00    +0.000 A 
ATOM      9  C   UNL     1      46.015   6.532  11.827  0.00  0.00    +0.000 A 
BRANCH   8  10
ATOM     10  N   UNL     1      48.285   7.295  11.803  0.00  0.00    +0.000 N 
ATOM     11  H   UNL     1      48.229   7.230  10.785  0.00  0.00    +0.000 HD
BRANCH  10  12
ATOM     12  C   UNL     1      49.626   7.465  12.285  0.00  0.00    +0.000 C 
ATOM     13  C   UNL     1      49.725   8.563  13.371  0.00  0.00    +0.000 C 
ATOM     14  N   UNL     1      50.850   9.185  12.639  0.00  0.00    +0.000 NA
ATOM     15  C   UNL     1      50.514   8.390  11.442  0.00  0.00    +0.000 C 
BRANCH  14  16
ATOM     16  C   UNL     1      52.132   8.796  13.208  0.00  0.00    +0.000 C 
ATOM     17  F   UNL     1      52.930   9.840  13.521  0.00  0.00    +0.000 F 
ATOM     18  F   UNL     1      51.997   8.048  14.328  0.00  0.00    +0.000 F 
ATOM     19  F   UNL     1      52.800   8.036  12.308  0.00  0.00    +0.000 F 
ENDBRANCH  14  16
ENDBRANCH  10  12
ENDBRANCH   8  10
ENDBRANCH   1   4
BRANCH   1  20
ATOM     20  C   UNL     1      43.406   5.064  10.340  0.00  0.00    +0.000 C 
BRANCH  20  25
ATOM     21  C   UNL     1      46.589   2.652   7.386  0.00  0.00    +0.000 A 
ATOM     22  C   UNL     1      46.105   1.664   8.246  0.00  0.00    +0.000 A 
ATOM     23  C   UNL     1      45.175   2.016   9.222  0.00  0.00    +0.000 A 
ATOM     24  C   UNL     1      44.738   3.334   9.322  0.00  0.00    +0.000 A 
ATOM     25  N   UNL     1      43.851   3.659  10.359  0.00  0.00    +0.000 N 
ATOM     26  N   UNL     1      45.213   4.299   8.503  0.00  0.00    +0.000 NA
ATOM     27  C   UNL     1      46.126   3.943   7.562  0.00  0.00    +0.000 A 
ATOM     28  H   UNL     1      43.070   3.008  10.395  0.00  0.00    +0.000 HD
BRANCH  21  30
ATOM     29  N   UNL     1      47.510   3.131   5.192  0.00  0.00    +0.000 N 
ATOM     30  C   UNL     1      47.584   2.380   6.332  0.00  0.00    +0.000 C 
ATOM     31  O   UNL     1      48.463   1.541   6.483  0.00  0.00    +0.000 OA
ATOM     32  H   UNL     1      48.258   3.005   4.521  0.00  0.00    +0.000 HD
ATOM     33  H   UNL     1      46.969   3.982   5.134  0.00  0.00    +0.000 HD
ENDBRANCH  21  30
ENDBRANCH  20  25
ENDBRANCH   1  20
TORSDOF 7
ENDMDL
MODEL 7
REMARK VINA RESULT:    -7.724      4.254      7.764
REMARK INTER + INTRA:         -10.427
REMARK INTER:                 -10.420
REMARK INTRA:                  -0.007
REMARK UNBOUND:                 0.457
REMARK  Name = 
REMARK  7 active torsions:
REMARK  status: ('A' for Active; 'I' for Inactive)
REMARK    1  A    between atoms: C_2  and  C_4
REMARK    2  A    between atoms: N_8  and  C_9
REMARK    3  A    between atoms: C_9  and  C_10
REMARK    4  A    between atoms: C_10  and  C_13
REMARK    5  A    between atoms: C_17  and  N_18
REMARK    6  A    between atoms: N_18  and  C_19
REMARK    7  A    between atoms: N_21  and  C_22
REMARK                            x       y       z     vdW  Elec       q    Type
REMARK                         _______ _______ _______ _____ _____    ______ ____
ROOT
ATOM      1  C   UNL     1      48.132   9.104  12.510  0.00  0.00    +0.000 C 
ATOM      2  F   UNL     1      48.493   9.963  13.522  0.00  0.00    +0.000 F 
ATOM      3  F   UNL     1      49.012   9.375  11.497  0.00  0.00    +0.000 F 
ENDROOT
BRANCH   1   4
ATOM      4  C   UNL     1      46.703   9.358  12.062  0.00  0.00    +0.000 A 
ATOM      5  C   UNL     1      46.273  10.678  11.868  0.00  0.00    +0.000 A 
ATOM      6  C   UNL     1      44.970  10.940  11.439  0.00  0.00    +0.000 A 
ATOM      7  C   UNL     1      44.075   9.890  11.208  0.00  0.00    +0.000 A 
ATOM      8  C   UNL     1      44.476   8.571  11.399  0.00  0.00    +0.000 A 
ATOM      9  C   UNL     1      45.788   8.320  11.815  0.00  0.00    +0.000 A 
BRANCH   8  10
ATOM     10  N   UNL     1      43.661   7.449  11.146  0.00  0.00    +0.000 N 
ATOM     11  H   UNL     1      42.691   7.754  11.044  0.00  0.00    +0.000 HD
BRANCH  10  12
ATOM     12  C   UNL     1      43.783   6.161  11.767  0.00  0.00    +0.000 C 
ATOM     13  C   UNL     1      44.270   5.075  10.777  0.00  0.00    +0.000 C 
ATOM     14  N   UNL     1      43.161   4.193  11.199  0.00  0.00    +0.000 NA
ATOM     15  C   UNL     1      42.488   5.340  11.840  0.00  0.00    +0.000 C 
BRANCH  14  16
ATOM     16  C   UNL     1      43.607   3.211  12.176  0.00  0.00    +0.000 C 
ATOM     17  F   UNL     1      44.950   3.056  12.221  0.00  0.00    +0.000 F 
ATOM     18  F   UNL     1      43.198   3.505  13.432  0.00  0.00    +0.000 F 
ATOM     19  F   UNL     1      43.076   2.005  11.863  0.00  0.00    +0.000 F 
ENDBRANCH  14  16
ENDBRANCH  10  12
ENDBRANCH   8  10
ENDBRANCH   1   4
BRANCH   1  20
ATOM     20  C   UNL     1      48.400   7.666  13.018  0.00  0.00    +0.000 C 
BRANCH  20  25
ATOM     21  C   UNL     1      47.982   4.520  16.840  0.00  0.00    +0.000 A 
ATOM     22  C   UNL     1      48.926   5.456  17.268  0.00  0.00    +0.000 A 
ATOM     23  C   UNL     1      49.282   6.495  16.412  0.00  0.00    +0.000 A 
ATOM     24  C   UNL     1      48.693   6.592  15.155  0.00  0.00    +0.000 A 
ATOM     25  N   UNL     1      49.126   7.616  14.299  0.00  0.00    +0.000 N 
ATOM     26  N   UNL     1      47.789   5.682  14.727  0.00  0.00    +0.000 NA
ATOM     27  C   UNL     1      47.458   4.668  15.569  0.00  0.00    +0.000 A 
ATOM     28  H   UNL     1      49.133   8.517  14.774  0.00  0.00    +0.000 HD
BRANCH  21  30
ATOM     29  N   UNL     1      48.360   3.021  18.712  0.00  0.00    +0.000 N 
ATOM     30  C   UNL     1      47.552   3.378  17.668  0.00  0.00    +0.000 C 
ATOM     31  O   UNL     1      46.497   2.796  17.454  0.00  0.00    +0.000 OA
ATOM     32  H   UNL     1      48.004   2.303  19.331  0.00  0.00    +0.000 HD
ATOM     33  H   UNL     1      49.093   3.620  19.064  0.00  0.00    +0.000 HD
ENDBRANCH  21  30
ENDBRANCH  20  25
ENDBRANCH   1  20
TORSDOF 7
ENDMDL
MODEL 8
REMARK VINA RESULT:    -7.671      4.085      8.036
REMARK INTER + INTRA:         -10.352
REMARK INTER:                 -10.731
REMARK INTRA:                   0.379
REMARK UNBOUND:                 0.457
REMARK  Name = 
REMARK  7 active torsions:
REMARK  status: ('A' for Active; 'I' for Inactive)
REMARK    1  A    between atoms: C_2  and  C_4
REMARK    2  A    between atoms: N_8  and  C_9
REMARK    3  A    between atoms: C_9  and  C_10
REMARK    4  A    between atoms: C_10  and  C_13
REMARK    5  A    between atoms: C_17  and  N_18
REMARK    6  A    between atoms: N_18  and  C_19
REMARK    7  A    between atoms: N_21  and  C_22
REMARK                            x       y       z     vdW  Elec       q    Type
REMARK                         _______ _______ _______ _____ _____    ______ ____
ROOT
ATOM      1  C   UNL     1      46.647   4.403  13.849  0.00  0.00    +0.000 C 
ATOM      2  F   UNL     1      47.424   3.282  14.026  0.00  0.00    +0.000 F 
ATOM      3  F   UNL     1      46.282   4.774  15.116  0.00  0.00    +0.000 F 
ENDROOT
BRANCH   1   4
ATOM      4  C   UNL     1      45.421   4.089  13.009  0.00  0.00    +0.000 A 
ATOM      5  C   UNL     1      44.167   4.558  13.427  0.00  0.00    +0.000 A 
ATOM      6  C   UNL     1      43.026   4.299  12.665  0.00  0.00    +0.000 A 
ATOM      7  C   UNL     1      43.117   3.561  11.480  0.00  0.00    +0.000 A 
ATOM      8  C   UNL     1      44.350   3.079  11.046  0.00  0.00    +0.000 A 
ATOM      9  C   UNL     1      45.487   3.357  11.811  0.00  0.00    +0.000 A 
BRANCH   8  10
ATOM     10  N   UNL     1      44.545   2.369   9.844  0.00  0.00    +0.000 N 
ATOM     11  H   UNL     1      44.219   1.408   9.964  0.00  0.00    +0.000 HD
BRANCH  10  12
ATOM     12  C   UNL     1      45.686   2.474   8.980  0.00  0.00    +0.000 C 
ATOM     13  C   UNL     1      45.350   3.180   7.645  0.00  0.00    +0.000 C 
ATOM     14  N   UNL     1      45.993   2.077   6.899  0.00  0.00    +0.000 NA
ATOM     15  C   UNL     1      45.971   1.239   8.114  0.00  0.00    +0.000 C 
BRANCH  14  16
ATOM     16  C   UNL     1      47.350   2.425   6.504  0.00  0.00    +0.000 C 
ATOM     17  F   UNL     1      47.857   3.486   7.170  0.00  0.00    +0.000 F 
ATOM     18  F   UNL     1      48.218   1.399   6.669  0.00  0.00    +0.000 F 
ATOM     19  F   UNL     1      47.358   2.737   5.186  0.00  0.00    +0.000 F 
ENDBRANCH  14  16
ENDBRANCH  10  12
ENDBRANCH   8  10
ENDBRANCH   1   4
BRANCH   1  20
ATOM     20  C   UNL     1      47.563   5.504  13.262  0.00  0.00    +0.000 C 
BRANCH  20  25
ATOM     21  C   UNL     1      44.511   8.927  11.353  0.00  0.00    +0.000 A 
ATOM     22  C   UNL     1      45.096   9.563  12.449  0.00  0.00    +0.000 A 
ATOM     23  C   UNL     1      46.020   8.863  13.222  0.00  0.00    +0.000 A 
ATOM     24  C   UNL     1      46.350   7.552  12.891  0.00  0.00    +0.000 A 
ATOM     25  N   UNL     1      47.235   6.861  13.732  0.00  0.00    +0.000 N 
ATOM     26  N   UNL     1      45.777   6.923  11.840  0.00  0.00    +0.000 NA
ATOM     27  C   UNL     1      44.871   7.615  11.101  0.00  0.00    +0.000 A 
ATOM     28  H   UNL     1      48.067   7.413  13.927  0.00  0.00    +0.000 HD
BRANCH  21  30
ATOM     29  N   UNL     1      42.202   9.241  10.670  0.00  0.00    +0.000 N 
ATOM     30  C   UNL     1      43.514   9.580  10.484  0.00  0.00    +0.000 C 
ATOM     31  O   UNL     1      43.841  10.418   9.654  0.00  0.00    +0.000 OA
ATOM     32  H   UNL     1      41.521   9.769  10.139  0.00  0.00    +0.000 HD
ATOM     33  H   UNL     1      41.876   8.753  11.493  0.00  0.00    +0.000 HD
ENDBRANCH  21  30
ENDBRANCH  20  25
ENDBRANCH   1  20
TORSDOF 7
ENDMDL
MODEL 9
REMARK VINA RESULT:    -7.612      2.714      3.511
REMARK INTER + INTRA:         -10.270
REMARK INTER:                 -10.648
REMARK INTRA:                   0.378
REMARK UNBOUND:                 0.457
REMARK  Name = 
REMARK  7 active torsions:
REMARK  status: ('A' for Active; 'I' for Inactive)
REMARK    1  A    between atoms: C_2  and  C_4
REMARK    2  A    between atoms: N_8  and  C_9
REMARK    3  A    between atoms: C_9  and  C_10
REMARK    4  A    between atoms: C_10  and  C_13
REMARK    5  A    between atoms: C_17  and  N_18
REMARK    6  A    between atoms: N_18  and  C_19
REMARK    7  A    between atoms: N_21  and  C_22
REMARK                            x       y       z     vdW  Elec       q    Type
REMARK                         _______ _______ _______ _____ _____    ______ ____
ROOT
ATOM      1  C   UNL     1      43.702   5.561  12.177  0.00  0.00    +0.000 C 
ATOM      2  F   UNL     1      43.524   6.849  11.727  0.00  0.00    +0.000 F 
ATOM      3  F   UNL     1      42.798   5.424  13.196  0.00  0.00    +0.000 F 
ENDROOT
BRANCH   1   4
ATOM      4  C   UNL     1      45.119   5.351  12.684  0.00  0.00    +0.000 A 
ATOM      5  C   UNL     1      45.435   4.160  13.352  0.00  0.00    +0.000 A 
ATOM      6  C   UNL     1      46.733   3.933  13.814  0.00  0.00    +0.000 A 
ATOM      7  C   UNL     1      47.732   4.894  13.623  0.00  0.00    +0.000 A 
ATOM      8  C   UNL     1      47.441   6.088  12.967  0.00  0.00    +0.000 A 
ATOM      9  C   UNL     1      46.141   6.298  12.497  0.00  0.00    +0.000 A 
BRANCH   8  10
ATOM     10  N   UNL     1      48.392   7.091  12.687  0.00  0.00    +0.000 N 
ATOM     11  H   UNL     1      49.105   6.713  12.060  0.00  0.00    +0.000 HD
BRANCH  10  12
ATOM     12  C   UNL     1      48.915   8.041  13.627  0.00  0.00    +0.000 C 
ATOM     13  C   UNL     1      48.639   7.631  15.093  0.00  0.00    +0.000 C 
ATOM     14  N   UNL     1      48.102   8.981  15.370  0.00  0.00    +0.000 NA
ATOM     15  C   UNL     1      48.007   9.243  13.920  0.00  0.00    +0.000 C 
BRANCH  14  16
ATOM     16  C   UNL     1      49.099   9.826  16.011  0.00  0.00    +0.000 C 
ATOM     17  F   UNL     1      49.578   9.322  17.170  0.00  0.00    +0.000 F 
ATOM     18  F   UNL     1      50.164  10.070  15.211  0.00  0.00    +0.000 F 
ATOM     19  F   UNL     1      48.540  11.026  16.296  0.00  0.00    +0.000 F 
ENDBRANCH  14  16
ENDBRANCH  10  12
ENDBRANCH   8  10
ENDBRANCH   1   4
BRANCH   1  20
ATOM     20  C   UNL     1      43.286   4.616  11.023  0.00  0.00    +0.000 C 
BRANCH  20  25
ATOM     21  C   UNL     1      46.257   2.098   7.941  0.00  0.00    +0.000 A 
ATOM     22  C   UNL     1      46.107   3.344   7.330  0.00  0.00    +0.000 A 
ATOM     23  C   UNL     1      45.313   4.307   7.947  0.00  0.00    +0.000 A 
ATOM     24  C   UNL     1      44.690   4.021   9.159  0.00  0.00    +0.000 A 
ATOM     25  N   UNL     1      43.848   4.995   9.716  0.00  0.00    +0.000 N 
ATOM     26  N   UNL     1      44.819   2.812   9.750  0.00  0.00    +0.000 NA
ATOM     27  C   UNL     1      45.589   1.879   9.131  0.00  0.00    +0.000 A 
ATOM     28  H   UNL     1      44.301   5.906   9.740  0.00  0.00    +0.000 HD
BRANCH  21  30
ATOM     29  N   UNL     1      46.708  -0.272   7.667  0.00  0.00    +0.000 N 
ATOM     30  C   UNL     1      47.066   1.010   7.358  0.00  0.00    +0.000 C 
ATOM     31  O   UNL     1      47.997   1.243   6.598  0.00  0.00    +0.000 OA
ATOM     32  H   UNL     1      47.205  -1.008   7.182  0.00  0.00    +0.000 HD
ATOM     33  H   UNL     1      45.814  -0.505   8.078  0.00  0.00    +0.000 HD
ENDBRANCH  21  30
ENDBRANCH  20  25
ENDBRANCH   1  20
TORSDOF 7
ENDMDL
