MODEL 1
REMARK VINA RESULT:    -9.199      0.000      0.000
REMARK INTER + INTRA:         -13.408
REMARK INTER:                 -12.426
REMARK INTRA:                  -0.982
REMARK UNBOUND:                -0.982
REMARK  Name = 
REMARK  6 active torsions:
REMARK  status: ('A' for Active; 'I' for Inactive)
REMARK    1  A    between atoms: C_2  and  C_4
REMARK    2  A    between atoms: N_8  and  C_9
REMARK    3  A    between atoms: C_9  and  C_10
REMARK    4  A    between atoms: C_10  and  C_13
REMARK    5  A    between atoms: C_17  and  O_18
REMARK    6  A    between atoms: O_18  and  C_19
REMARK                            x       y       z     vdW  Elec       q    Type
REMARK                         _______ _______ _______ _____ _____    ______ ____
ROOT
ATOM      1  C   UNL     1      43.697   4.642  12.578  0.00  0.00    +0.000 C 
ATOM      2  F   UNL     1      42.781   5.526  13.069  0.00  0.00    +0.000 F 
ATOM      3  F   UNL     1      43.508   3.489  13.287  0.00  0.00    +0.000 F 
ENDROOT
BRANCH   1   4
ATOM      4  C   UNL     1      45.120   5.157  12.691  0.00  0.00    +0.000 A 
ATOM      5  C   UNL     1      45.610   6.096  11.774  0.00  0.00    +0.000 A 
ATOM      6  C   UNL     1      46.878   6.656  11.947  0.00  0.00    +0.000 A 
ATOM      7  C   UNL     1      47.674   6.281  13.035  0.00  0.00    +0.000 A 
ATOM      8  C   UNL     1      47.209   5.326  13.938  0.00  0.00    +0.000 A 
ATOM      9  C   UNL     1      45.938   4.771  13.765  0.00  0.00    +0.000 A 
BRANCH   8  10
ATOM     10  O   UNL     1      47.878   4.901  15.059  0.00  0.00    +0.000 OA
BRANCH  10  11
ATOM     11  C   UNL     1      47.182   4.113  16.053  0.00  0.00    +0.000 C 
ATOM     12  C   UNL     1      47.176   4.624  17.507  0.00  0.00    +0.000 C 
ATOM     13  N   UNL     1      47.686   3.331  17.985  0.00  0.00    +0.000 NA
ATOM     14  C   UNL     1      47.979   2.910  16.608  0.00  0.00    +0.000 C 
ATOM     15  H   UNL     1      46.992   2.754  18.459  0.00  0.00    +0.000 HD
ENDBRANCH  10  11
ENDBRANCH   8  10
ENDBRANCH   1   4
BRANCH   1  16
ATOM     16  C   UNL     1      43.378   4.368  11.087  0.00  0.00    +0.000 C 
BRANCH  16  21
ATOM     17  C   UNL     1      46.540   2.631   7.442  0.00  0.00    +0.000 A 
ATOM     18  C   UNL     1      46.099   3.917   7.736  0.00  0.00    +0.000 A 
ATOM     19  C   UNL     1      45.206   4.096   8.791  0.00  0.00    +0.000 A 
ATOM     20  C   UNL     1      44.762   2.998   9.524  0.00  0.00    +0.000 A 
ATOM     21  N   UNL     1      43.900   3.105  10.581  0.00  0.00    +0.000 N 
ATOM     22  N   UNL     1      45.165   1.748   9.226  0.00  0.00    +0.000 NA
ATOM     23  C   UNL     1      46.034   1.585   8.194  0.00  0.00    +0.000 A 
ATOM     24  H   UNL     1      43.633   2.226  11.011  0.00  0.00    +0.000 HD
BRANCH  17  26
ATOM     25  N   UNL     1      47.448   3.163   5.261  0.00  0.00    +0.000 N 
ATOM     26  C   UNL     1      47.506   2.355   6.362  0.00  0.00    +0.000 C 
ATOM     27  O   UNL     1      48.347   1.473   6.463  0.00  0.00    +0.000 OA
ATOM     28  H   UNL     1      48.188   3.035   4.578  0.00  0.00    +0.000 HD
ATOM     29  H   UNL     1      46.962   4.048   5.263  0.00  0.00    +0.000 HD
ENDBRANCH  17  26
ENDBRANCH  16  21
ENDBRANCH   1  16
TORSDOF 6
ENDMDL
MODEL 2
REMARK VINA RESULT:    -8.321      1.186      1.234
REMARK INTER + INTRA:         -12.221
REMARK INTER:                 -11.286
REMARK INTRA:                  -0.935
REMARK UNBOUND:                -0.982
REMARK  Name = 
REMARK  6 active torsions:
REMARK  status: ('A' for Active; 'I' for Inactive)
REMARK    1  A    between atoms: C_2  and  C_4
REMARK    2  A    between atoms: N_8  and  C_9
REMARK    3  A    between atoms: C_9  and  C_10
REMARK    4  A    between atoms: C_10  and  C_13
REMARK    5  A    between atoms: C_17  and  O_18
REMARK    6  A    between atoms: O_18  and  C_19
REMARK                            x       y       z     vdW  Elec       q    Type
REMARK                         _______ _______ _______ _____ _____    ______ ____
ROOT
ATOM      1  C   UNL     1      43.757   4.753  12.679  0.00  0.00    +0.000 C 
ATOM      2  F   UNL     1      42.830   5.573  13.254  0.00  0.00    +0.000 F 
ATOM      3  F   UNL     1      43.701   3.586  13.389  0.00  0.00    +0.000 F 
ENDROOT
BRANCH   1   4
ATOM      4  C   UNL     1      45.148   5.359  12.681  0.00  0.00    +0.000 A 
ATOM      5  C   UNL     1      45.476   6.384  11.784  0.00  0.00    +0.000 A 
ATOM      6  C   UNL     1      46.718   7.019  11.864  0.00  0.00    +0.000 A 
ATOM      7  C   UNL     1      47.648   6.636  12.837  0.00  0.00    +0.000 A 
ATOM      8  C   UNL     1      47.343   5.597  13.716  0.00  0.00    +0.000 A 
ATOM      9  C   UNL     1      46.099   4.966  13.637  0.00  0.00    +0.000 A 
BRANCH   8  10
ATOM     10  O   UNL     1      48.153   5.153  14.731  0.00  0.00    +0.000 OA
BRANCH  10  11
ATOM     11  C   UNL     1      48.228   5.899  15.968  0.00  0.00    +0.000 C 
ATOM     12  C   UNL     1      49.340   6.956  16.110  0.00  0.00    +0.000 C 
ATOM     13  N   UNL     1      49.786   6.347  17.372  0.00  0.00    +0.000 NA
ATOM     14  C   UNL     1      48.942   5.169  17.129  0.00  0.00    +0.000 C 
ATOM     15  H   UNL     1      49.536   6.875  18.206  0.00  0.00    +0.000 HD
ENDBRANCH  10  11
ENDBRANCH   8  10
ENDBRANCH   1   4
BRANCH   1  16
ATOM     16  C   UNL     1      43.334   4.467  11.216  0.00  0.00    +0.000 C 
BRANCH  16  21
ATOM     17  C   UNL     1      46.378   2.733   7.471  0.00  0.00    +0.000 A 
ATOM     18  C   UNL     1      45.963   4.020   7.792  0.00  0.00    +0.000 A 
ATOM     19  C   UNL     1      45.099   4.199   8.871  0.00  0.00    +0.000 A 
ATOM     20  C   UNL     1      44.659   3.098   9.603  0.00  0.00    +0.000 A 
ATOM     21  N   UNL     1      43.826   3.204  10.682  0.00  0.00    +0.000 N 
ATOM     22  N   UNL     1      45.037   1.847   9.280  0.00  0.00    +0.000 NA
ATOM     23  C   UNL     1      45.878   1.684   8.224  0.00  0.00    +0.000 A 
ATOM     24  H   UNL     1      43.558   2.323  11.109  0.00  0.00    +0.000 HD
BRANCH  17  26
ATOM     25  N   UNL     1      47.137   3.175   5.216  0.00  0.00    +0.000 N 
ATOM     26  C   UNL     1      47.313   2.456   6.365  0.00  0.00    +0.000 C 
ATOM     27  O   UNL     1      48.228   1.654   6.482  0.00  0.00    +0.000 OA
ATOM     28  H   UNL     1      47.853   3.057   4.505  0.00  0.00    +0.000 HD
ATOM     29  H   UNL     1      46.580   4.016   5.182  0.00  0.00    +0.000 HD
ENDBRANCH  17  26
ENDBRANCH  16  21
ENDBRANCH   1  16
TORSDOF 6
ENDMDL
MODEL 3
REMARK VINA RESULT:    -8.311      2.353      2.652
REMARK INTER + INTRA:         -12.208
REMARK INTER:                 -11.238
REMARK INTRA:                  -0.970
REMARK UNBOUND:                -0.982
REMARK  Name = 
REMARK  6 active torsions:
REMARK  status: ('A' for Active; 'I' for Inactive)
REMARK    1  A    between atoms: C_2  and  C_4
REMARK    2  A    between atoms: N_8  and  C_9
REMARK    3  A    between atoms: C_9  and  C_10
REMARK    4  A    between atoms: C_10  and  C_13
REMARK    5  A    between atoms: C_17  and  O_18
REMARK    6  A    between atoms: O_18  and  C_19
REMARK                            x       y       z     vdW  Elec       q    Type
REMARK                         _______ _______ _______ _____ _____    ______ ____
ROOT
ATOM      1  C   UNL     1      44.147   4.223  12.492  0.00  0.00    +0.000 C 
ATOM      2  F   UNL     1      43.201   4.188  13.475  0.00  0.00    +0.000 F 
ATOM      3  F   UNL     1      45.081   3.293  12.853  0.00  0.00    +0.000 F 
ENDROOT
BRANCH   1   4
ATOM      4  C   UNL     1      44.751   5.604  12.317  0.00  0.00    +0.000 A 
ATOM      5  C   UNL     1      44.151   6.538  11.463  0.00  0.00    +0.000 A 
ATOM      6  C   UNL     1      44.640   7.845  11.391  0.00  0.00    +0.000 A 
ATOM      7  C   UNL     1      45.737   8.233  12.168  0.00  0.00    +0.000 A 
ATOM      8  C   UNL     1      46.361   7.304  13.000  0.00  0.00    +0.000 A 
ATOM      9  C   UNL     1      45.867   5.999  13.073  0.00  0.00    +0.000 A 
BRANCH   8  10
ATOM     10  O   UNL     1      47.420   7.569  13.832  0.00  0.00    +0.000 OA
BRANCH  10  11
ATOM     11  C   UNL     1      48.692   6.919  13.601  0.00  0.00    +0.000 C 
ATOM     12  C   UNL     1      49.946   7.530  14.254  0.00  0.00    +0.000 C 
ATOM     13  N   UNL     1      50.628   7.575  12.952  0.00  0.00    +0.000 NA
ATOM     14  C   UNL     1      49.370   7.271  12.256  0.00  0.00    +0.000 C 
ATOM     15  H   UNL     1      51.352   6.868  12.832  0.00  0.00    +0.000 HD
ENDBRANCH  10  11
ENDBRANCH   8  10
ENDBRANCH   1   4
BRANCH   1  16
ATOM     16  C   UNL     1      43.498   3.784  11.156  0.00  0.00    +0.000 C 
BRANCH  16  21
ATOM     17  C   UNL     1      46.602   2.489   7.285  0.00  0.00    +0.000 A 
ATOM     18  C   UNL     1      46.079   3.719   7.667  0.00  0.00    +0.000 A 
ATOM     19  C   UNL     1      45.227   3.774   8.769  0.00  0.00    +0.000 A 
ATOM     20  C   UNL     1      44.905   2.608   9.462  0.00  0.00    +0.000 A 
ATOM     21  N   UNL     1      44.090   2.594  10.559  0.00  0.00    +0.000 N 
ATOM     22  N   UNL     1      45.388   1.411   9.079  0.00  0.00    +0.000 NA
ATOM     23  C   UNL     1      46.215   1.369   8.002  0.00  0.00    +0.000 A 
ATOM     24  H   UNL     1      43.912   1.676  10.954  0.00  0.00    +0.000 HD
BRANCH  17  26
ATOM     25  N   UNL     1      47.465   3.296   5.172  0.00  0.00    +0.000 N 
ATOM     26  C   UNL     1      47.533   2.344   6.150  0.00  0.00    +0.000 C 
ATOM     27  O   UNL     1      48.355   1.441   6.106  0.00  0.00    +0.000 OA
ATOM     28  H   UNL     1      48.184   3.248   4.456  0.00  0.00    +0.000 HD
ATOM     29  H   UNL     1      47.000   4.182   5.309  0.00  0.00    +0.000 HD
ENDBRANCH  17  26
ENDBRANCH  16  21
ENDBRANCH   1  16
TORSDOF 6
ENDMDL
MODEL 4
REMARK VINA RESULT:    -8.266      2.397      3.220
REMARK INTER + INTRA:         -12.147
REMARK INTER:                 -11.381
REMARK INTRA:                  -0.766
REMARK UNBOUND:                -0.982
REMARK  Name = 
REMARK  6 active torsions:
REMARK  status: ('A' for Active; 'I' for Inactive)
REMARK    1  A    between atoms: C_2  and  C_4
REMARK    2  A    between atoms: N_8  and  C_9
REMARK    3  A    between atoms: C_9  and  C_10
REMARK    4  A    between atoms: C_10  and  C_13
REMARK    5  A    between atoms: C_17  and  O_18
REMARK    6  A    between atoms: O_18  and  C_19
REMARK                            x       y       z     vdW  Elec       q    Type
REMARK                         _______ _______ _______ _____ _____    ______ ____
ROOT
ATOM      1  C   UNL     1      43.186   5.544  12.108  0.00  0.00    +0.000 C 
ATOM      2  F   UNL     1      42.689   6.740  11.678  0.00  0.00    +0.000 F 
ATOM      3  F   UNL     1      42.313   5.110  13.066  0.00  0.00    +0.000 F 
ENDROOT
BRANCH   1   4
ATOM      4  C   UNL     1      44.604   5.662  12.636  0.00  0.00    +0.000 A 
ATOM      5  C   UNL     1      45.246   4.552  13.201  0.00  0.00    +0.000 A 
ATOM      6  C   UNL     1      46.588   4.632  13.580  0.00  0.00    +0.000 A 
ATOM      7  C   UNL     1      47.304   5.820  13.404  0.00  0.00    +0.000 A 
ATOM      8  C   UNL     1      46.668   6.940  12.869  0.00  0.00    +0.000 A 
ATOM      9  C   UNL     1      45.326   6.858  12.487  0.00  0.00    +0.000 A 
BRANCH   8  10
ATOM     10  O   UNL     1      47.267   8.149  12.617  0.00  0.00    +0.000 OA
BRANCH  10  11
ATOM     11  C   UNL     1      48.343   8.606  13.470  0.00  0.00    +0.000 C 
ATOM     12  C   UNL     1      48.014   8.932  14.939  0.00  0.00    +0.000 C 
ATOM     13  N   UNL     1      48.616  10.266  14.800  0.00  0.00    +0.000 NA
ATOM     14  C   UNL     1      48.685  10.109  13.341  0.00  0.00    +0.000 C 
ATOM     15  H   UNL     1      49.524  10.367  15.252  0.00  0.00    +0.000 HD
ENDBRANCH  10  11
ENDBRANCH   8  10
ENDBRANCH   1   4
BRANCH   1  16
ATOM     16  C   UNL     1      43.170   4.541  10.928  0.00  0.00    +0.000 C 
BRANCH  16  21
ATOM     17  C   UNL     1      46.433   2.304   7.666  0.00  0.00    +0.000 A 
ATOM     18  C   UNL     1      45.710   1.789   8.735  0.00  0.00    +0.000 A 
ATOM     19  C   UNL     1      44.902   2.649   9.477  0.00  0.00    +0.000 A 
ATOM     20  C   UNL     1      44.835   4.001   9.148  0.00  0.00    +0.000 A 
ATOM     21  N   UNL     1      44.050   4.895   9.823  0.00  0.00    +0.000 N 
ATOM     22  N   UNL     1      45.554   4.510   8.130  0.00  0.00    +0.000 NA
ATOM     23  C   UNL     1      46.340   3.663   7.416  0.00  0.00    +0.000 A 
ATOM     24  H   UNL     1      44.115   5.856   9.501  0.00  0.00    +0.000 HD
BRANCH  17  26
ATOM     25  N   UNL     1      48.345   2.076   6.198  0.00  0.00    +0.000 N 
ATOM     26  C   UNL     1      47.290   1.461   6.811  0.00  0.00    +0.000 C 
ATOM     27  O   UNL     1      47.092   0.261   6.690  0.00  0.00    +0.000 OA
ATOM     28  H   UNL     1      48.989   1.465   5.705  0.00  0.00    +0.000 HD
ATOM     29  H   UNL     1      48.688   2.981   6.487  0.00  0.00    +0.000 HD
ENDBRANCH  17  26
ENDBRANCH  16  21
ENDBRANCH   1  16
TORSDOF 6
ENDMDL
MODEL 5
REMARK VINA RESULT:    -8.051      2.792      4.306
REMARK INTER + INTRA:         -11.856
REMARK INTER:                 -11.540
REMARK INTRA:                  -0.316
REMARK UNBOUND:                -0.982
REMARK  Name = 
REMARK  6 active torsions:
REMARK  status: ('A' for Active; 'I' for Inactive)
REMARK    1  A    between atoms: C_2  and  C_4
REMARK    2  A    between atoms: N_8  and  C_9
REMARK    3  A    between atoms: C_9  and  C_10
REMARK    4  A    between atoms: C_10  and  C_13
REMARK    5  A    between atoms: C_17  and  O_18
REMARK    6  A    between atoms: O_18  and  C_19
REMARK                            x       y       z     vdW  Elec       q    Type
REMARK                         _______ _______ _______ _____ _____    ______ ____
ROOT
ATOM      1  C   UNL     1      43.694   4.772  12.436  0.00  0.00    +0.000 C 
ATOM      2  F   UNL     1      42.709   5.224  13.266  0.00  0.00    +0.000 F 
ATOM      3  F   UNL     1      43.909   3.473  12.800  0.00  0.00    +0.000 F 
ENDROOT
BRANCH   1   4
ATOM      4  C   UNL     1      44.956   5.609  12.526  0.00  0.00    +0.000 A 
ATOM      5  C   UNL     1      46.173   5.022  12.895  0.00  0.00    +0.000 A 
ATOM      6  C   UNL     1      47.354   5.767  12.866  0.00  0.00    +0.000 A 
ATOM      7  C   UNL     1      47.333   7.109  12.472  0.00  0.00    +0.000 A 
ATOM      8  C   UNL     1      46.124   7.713  12.130  0.00  0.00    +0.000 A 
ATOM      9  C   UNL     1      44.945   6.965  12.156  0.00  0.00    +0.000 A 
BRANCH   8  10
ATOM     10  O   UNL     1      45.978   9.008  11.697  0.00  0.00    +0.000 OA
BRANCH  10  11
ATOM     11  C   UNL     1      44.720   9.694  11.903  0.00  0.00    +0.000 C 
ATOM     12  C   UNL     1      43.714   9.726  10.737  0.00  0.00    +0.000 C 
ATOM     13  N   UNL     1      43.622  11.190  10.829  0.00  0.00    +0.000 NA
ATOM     14  C   UNL     1      44.779  11.230  11.733  0.00  0.00    +0.000 C 
ATOM     15  H   UNL     1      42.756  11.533  11.244  0.00  0.00    +0.000 HD
ENDBRANCH  10  11
ENDBRANCH   8  10
ENDBRANCH   1   4
BRANCH   1  16
ATOM     16  C   UNL     1      43.172   4.802  10.978  0.00  0.00    +0.000 C 
BRANCH  16  21
ATOM     17  C   UNL     1      46.495   2.546   7.789  0.00  0.00    +0.000 A 
ATOM     18  C   UNL     1      45.636   2.014   8.744  0.00  0.00    +0.000 A 
ATOM     19  C   UNL     1      44.847   2.881   9.497  0.00  0.00    +0.000 A 
ATOM     20  C   UNL     1      44.933   4.257   9.293  0.00  0.00    +0.000 A 
ATOM     21  N   UNL     1      44.176   5.163   9.985  0.00  0.00    +0.000 N 
ATOM     22  N   UNL     1      45.783   4.779   8.389  0.00  0.00    +0.000 NA
ATOM     23  C   UNL     1      46.548   3.924   7.663  0.00  0.00    +0.000 A 
ATOM     24  H   UNL     1      44.356   6.136   9.762  0.00  0.00    +0.000 HD
BRANCH  17  26
ATOM     25  N   UNL     1      48.339   2.328   6.236  0.00  0.00    +0.000 N 
ATOM     26  C   UNL     1      47.343   1.700   6.929  0.00  0.00    +0.000 C 
ATOM     27  O   UNL     1      47.191   0.488   6.872  0.00  0.00    +0.000 OA
ATOM     28  H   UNL     1      48.983   1.722   5.738  0.00  0.00    +0.000 HD
ATOM     29  H   UNL     1      48.656   3.258   6.466  0.00  0.00    +0.000 HD
ENDBRANCH  17  26
ENDBRANCH  16  21
ENDBRANCH   1  16
TORSDOF 6
ENDMDL
MODEL 6
REMARK VINA RESULT:    -8.036      2.432      3.457
REMARK INTER + INTRA:         -11.837
REMARK INTER:                 -10.944
REMARK INTRA:                  -0.893
REMARK UNBOUND:                -0.982
REMARK  Name = 
REMARK  6 active torsions:
REMARK  status: ('A' for Active; 'I' for Inactive)
REMARK    1  A    between atoms: C_2  and  C_4
REMARK    2  A    between atoms: N_8  and  C_9
REMARK    3  A    between atoms: C_9  and  C_10
REMARK    4  A    between atoms: C_10  and  C_13
REMARK    5  A    between atoms: C_17  and  O_18
REMARK    6  A    between atoms: O_18  and  C_19
REMARK                            x       y       z     vdW  Elec       q    Type
REMARK                         _______ _______ _______ _____ _____    ______ ____
ROOT
ATOM      1  C   UNL     1      43.553   4.443  12.637  0.00  0.00    +0.000 C 
ATOM      2  F   UNL     1      42.573   5.245  13.147  0.00  0.00    +0.000 F 
ATOM      3  F   UNL     1      43.375   3.227  13.235  0.00  0.00    +0.000 F 
ENDROOT
BRANCH   1   4
ATOM      4  C   UNL     1      44.943   5.002  12.877  0.00  0.00    +0.000 A 
ATOM      5  C   UNL     1      45.911   4.238  13.541  0.00  0.00    +0.000 A 
ATOM      6  C   UNL     1      47.221   4.708  13.659  0.00  0.00    +0.000 A 
ATOM      7  C   UNL     1      47.579   5.948  13.120  0.00  0.00    +0.000 A 
ATOM      8  C   UNL     1      46.618   6.730  12.482  0.00  0.00    +0.000 A 
ATOM      9  C   UNL     1      45.309   6.257  12.362  0.00  0.00    +0.000 A 
BRANCH   8  10
ATOM     10  O   UNL     1      46.850   7.945  11.886  0.00  0.00    +0.000 OA
BRANCH  10  11
ATOM     11  C   UNL     1      46.663   9.163  12.645  0.00  0.00    +0.000 C 
ATOM     12  C   UNL     1      46.716  10.503  11.888  0.00  0.00    +0.000 C 
ATOM     13  N   UNL     1      47.731  11.014  12.820  0.00  0.00    +0.000 NA
ATOM     14  C   UNL     1      47.922   9.671  13.385  0.00  0.00    +0.000 C 
ATOM     15  H   UNL     1      47.383  11.701  13.487  0.00  0.00    +0.000 HD
ENDBRANCH  10  11
ENDBRANCH   8  10
ENDBRANCH   1   4
BRANCH   1  16
ATOM     16  C   UNL     1      43.329   4.287  11.112  0.00  0.00    +0.000 C 
BRANCH  16  21
ATOM     17  C   UNL     1      46.489   2.810   7.353  0.00  0.00    +0.000 A 
ATOM     18  C   UNL     1      46.014   4.067   7.710  0.00  0.00    +0.000 A 
ATOM     19  C   UNL     1      45.131   4.173   8.783  0.00  0.00    +0.000 A 
ATOM     20  C   UNL     1      44.731   3.030   9.473  0.00  0.00    +0.000 A 
ATOM     21  N   UNL     1      43.881   3.064  10.544  0.00  0.00    +0.000 N 
ATOM     22  N   UNL     1      45.167   1.808   9.114  0.00  0.00    +0.000 NA
ATOM     23  C   UNL     1      46.026   1.717   8.065  0.00  0.00    +0.000 A 
ATOM     24  H   UNL     1      43.647   2.159  10.939  0.00  0.00    +0.000 HD
BRANCH  17  26
ATOM     25  N   UNL     1      48.677   2.118   6.584  0.00  0.00    +0.000 N 
ATOM     26  C   UNL     1      47.447   2.611   6.250  0.00  0.00    +0.000 C 
ATOM     27  O   UNL     1      47.143   2.836   5.087  0.00  0.00    +0.000 OA
ATOM     28  H   UNL     1      49.286   1.881   5.806  0.00  0.00    +0.000 HD
ATOM     29  H   UNL     1      48.861   1.677   7.473  0.00  0.00    +0.000 HD
ENDBRANCH  17  26
ENDBRANCH  16  21
ENDBRANCH   1  16
TORSDOF 6
ENDMDL
MODEL 7
REMARK VINA RESULT:    -7.753      2.358      8.135
REMARK INTER + INTRA:         -11.454
REMARK INTER:                 -10.861
REMARK INTRA:                  -0.592
REMARK UNBOUND:                -0.982
REMARK  Name = 
REMARK  6 active torsions:
REMARK  status: ('A' for Active; 'I' for Inactive)
REMARK    1  A    between atoms: C_2  and  C_4
REMARK    2  A    between atoms: N_8  and  C_9
REMARK    3  A    between atoms: C_9  and  C_10
REMARK    4  A    between atoms: C_10  and  C_13
REMARK    5  A    between atoms: C_17  and  O_18
REMARK    6  A    between atoms: O_18  and  C_19
REMARK                            x       y       z     vdW  Elec       q    Type
REMARK                         _______ _______ _______ _____ _____    ______ ____
ROOT
ATOM      1  C   UNL     1      45.745   6.158  11.383  0.00  0.00    +0.000 C 
ATOM      2  F   UNL     1      44.892   7.206  11.193  0.00  0.00    +0.000 F 
ATOM      3  F   UNL     1      46.991   6.649  11.114  0.00  0.00    +0.000 F 
ENDROOT
BRANCH   1   4
ATOM      4  C   UNL     1      45.399   4.964  10.513  0.00  0.00    +0.000 A 
ATOM      5  C   UNL     1      44.493   3.996  10.964  0.00  0.00    +0.000 A 
ATOM      6  C   UNL     1      44.088   2.961  10.117  0.00  0.00    +0.000 A 
ATOM      7  C   UNL     1      44.587   2.877   8.813  0.00  0.00    +0.000 A 
ATOM      8  C   UNL     1      45.512   3.819   8.363  0.00  0.00    +0.000 A 
ATOM      9  C   UNL     1      45.913   4.855   9.210  0.00  0.00    +0.000 A 
BRANCH   8  10
ATOM     10  O   UNL     1      46.048   3.863   7.100  0.00  0.00    +0.000 OA
BRANCH  10  11
ATOM     11  C   UNL     1      46.489   2.640   6.465  0.00  0.00    +0.000 C 
ATOM     12  C   UNL     1      47.682   1.890   7.088  0.00  0.00    +0.000 C 
ATOM     13  N   UNL     1      48.379   1.882   5.794  0.00  0.00    +0.000 NA
ATOM     14  C   UNL     1      47.410   2.836   5.239  0.00  0.00    +0.000 C 
ATOM     15  H   UNL     1      48.388   0.976   5.326  0.00  0.00    +0.000 HD
ENDBRANCH  10  11
ENDBRANCH   8  10
ENDBRANCH   1   4
BRANCH   1  16
ATOM     16  C   UNL     1      45.688   5.730  12.871  0.00  0.00    +0.000 C 
BRANCH  16  21
ATOM     17  C   UNL     1      48.553   4.218  16.847  0.00  0.00    +0.000 A 
ATOM     18  C   UNL     1      47.448   3.633  16.238  0.00  0.00    +0.000 A 
ATOM     19  C   UNL     1      46.842   4.290  15.169  0.00  0.00    +0.000 A 
ATOM     20  C   UNL     1      47.339   5.516  14.732  0.00  0.00    +0.000 A 
ATOM     21  N   UNL     1      46.803   6.206  13.679  0.00  0.00    +0.000 N 
ATOM     22  N   UNL     1      48.392   6.100  15.334  0.00  0.00    +0.000 NA
ATOM     23  C   UNL     1      48.973   5.451  16.378  0.00  0.00    +0.000 A 
ATOM     24  H   UNL     1      47.240   7.099  13.480  0.00  0.00    +0.000 HD
BRANCH  17  26
ATOM     25  N   UNL     1      48.544   3.309  19.090  0.00  0.00    +0.000 N 
ATOM     26  C   UNL     1      49.271   3.578  17.964  0.00  0.00    +0.000 C 
ATOM     27  O   UNL     1      50.449   3.264  17.875  0.00  0.00    +0.000 OA
ATOM     28  H   UNL     1      49.020   2.769  19.806  0.00  0.00    +0.000 HD
ATOM     29  H   UNL     1      47.535   3.304  19.096  0.00  0.00    +0.000 HD
ENDBRANCH  17  26
ENDBRANCH  16  21
ENDBRANCH   1  16
TORSDOF 6
ENDMDL
MODEL 8
REMARK VINA RESULT:    -7.235      3.181      7.572
REMARK INTER + INTRA:         -10.755
REMARK INTER:                 -10.076
REMARK INTRA:                  -0.678
REMARK UNBOUND:                -0.982
REMARK  Name = 
REMARK  6 active torsions:
REMARK  status: ('A' for Active; 'I' for Inactive)
REMARK    1  A    between atoms: C_2  and  C_4
REMARK    2  A    between atoms: N_8  and  C_9
REMARK    3  A    between atoms: C_9  and  C_10
REMARK    4  A    between atoms: C_10  and  C_13
REMARK    5  A    between atoms: C_17  and  O_18
REMARK    6  A    between atoms: O_18  and  C_19
REMARK                            x       y       z     vdW  Elec       q    Type
REMARK                         _______ _______ _______ _____ _____    ______ ____
ROOT
ATOM      1  C   UNL     1      44.492   6.147  11.190  0.00  0.00    +0.000 C 
ATOM      2  F   UNL     1      43.193   6.567  11.195  0.00  0.00    +0.000 F 
ATOM      3  F   UNL     1      45.204   7.175  10.638  0.00  0.00    +0.000 F 
ENDROOT
BRANCH   1   4
ATOM      4  C   UNL     1      44.678   4.847  10.430  0.00  0.00    +0.000 A 
ATOM      5  C   UNL     1      44.080   3.666  10.887  0.00  0.00    +0.000 A 
ATOM      6  C   UNL     1      44.157   2.496  10.126  0.00  0.00    +0.000 A 
ATOM      7  C   UNL     1      44.835   2.492   8.902  0.00  0.00    +0.000 A 
ATOM      8  C   UNL     1      45.458   3.654   8.451  0.00  0.00    +0.000 A 
ATOM      9  C   UNL     1      45.378   4.823   9.212  0.00  0.00    +0.000 A 
BRANCH   8  10
ATOM     10  O   UNL     1      46.124   3.786   7.258  0.00  0.00    +0.000 OA
BRANCH  10  11
ATOM     11  C   UNL     1      46.524   2.603   6.527  0.00  0.00    +0.000 C 
ATOM     12  C   UNL     1      47.767   1.835   7.017  0.00  0.00    +0.000 C 
ATOM     13  N   UNL     1      48.364   1.904   5.675  0.00  0.00    +0.000 NA
ATOM     14  C   UNL     1      47.348   2.875   5.247  0.00  0.00    +0.000 C 
ATOM     15  H   UNL     1      48.345   1.024   5.161  0.00  0.00    +0.000 HD
ENDBRANCH  10  11
ENDBRANCH   8  10
ENDBRANCH   1   4
BRANCH   1  16
ATOM     16  C   UNL     1      44.959   5.946  12.653  0.00  0.00    +0.000 C 
BRANCH  16  21
ATOM     17  C   UNL     1      49.589   8.053  13.299  0.00  0.00    +0.000 A 
ATOM     18  C   UNL     1      49.204   6.845  12.729  0.00  0.00    +0.000 A 
ATOM     19  C   UNL     1      47.851   6.513  12.709  0.00  0.00    +0.000 A 
ATOM     20  C   UNL     1      46.910   7.380  13.261  0.00  0.00    +0.000 A 
ATOM     21  N   UNL     1      45.567   7.123  13.259  0.00  0.00    +0.000 N 
ATOM     22  N   UNL     1      47.281   8.539  13.838  0.00  0.00    +0.000 NA
ATOM     23  C   UNL     1      48.603   8.851  13.854  0.00  0.00    +0.000 A 
ATOM     24  H   UNL     1      44.993   7.822  13.719  0.00  0.00    +0.000 HD
BRANCH  17  26
ATOM     25  N   UNL     1      51.847   7.923  12.435  0.00  0.00    +0.000 N 
ATOM     26  C   UNL     1      50.995   8.496  13.337  0.00  0.00    +0.000 C 
ATOM     27  O   UNL     1      51.374   9.366  14.109  0.00  0.00    +0.000 OA
ATOM     28  H   UNL     1      52.782   8.316  12.396  0.00  0.00    +0.000 HD
ATOM     29  H   UNL     1      51.519   7.418  11.625  0.00  0.00    +0.000 HD
ENDBRANCH  17  26
ENDBRANCH  16  21
ENDBRANCH   1  16
TORSDOF 6
ENDMDL
MODEL 9
REMARK VINA RESULT:    -6.928      3.278      4.712
REMARK INTER + INTRA:         -10.340
REMARK INTER:                  -9.534
REMARK INTRA:                  -0.806
REMARK UNBOUND:                -0.982
REMARK  Name = 
REMARK  6 active torsions:
REMARK  status: ('A' for Active; 'I' for Inactive)
REMARK    1  A    between atoms: C_2  and  C_4
REMARK    2  A    between atoms: N_8  and  C_9
REMARK    3  A    between atoms: C_9  and  C_10
REMARK    4  A    between atoms: C_10  and  C_13
REMARK    5  A    between atoms: C_17  and  O_18
REMARK    6  A    between atoms: O_18  and  C_19
REMARK                            x       y       z     vdW  Elec       q    Type
REMARK                         _______ _______ _______ _____ _____    ______ ____
ROOT
ATOM      1  C   UNL     1      47.906   8.481  12.347  0.00  0.00    +0.000 C 
ATOM      2  F   UNL     1      48.211   7.446  11.512  0.00  0.00    +0.000 F 
ATOM      3  F   UNL     1      48.563   9.565  11.838  0.00  0.00    +0.000 F 
ENDROOT
BRANCH   1   4
ATOM      4  C   UNL     1      48.294   8.199  13.787  0.00  0.00    +0.000 A 
ATOM      5  C   UNL     1      48.397   9.245  14.713  0.00  0.00    +0.000 A 
ATOM      6  C   UNL     1      48.642   8.972  16.061  0.00  0.00    +0.000 A 
ATOM      7  C   UNL     1      48.791   7.652  16.499  0.00  0.00    +0.000 A 
ATOM      8  C   UNL     1      48.719   6.604  15.582  0.00  0.00    +0.000 A 
ATOM      9  C   UNL     1      48.471   6.879  14.235  0.00  0.00    +0.000 A 
BRANCH   8  10
ATOM     10  O   UNL     1      48.816   5.270  15.892  0.00  0.00    +0.000 OA
BRANCH  10  11
ATOM     11  C   UNL     1      47.627   4.532  16.260  0.00  0.00    +0.000 C 
ATOM     12  C   UNL     1      47.137   4.630  17.718  0.00  0.00    +0.000 C 
ATOM     13  N   UNL     1      47.125   3.165  17.834  0.00  0.00    +0.000 NA
ATOM     14  C   UNL     1      47.858   3.034  16.567  0.00  0.00    +0.000 C 
ATOM     15  H   UNL     1      46.195   2.749  17.823  0.00  0.00    +0.000 HD
ENDBRANCH  10  11
ENDBRANCH   8  10
ENDBRANCH   1   4
BRANCH   1  16
ATOM     16  C   UNL     1      46.381   8.746  12.280  0.00  0.00    +0.000 C 
BRANCH  16  21
ATOM     17  C   UNL     1      44.299   4.132  11.456  0.00  0.00    +0.000 A 
ATOM     18  C   UNL     1      45.015   4.977  10.616  0.00  0.00    +0.000 A 
ATOM     19  C   UNL     1      45.449   6.206  11.110  0.00  0.00    +0.000 A 
ATOM     20  C   UNL     1      45.157   6.574  12.422  0.00  0.00    +0.000 A 
ATOM     21  N   UNL     1      45.566   7.757  12.974  0.00  0.00    +0.000 N 
ATOM     22  N   UNL     1      44.441   5.771  13.230  0.00  0.00    +0.000 NA
ATOM     23  C   UNL     1      44.021   4.576  12.738  0.00  0.00    +0.000 A 
ATOM     24  H   UNL     1      45.263   7.916  13.929  0.00  0.00    +0.000 HD
BRANCH  17  26
ATOM     25  N   UNL     1      44.429   2.263   9.923  0.00  0.00    +0.000 N 
ATOM     26  C   UNL     1      43.827   2.803  11.025  0.00  0.00    +0.000 C 
ATOM     27  O   UNL     1      42.969   2.193  11.647  0.00  0.00    +0.000 OA
ATOM     28  H   UNL     1      44.175   1.305   9.704  0.00  0.00    +0.000 HD
ATOM     29  H   UNL     1      45.305   2.609   9.559  0.00  0.00    +0.000 HD
ENDBRANCH  17  26
ENDBRANCH  16  21
ENDBRANCH   1  16
TORSDOF 6
ENDMDL
