MODEL 1
REMARK VINA RESULT:    -9.665      0.000      0.000
REMARK INTER + INTRA:         -13.429
REMARK INTER:                 -12.490
REMARK INTRA:                  -0.939
REMARK UNBOUND:                -0.939
REMARK  Name = 
REMARK  5 active torsions:
REMARK  status: ('A' for Active; 'I' for Inactive)
REMARK    1  A    between atoms: C_2  and  C_4
REMARK    2  A    between atoms: N_8  and  C_9
REMARK    3  A    between atoms: C_9  and  C_10
REMARK    4  A    between atoms: C_10  and  C_13
REMARK    5  A    between atoms: C_17  and  C_18
REMARK                            x       y       z     vdW  Elec       q    Type
REMARK                         _______ _______ _______ _____ _____    ______ ____
ROOT
ATOM      1  C   UNL     1      43.573   5.692  12.025  0.00  0.00    +0.000 C 
ATOM      2  F   UNL     1      43.116   6.839  11.432  0.00  0.00    +0.000 F 
ATOM      3  F   UNL     1      42.796   5.541  13.141  0.00  0.00    +0.000 F 
ENDROOT
BRANCH   1   4
ATOM      4  C   UNL     1      45.043   5.797  12.380  0.00  0.00    +0.000 A 
ATOM      5  C   UNL     1      45.904   6.640  11.661  0.00  0.00    +0.000 A 
ATOM      6  C   UNL     1      47.230   6.802  12.044  0.00  0.00    +0.000 A 
ATOM      7  C   UNL     1      47.703   6.152  13.185  0.00  0.00    +0.000 A 
ATOM      8  C   UNL     1      46.857   5.323  13.939  0.00  0.00    +0.000 A 
ATOM      9  C   UNL     1      45.548   5.103  13.493  0.00  0.00    +0.000 A 
BRANCH   8  10
ATOM     10  C   UNL     1      47.280   4.807  15.300  0.00  0.00    +0.000 C 
ATOM     11  C   UNL     1      48.464   5.642  15.820  0.00  0.00    +0.000 C 
ATOM     12  C   UNL     1      48.991   5.089  17.132  0.00  0.00    +0.000 C 
ATOM     13  O   UNL     1      49.316   3.706  16.998  0.00  0.00    +0.000 OA
ATOM     14  C   UNL     1      48.177   2.913  16.666  0.00  0.00    +0.000 C 
ATOM     15  C   UNL     1      47.619   3.314  15.307  0.00  0.00    +0.000 C 
ENDBRANCH   8  10
ENDBRANCH   1   4
BRANCH   1  16
ATOM     16  C   UNL     1      43.292   4.509  11.071  0.00  0.00    +0.000 C 
BRANCH  16  21
ATOM     17  C   UNL     1      46.443   2.394   7.661  0.00  0.00    +0.000 A 
ATOM     18  C   UNL     1      45.628   1.796   8.614  0.00  0.00    +0.000 A 
ATOM     19  C   UNL     1      44.745   2.593   9.335  0.00  0.00    +0.000 A 
ATOM     20  C   UNL     1      44.670   3.962   9.084  0.00  0.00    +0.000 A 
ATOM     21  N   UNL     1      43.723   4.760   9.689  0.00  0.00    +0.000 N 
ATOM     22  N   UNL     1      45.466   4.548   8.171  0.00  0.00    +0.000 NA
ATOM     23  C   UNL     1      46.347   3.762   7.492  0.00  0.00    +0.000 A 
ATOM     24  H   UNL     1      43.800   5.739   9.394  0.00  0.00    +0.000 HD
BRANCH  17  26
ATOM     25  N   UNL     1      48.556   2.218   6.491  0.00  0.00    +0.000 N 
ATOM     26  C   UNL     1      47.398   1.607   6.853  0.00  0.00    +0.000 C 
ATOM     27  O   UNL     1      47.161   0.438   6.549  0.00  0.00    +0.000 OA
ATOM     28  H   UNL     1      49.246   1.645   6.017  0.00  0.00    +0.000 HD
ATOM     29  H   UNL     1      48.879   3.070   6.929  0.00  0.00    +0.000 HD
ENDBRANCH  17  26
ENDBRANCH  16  21
ENDBRANCH   1  16
TORSDOF 5
ENDMDL
MODEL 2
REMARK VINA RESULT:    -9.654      2.029      3.358
REMARK INTER + INTRA:         -13.415
REMARK INTER:                 -12.371
REMARK INTRA:                  -1.044
REMARK UNBOUND:                -0.939
REMARK  Name = 
REMARK  5 active torsions:
REMARK  status: ('A' for Active; 'I' for Inactive)
REMARK    1  A    between atoms: C_2  and  C_4
REMARK    2  A    between atoms: N_8  and  C_9
REMARK    3  A    between atoms: C_9  and  C_10
REMARK    4  A    between atoms: C_10  and  C_13
REMARK    5  A    between atoms: C_17  and  C_18
REMARK                            x       y       z     vdW  Elec       q    Type
REMARK                         _______ _______ _______ _____ _____    ______ ____
ROOT
ATOM      1  C   UNL     1      43.424   5.529  12.211  0.00  0.00    +0.000 C 
ATOM      2  F   UNL     1      42.992   6.694  11.632  0.00  0.00    +0.000 F 
ATOM      3  F   UNL     1      42.560   5.314  13.251  0.00  0.00    +0.000 F 
ENDROOT
BRANCH   1   4
ATOM      4  C   UNL     1      44.856   5.645  12.693  0.00  0.00    +0.000 A 
ATOM      5  C   UNL     1      45.423   4.664  13.521  0.00  0.00    +0.000 A 
ATOM      6  C   UNL     1      46.762   4.726  13.889  0.00  0.00    +0.000 A 
ATOM      7  C   UNL     1      47.567   5.753  13.392  0.00  0.00    +0.000 A 
ATOM      8  C   UNL     1      47.033   6.733  12.541  0.00  0.00    +0.000 A 
ATOM      9  C   UNL     1      45.664   6.705  12.247  0.00  0.00    +0.000 A 
BRANCH   8  10
ATOM     10  C   UNL     1      47.935   7.706  11.807  0.00  0.00    +0.000 C 
ATOM     11  C   UNL     1      49.407   7.356  12.092  0.00  0.00    +0.000 C 
ATOM     12  C   UNL     1      50.343   8.373  11.466  0.00  0.00    +0.000 C 
ATOM     13  O   UNL     1      50.005   9.692  11.888  0.00  0.00    +0.000 OA
ATOM     14  C   UNL     1      48.689  10.069  11.484  0.00  0.00    +0.000 C 
ATOM     15  C   UNL     1      47.647   9.173  12.139  0.00  0.00    +0.000 C 
ENDBRANCH   8  10
ENDBRANCH   1   4
BRANCH   1  16
ATOM     16  C   UNL     1      43.248   4.386  11.186  0.00  0.00    +0.000 C 
BRANCH  16  21
ATOM     17  C   UNL     1      46.487   2.534   7.706  0.00  0.00    +0.000 A 
ATOM     18  C   UNL     1      45.653   1.866   8.595  0.00  0.00    +0.000 A 
ATOM     19  C   UNL     1      44.750   2.605   9.351  0.00  0.00    +0.000 A 
ATOM     20  C   UNL     1      44.674   3.989   9.198  0.00  0.00    +0.000 A 
ATOM     21  N   UNL     1      43.709   4.738   9.837  0.00  0.00    +0.000 N 
ATOM     22  N   UNL     1      45.487   4.642   8.348  0.00  0.00    +0.000 NA
ATOM     23  C   UNL     1      46.387   3.911   7.635  0.00  0.00    +0.000 A 
ATOM     24  H   UNL     1      43.787   5.736   9.615  0.00  0.00    +0.000 HD
BRANCH  17  26
ATOM     25  N   UNL     1      48.535   2.514   6.415  0.00  0.00    +0.000 N 
ATOM     26  C   UNL     1      47.463   1.810   6.865  0.00  0.00    +0.000 C 
ATOM     27  O   UNL     1      47.322   0.614   6.613  0.00  0.00    +0.000 OA
ATOM     28  H   UNL     1      49.248   1.991   5.918  0.00  0.00    +0.000 HD
ATOM     29  H   UNL     1      48.801   3.408   6.806  0.00  0.00    +0.000 HD
ENDBRANCH  17  26
ENDBRANCH  16  21
ENDBRANCH   1  16
TORSDOF 5
ENDMDL
MODEL 3
REMARK VINA RESULT:    -9.035      2.549      3.969
REMARK INTER + INTRA:         -12.616
REMARK INTER:                 -11.653
REMARK INTRA:                  -0.962
REMARK UNBOUND:                -0.939
REMARK  Name = 
REMARK  5 active torsions:
REMARK  status: ('A' for Active; 'I' for Inactive)
REMARK    1  A    between atoms: C_2  and  C_4
REMARK    2  A    between atoms: N_8  and  C_9
REMARK    3  A    between atoms: C_9  and  C_10
REMARK    4  A    between atoms: C_10  and  C_13
REMARK    5  A    between atoms: C_17  and  C_18
REMARK                            x       y       z     vdW  Elec       q    Type
REMARK                         _______ _______ _______ _____ _____    ______ ____
ROOT
ATOM      1  C   UNL     1      43.376   4.440  12.706  0.00  0.00    +0.000 C 
ATOM      2  F   UNL     1      42.332   5.296  12.466  0.00  0.00    +0.000 F 
ATOM      3  F   UNL     1      43.017   3.759  13.837  0.00  0.00    +0.000 F 
ENDROOT
BRANCH   1   4
ATOM      4  C   UNL     1      44.678   5.191  12.899  0.00  0.00    +0.000 A 
ATOM      5  C   UNL     1      45.831   4.535  13.356  0.00  0.00    +0.000 A 
ATOM      6  C   UNL     1      47.045   5.206  13.448  0.00  0.00    +0.000 A 
ATOM      7  C   UNL     1      47.131   6.538  13.038  0.00  0.00    +0.000 A 
ATOM      8  C   UNL     1      45.999   7.211  12.552  0.00  0.00    +0.000 A 
ATOM      9  C   UNL     1      44.765   6.548  12.545  0.00  0.00    +0.000 A 
BRANCH   8  10
ATOM     10  C   UNL     1      46.124   8.567  11.885  0.00  0.00    +0.000 C 
ATOM     11  C   UNL     1      47.152   9.421  12.647  0.00  0.00    +0.000 C 
ATOM     12  C   UNL     1      47.226  10.826  12.078  0.00  0.00    +0.000 C 
ATOM     13  O   UNL     1      45.932  11.425  12.051  0.00  0.00    +0.000 OA
ATOM     14  C   UNL     1      45.023  10.711  11.215  0.00  0.00    +0.000 C 
ATOM     15  C   UNL     1      44.789   9.305  11.752  0.00  0.00    +0.000 C 
ENDBRANCH   8  10
ENDBRANCH   1   4
BRANCH   1  16
ATOM     16  C   UNL     1      43.456   3.435  11.535  0.00  0.00    +0.000 C 
BRANCH  16  21
ATOM     17  C   UNL     1      46.535   2.706   7.533  0.00  0.00    +0.000 A 
ATOM     18  C   UNL     1      45.901   1.780   8.352  0.00  0.00    +0.000 A 
ATOM     19  C   UNL     1      44.988   2.236   9.297  0.00  0.00    +0.000 A 
ATOM     20  C   UNL     1      44.705   3.597   9.400  0.00  0.00    +0.000 A 
ATOM     21  N   UNL     1      43.719   4.072  10.238  0.00  0.00    +0.000 N 
ATOM     22  N   UNL     1      45.326   4.499   8.619  0.00  0.00    +0.000 NA
ATOM     23  C   UNL     1      46.238   4.044   7.717  0.00  0.00    +0.000 A 
ATOM     24  H   UNL     1      43.633   5.092  10.192  0.00  0.00    +0.000 HD
BRANCH  17  26
ATOM     25  N   UNL     1      47.451   2.930   5.303  0.00  0.00    +0.000 N 
ATOM     26  C   UNL     1      47.508   2.292   6.501  0.00  0.00    +0.000 C 
ATOM     27  O   UNL     1      48.352   1.427   6.734  0.00  0.00    +0.000 OA
ATOM     28  H   UNL     1      48.179   2.707   4.632  0.00  0.00    +0.000 HD
ATOM     29  H   UNL     1      46.947   3.796   5.173  0.00  0.00    +0.000 HD
ENDBRANCH  17  26
ENDBRANCH  16  21
ENDBRANCH   1  16
TORSDOF 5
ENDMDL
MODEL 4
REMARK VINA RESULT:    -9.003      1.288      1.791
REMARK INTER + INTRA:         -12.574
REMARK INTER:                 -11.351
REMARK INTRA:                  -1.222
REMARK UNBOUND:                -0.939
REMARK  Name = 
REMARK  5 active torsions:
REMARK  status: ('A' for Active; 'I' for Inactive)
REMARK    1  A    between atoms: C_2  and  C_4
REMARK    2  A    between atoms: N_8  and  C_9
REMARK    3  A    between atoms: C_9  and  C_10
REMARK    4  A    between atoms: C_10  and  C_13
REMARK    5  A    between atoms: C_17  and  C_18
REMARK                            x       y       z     vdW  Elec       q    Type
REMARK                         _______ _______ _______ _____ _____    ______ ____
ROOT
ATOM      1  C   UNL     1      43.487   4.593  12.326  0.00  0.00    +0.000 C 
ATOM      2  F   UNL     1      42.471   5.503  12.452  0.00  0.00    +0.000 F 
ATOM      3  F   UNL     1      43.317   3.731  13.375  0.00  0.00    +0.000 F 
ENDROOT
BRANCH   1   4
ATOM      4  C   UNL     1      44.845   5.265  12.372  0.00  0.00    +0.000 A 
ATOM      5  C   UNL     1      45.133   6.372  11.559  0.00  0.00    +0.000 A 
ATOM      6  C   UNL     1      46.347   7.040  11.667  0.00  0.00    +0.000 A 
ATOM      7  C   UNL     1      47.276   6.634  12.626  0.00  0.00    +0.000 A 
ATOM      8  C   UNL     1      47.004   5.547  13.470  0.00  0.00    +0.000 A 
ATOM      9  C   UNL     1      45.813   4.831  13.294  0.00  0.00    +0.000 A 
BRANCH   8  10
ATOM     10  C   UNL     1      47.887   5.245  14.665  0.00  0.00    +0.000 C 
ATOM     11  C   UNL     1      47.118   4.357  15.660  0.00  0.00    +0.000 C 
ATOM     12  C   UNL     1      47.927   4.123  16.923  0.00  0.00    +0.000 C 
ATOM     13  O   UNL     1      48.329   5.365  17.498  0.00  0.00    +0.000 OA
ATOM     14  C   UNL     1      49.172   6.117  16.627  0.00  0.00    +0.000 C 
ATOM     15  C   UNL     1      48.426   6.501  15.356  0.00  0.00    +0.000 C 
ENDBRANCH   8  10
ENDBRANCH   1   4
BRANCH   1  16
ATOM     16  C   UNL     1      43.274   3.809  11.012  0.00  0.00    +0.000 C 
BRANCH  16  21
ATOM     17  C   UNL     1      46.593   2.549   7.347  0.00  0.00    +0.000 A 
ATOM     18  C   UNL     1      46.176   3.801   7.783  0.00  0.00    +0.000 A 
ATOM     19  C   UNL     1      45.362   3.883   8.907  0.00  0.00    +0.000 A 
ATOM     20  C   UNL     1      44.993   2.726   9.592  0.00  0.00    +0.000 A 
ATOM     21  N   UNL     1      44.292   2.776  10.778  0.00  0.00    +0.000 N 
ATOM     22  N   UNL     1      45.383   1.510   9.167  0.00  0.00    +0.000 NA
ATOM     23  C   UNL     1      46.156   1.441   8.049  0.00  0.00    +0.000 A 
ATOM     24  H   UNL     1      44.105   1.841  11.154  0.00  0.00    +0.000 HD
BRANCH  17  26
ATOM     25  N   UNL     1      47.302   3.275   5.149  0.00  0.00    +0.000 N 
ATOM     26  C   UNL     1      47.466   2.389   6.166  0.00  0.00    +0.000 C 
ATOM     27  O   UNL     1      48.323   1.507   6.123  0.00  0.00    +0.000 OA
ATOM     28  H   UNL     1      47.965   3.219   4.383  0.00  0.00    +0.000 HD
ATOM     29  H   UNL     1      46.793   4.141   5.261  0.00  0.00    +0.000 HD
ENDBRANCH  17  26
ENDBRANCH  16  21
ENDBRANCH   1  16
TORSDOF 5
ENDMDL
MODEL 5
REMARK VINA RESULT:    -8.982      2.425      3.007
REMARK INTER + INTRA:         -12.547
REMARK INTER:                 -11.660
REMARK INTRA:                  -0.887
REMARK UNBOUND:                -0.939
REMARK  Name = 
REMARK  5 active torsions:
REMARK  status: ('A' for Active; 'I' for Inactive)
REMARK    1  A    between atoms: C_2  and  C_4
REMARK    2  A    between atoms: N_8  and  C_9
REMARK    3  A    between atoms: C_9  and  C_10
REMARK    4  A    between atoms: C_10  and  C_13
REMARK    5  A    between atoms: C_17  and  C_18
REMARK                            x       y       z     vdW  Elec       q    Type
REMARK                         _______ _______ _______ _____ _____    ______ ____
ROOT
ATOM      1  C   UNL     1      44.465   4.685  12.301  0.00  0.00    +0.000 C 
ATOM      2  F   UNL     1      43.848   4.610  13.523  0.00  0.00    +0.000 F 
ATOM      3  F   UNL     1      45.322   3.619  12.276  0.00  0.00    +0.000 F 
ENDROOT
BRANCH   1   4
ATOM      4  C   UNL     1      45.204   5.997  12.130  0.00  0.00    +0.000 A 
ATOM      5  C   UNL     1      44.509   7.214  12.052  0.00  0.00    +0.000 A 
ATOM      6  C   UNL     1      45.192   8.423  11.985  0.00  0.00    +0.000 A 
ATOM      7  C   UNL     1      46.587   8.432  12.039  0.00  0.00    +0.000 A 
ATOM      8  C   UNL     1      47.306   7.231  12.144  0.00  0.00    +0.000 A 
ATOM      9  C   UNL     1      46.609   6.017  12.126  0.00  0.00    +0.000 A 
BRANCH   8  10
ATOM     10  C   UNL     1      48.792   7.235  12.444  0.00  0.00    +0.000 C 
ATOM     11  C   UNL     1      49.019   7.665  13.904  0.00  0.00    +0.000 C 
ATOM     12  C   UNL     1      50.500   7.790  14.215  0.00  0.00    +0.000 C 
ATOM     13  O   UNL     1      51.136   8.664  13.284  0.00  0.00    +0.000 OA
ATOM     14  C   UNL     1      51.055   8.178  11.945  0.00  0.00    +0.000 C 
ATOM     15  C   UNL     1      49.606   8.108  11.484  0.00  0.00    +0.000 C 
ENDBRANCH   8  10
ENDBRANCH   1   4
BRANCH   1  16
ATOM     16  C   UNL     1      43.395   4.476  11.206  0.00  0.00    +0.000 C 
BRANCH  16  21
ATOM     17  C   UNL     1      46.507   2.537   7.658  0.00  0.00    +0.000 A 
ATOM     18  C   UNL     1      45.647   1.894   8.540  0.00  0.00    +0.000 A 
ATOM     19  C   UNL     1      44.789   2.662   9.319  0.00  0.00    +0.000 A 
ATOM     20  C   UNL     1      44.782   4.050   9.196  0.00  0.00    +0.000 A 
ATOM     21  N   UNL     1      43.862   4.833   9.860  0.00  0.00    +0.000 N 
ATOM     22  N   UNL     1      45.621   4.679   8.353  0.00  0.00    +0.000 NA
ATOM     23  C   UNL     1      46.477   3.919   7.616  0.00  0.00    +0.000 A 
ATOM     24  H   UNL     1      43.989   5.831   9.658  0.00  0.00    +0.000 HD
BRANCH  17  26
ATOM     25  N   UNL     1      48.535   2.445   6.339  0.00  0.00    +0.000 N 
ATOM     26  C   UNL     1      47.438   1.784   6.793  0.00  0.00    +0.000 C 
ATOM     27  O   UNL     1      47.239   0.600   6.523  0.00  0.00    +0.000 OA
ATOM     28  H   UNL     1      49.217   1.898   5.824  0.00  0.00    +0.000 HD
ATOM     29  H   UNL     1      48.847   3.319   6.740  0.00  0.00    +0.000 HD
ENDBRANCH  17  26
ENDBRANCH  16  21
ENDBRANCH   1  16
TORSDOF 5
ENDMDL
MODEL 6
REMARK VINA RESULT:    -8.907      1.508      2.321
REMARK INTER + INTRA:         -12.449
REMARK INTER:                 -11.302
REMARK INTRA:                  -1.147
REMARK UNBOUND:                -0.939
REMARK  Name = 
REMARK  5 active torsions:
REMARK  status: ('A' for Active; 'I' for Inactive)
REMARK    1  A    between atoms: C_2  and  C_4
REMARK    2  A    between atoms: N_8  and  C_9
REMARK    3  A    between atoms: C_9  and  C_10
REMARK    4  A    between atoms: C_10  and  C_13
REMARK    5  A    between atoms: C_17  and  C_18
REMARK                            x       y       z     vdW  Elec       q    Type
REMARK                         _______ _______ _______ _____ _____    ______ ____
ROOT
ATOM      1  C   UNL     1      43.710   5.608  11.983  0.00  0.00    +0.000 C 
ATOM      2  F   UNL     1      43.942   6.812  11.371  0.00  0.00    +0.000 F 
ATOM      3  F   UNL     1      42.693   5.854  12.864  0.00  0.00    +0.000 F 
ENDROOT
BRANCH   1   4
ATOM      4  C   UNL     1      44.948   5.096  12.692  0.00  0.00    +0.000 A 
ATOM      5  C   UNL     1      45.235   3.724  12.747  0.00  0.00    +0.000 A 
ATOM      6  C   UNL     1      46.415   3.264  13.319  0.00  0.00    +0.000 A 
ATOM      7  C   UNL     1      47.349   4.180  13.807  0.00  0.00    +0.000 A 
ATOM      8  C   UNL     1      47.100   5.559  13.741  0.00  0.00    +0.000 A 
ATOM      9  C   UNL     1      45.871   6.004  13.239  0.00  0.00    +0.000 A 
BRANCH   8  10
ATOM     10  C   UNL     1      48.193   6.566  14.042  0.00  0.00    +0.000 C 
ATOM     11  C   UNL     1      48.707   6.352  15.477  0.00  0.00    +0.000 C 
ATOM     12  C   UNL     1      49.726   7.411  15.857  0.00  0.00    +0.000 C 
ATOM     13  O   UNL     1      49.189   8.717  15.659  0.00  0.00    +0.000 OA
ATOM     14  C   UNL     1      48.859   8.964  14.293  0.00  0.00    +0.000 C 
ATOM     15  C   UNL     1      47.760   8.018  13.826  0.00  0.00    +0.000 C 
ENDBRANCH   8  10
ENDBRANCH   1   4
BRANCH   1  16
ATOM     16  C   UNL     1      43.201   4.613  10.916  0.00  0.00    +0.000 C 
BRANCH  16  21
ATOM     17  C   UNL     1      46.502   2.507   7.645  0.00  0.00    +0.000 A 
ATOM     18  C   UNL     1      45.618   1.906   8.533  0.00  0.00    +0.000 A 
ATOM     19  C   UNL     1      44.711   2.706   9.220  0.00  0.00    +0.000 A 
ATOM     20  C   UNL     1      44.683   4.082   9.001  0.00  0.00    +0.000 A 
ATOM     21  N   UNL     1      43.720   4.888   9.569  0.00  0.00    +0.000 N 
ATOM     22  N   UNL     1      45.545   4.671   8.152  0.00  0.00    +0.000 NA
ATOM     23  C   UNL     1      46.447   3.881   7.506  0.00  0.00    +0.000 A 
ATOM     24  H   UNL     1      43.836   5.872   9.304  0.00  0.00    +0.000 HD
BRANCH  17  26
ATOM     25  N   UNL     1      48.547   2.386   6.355  0.00  0.00    +0.000 N 
ATOM     26  C   UNL     1      47.485   1.717   6.874  0.00  0.00    +0.000 C 
ATOM     27  O   UNL     1      47.357   0.501   6.738  0.00  0.00    +0.000 OA
ATOM     28  H   UNL     1      49.265   1.826   5.908  0.00  0.00    +0.000 HD
ATOM     29  H   UNL     1      48.804   3.317   6.657  0.00  0.00    +0.000 HD
ENDBRANCH  17  26
ENDBRANCH  16  21
ENDBRANCH   1  16
TORSDOF 5
ENDMDL
MODEL 7
REMARK VINA RESULT:    -7.839      3.253      8.106
REMARK INTER + INTRA:         -11.070
REMARK INTER:                 -10.228
REMARK INTRA:                  -0.841
REMARK UNBOUND:                -0.939
REMARK  Name = 
REMARK  5 active torsions:
REMARK  status: ('A' for Active; 'I' for Inactive)
REMARK    1  A    between atoms: C_2  and  C_4
REMARK    2  A    between atoms: N_8  and  C_9
REMARK    3  A    between atoms: C_9  and  C_10
REMARK    4  A    between atoms: C_10  and  C_13
REMARK    5  A    between atoms: C_17  and  C_18
REMARK                            x       y       z     vdW  Elec       q    Type
REMARK                         _______ _______ _______ _____ _____    ______ ____
ROOT
ATOM      1  C   UNL     1      46.527   6.806  12.310  0.00  0.00    +0.000 C 
ATOM      2  F   UNL     1      46.006   7.788  13.111  0.00  0.00    +0.000 F 
ATOM      3  F   UNL     1      47.291   7.471  11.390  0.00  0.00    +0.000 F 
ENDROOT
BRANCH   1   4
ATOM      4  C   UNL     1      45.435   5.994  11.644  0.00  0.00    +0.000 A 
ATOM      5  C   UNL     1      44.080   6.253  11.901  0.00  0.00    +0.000 A 
ATOM      6  C   UNL     1      43.080   5.567  11.222  0.00  0.00    +0.000 A 
ATOM      7  C   UNL     1      43.425   4.638  10.239  0.00  0.00    +0.000 A 
ATOM      8  C   UNL     1      44.772   4.377   9.943  0.00  0.00    +0.000 A 
ATOM      9  C   UNL     1      45.768   5.014  10.694  0.00  0.00    +0.000 A 
BRANCH   8  10
ATOM     10  C   UNL     1      45.160   3.559   8.727  0.00  0.00    +0.000 C 
ATOM     11  C   UNL     1      45.609   2.156   9.174  0.00  0.00    +0.000 C 
ATOM     12  C   UNL     1      46.112   1.341   7.997  0.00  0.00    +0.000 C 
ATOM     13  O   UNL     1      47.137   2.046   7.300  0.00  0.00    +0.000 OA
ATOM     14  C   UNL     1      46.670   3.278   6.753  0.00  0.00    +0.000 C 
ATOM     15  C   UNL     1      46.231   4.226   7.860  0.00  0.00    +0.000 C 
ENDBRANCH   8  10
ENDBRANCH   1   4
BRANCH   1  16
ATOM     16  C   UNL     1      47.459   5.924  13.172  0.00  0.00    +0.000 C 
BRANCH  16  21
ATOM     17  C   UNL     1      48.418   4.454  17.963  0.00  0.00    +0.000 A 
ATOM     18  C   UNL     1      48.811   5.602  17.285  0.00  0.00    +0.000 A 
ATOM     19  C   UNL     1      48.294   5.841  16.016  0.00  0.00    +0.000 A 
ATOM     20  C   UNL     1      47.383   4.951  15.450  0.00  0.00    +0.000 A 
ATOM     21  N   UNL     1      46.758   5.216  14.251  0.00  0.00    +0.000 N 
ATOM     22  N   UNL     1      47.010   3.831  16.096  0.00  0.00    +0.000 NA
ATOM     23  C   UNL     1      47.544   3.593  17.326  0.00  0.00    +0.000 A 
ATOM     24  H   UNL     1      46.115   4.466  13.978  0.00  0.00    +0.000 HD
BRANCH  17  26
ATOM     25  N   UNL     1      48.329   3.111  19.975  0.00  0.00    +0.000 N 
ATOM     26  C   UNL     1      48.920   4.142  19.317  0.00  0.00    +0.000 C 
ATOM     27  O   UNL     1      49.853   4.774  19.811  0.00  0.00    +0.000 OA
ATOM     28  H   UNL     1      48.738   2.842  20.863  0.00  0.00    +0.000 HD
ATOM     29  H   UNL     1      47.746   2.431  19.506  0.00  0.00    +0.000 HD
ENDBRANCH  17  26
ENDBRANCH  16  21
ENDBRANCH   1  16
TORSDOF 5
ENDMDL
MODEL 8
REMARK VINA RESULT:    -7.617      3.304      8.141
REMARK INTER + INTRA:         -10.783
REMARK INTER:                 -10.001
REMARK INTRA:                  -0.782
REMARK UNBOUND:                -0.939
REMARK  Name = 
REMARK  5 active torsions:
REMARK  status: ('A' for Active; 'I' for Inactive)
REMARK    1  A    between atoms: C_2  and  C_4
REMARK    2  A    between atoms: N_8  and  C_9
REMARK    3  A    between atoms: C_9  and  C_10
REMARK    4  A    between atoms: C_10  and  C_13
REMARK    5  A    between atoms: C_17  and  C_18
REMARK                            x       y       z     vdW  Elec       q    Type
REMARK                         _______ _______ _______ _____ _____    ______ ____
ROOT
ATOM      1  C   UNL     1      45.083   3.617  12.644  0.00  0.00    +0.000 C 
ATOM      2  F   UNL     1      45.906   2.540  12.843  0.00  0.00    +0.000 F 
ATOM      3  F   UNL     1      43.818   3.131  12.833  0.00  0.00    +0.000 F 
ENDROOT
BRANCH   1   4
ATOM      4  C   UNL     1      45.254   4.200  11.256  0.00  0.00    +0.000 A 
ATOM      5  C   UNL     1      45.454   5.576  11.067  0.00  0.00    +0.000 A 
ATOM      6  C   UNL     1      45.699   6.095   9.802  0.00  0.00    +0.000 A 
ATOM      7  C   UNL     1      45.791   5.233   8.708  0.00  0.00    +0.000 A 
ATOM      8  C   UNL     1      45.620   3.849   8.871  0.00  0.00    +0.000 A 
ATOM      9  C   UNL     1      45.291   3.350  10.137  0.00  0.00    +0.000 A 
BRANCH   8  10
ATOM     10  C   UNL     1      45.952   2.884   7.750  0.00  0.00    +0.000 C 
ATOM     11  C   UNL     1      46.351   1.522   8.346  0.00  0.00    +0.000 C 
ATOM     12  C   UNL     1      46.798   0.559   7.262  0.00  0.00    +0.000 C 
ATOM     13  O   UNL     1      47.839   1.137   6.476  0.00  0.00    +0.000 OA
ATOM     14  C   UNL     1      47.413   2.319   5.799  0.00  0.00    +0.000 C 
ATOM     15  C   UNL     1      47.033   3.403   6.798  0.00  0.00    +0.000 C 
ENDBRANCH   8  10
ENDBRANCH   1   4
BRANCH   1  16
ATOM     16  C   UNL     1      45.374   4.658  13.749  0.00  0.00    +0.000 C 
BRANCH  16  21
ATOM     17  C   UNL     1      48.508   4.328  17.761  0.00  0.00    +0.000 A 
ATOM     18  C   UNL     1      47.392   3.567  17.435  0.00  0.00    +0.000 A 
ATOM     19  C   UNL     1      46.785   3.764  16.199  0.00  0.00    +0.000 A 
ATOM     20  C   UNL     1      47.306   4.695  15.301  0.00  0.00    +0.000 A 
ATOM     21  N   UNL     1      46.807   4.830  14.024  0.00  0.00    +0.000 N 
ATOM     22  N   UNL     1      48.378   5.443  15.617  0.00  0.00    +0.000 NA
ATOM     23  C   UNL     1      48.947   5.262  16.841  0.00  0.00    +0.000 A 
ATOM     24  H   UNL     1      47.303   5.552  13.491  0.00  0.00    +0.000 HD
BRANCH  17  26
ATOM     25  N   UNL     1      48.513   3.587  20.066  0.00  0.00    +0.000 N 
ATOM     26  C   UNL     1      49.209   4.165  19.052  0.00  0.00    +0.000 C 
ATOM     27  O   UNL     1      50.382   4.512  19.187  0.00  0.00    +0.000 OA
ATOM     28  H   UNL     1      49.026   3.393  20.919  0.00  0.00    +0.000 HD
ATOM     29  H   UNL     1      47.654   3.076  19.913  0.00  0.00    +0.000 HD
ENDBRANCH  17  26
ENDBRANCH  16  21
ENDBRANCH   1  16
TORSDOF 5
ENDMDL
MODEL 9
REMARK VINA RESULT:    -7.385      4.381      6.701
REMARK INTER + INTRA:         -10.483
REMARK INTER:                  -9.775
REMARK INTRA:                  -0.708
REMARK UNBOUND:                -0.939
REMARK  Name = 
REMARK  5 active torsions:
REMARK  status: ('A' for Active; 'I' for Inactive)
REMARK    1  A    between atoms: C_2  and  C_4
REMARK    2  A    between atoms: N_8  and  C_9
REMARK    3  A    between atoms: C_9  and  C_10
REMARK    4  A    between atoms: C_10  and  C_13
REMARK    5  A    between atoms: C_17  and  C_18
REMARK                            x       y       z     vdW  Elec       q    Type
REMARK                         _______ _______ _______ _____ _____    ______ ____
ROOT
ATOM      1  C   UNL     1      48.181   2.909  16.813  0.00  0.00    +0.000 C 
ATOM      2  F   UNL     1      47.222   2.520  17.711  0.00  0.00    +0.000 F 
ATOM      3  F   UNL     1      48.519   1.764  16.144  0.00  0.00    +0.000 F 
ENDROOT
BRANCH   1   4
ATOM      4  C   UNL     1      49.380   3.522  17.509  0.00  0.00    +0.000 A 
ATOM      5  C   UNL     1      49.231   4.606  18.388  0.00  0.00    +0.000 A 
ATOM      6  C   UNL     1      50.318   5.108  19.093  0.00  0.00    +0.000 A 
ATOM      7  C   UNL     1      51.568   4.500  18.959  0.00  0.00    +0.000 A 
ATOM      8  C   UNL     1      51.740   3.398  18.107  0.00  0.00    +0.000 A 
ATOM      9  C   UNL     1      50.655   2.956  17.340  0.00  0.00    +0.000 A 
BRANCH   8  10
ATOM     10  C   UNL     1      53.018   2.583  18.133  0.00  0.00    +0.000 C 
ATOM     11  C   UNL     1      52.695   1.111  17.823  0.00  0.00    +0.000 C 
ATOM     12  C   UNL     1      53.932   0.240  17.947  0.00  0.00    +0.000 C 
ATOM     13  O   UNL     1      54.536   0.407  19.228  0.00  0.00    +0.000 OA
ATOM     14  C   UNL     1      54.975   1.747  19.448  0.00  0.00    +0.000 C 
ATOM     15  C   UNL     1      53.794   2.708  19.447  0.00  0.00    +0.000 C 
ENDBRANCH   8  10
ENDBRANCH   1   4
BRANCH   1  16
ATOM     16  C   UNL     1      47.533   3.888  15.807  0.00  0.00    +0.000 C 
BRANCH  16  21
ATOM     17  C   UNL     1      44.558   4.713  11.746  0.00  0.00    +0.000 A 
ATOM     18  C   UNL     1      45.140   5.618  12.625  0.00  0.00    +0.000 A 
ATOM     19  C   UNL     1      46.036   5.145  13.577  0.00  0.00    +0.000 A 
ATOM     20  C   UNL     1      46.355   3.789  13.628  0.00  0.00    +0.000 A 
ATOM     21  N   UNL     1      47.329   3.304  14.475  0.00  0.00    +0.000 N 
ATOM     22  N   UNL     1      45.784   2.907  12.789  0.00  0.00    +0.000 NA
ATOM     23  C   UNL     1      44.887   3.377  11.879  0.00  0.00    +0.000 A 
ATOM     24  H   UNL     1      47.444   2.289  14.387  0.00  0.00    +0.000 HD
BRANCH  17  26
ATOM     25  N   UNL     1      43.815   4.689   9.441  0.00  0.00    +0.000 N 
ATOM     26  C   UNL     1      43.605   5.147  10.703  0.00  0.00    +0.000 C 
ATOM     27  O   UNL     1      42.646   5.868  10.978  0.00  0.00    +0.000 OA
ATOM     28  H   UNL     1      43.107   4.913   8.750  0.00  0.00    +0.000 HD
ATOM     29  H   UNL     1      44.431   3.913   9.241  0.00  0.00    +0.000 HD
ENDBRANCH  17  26
ENDBRANCH  16  21
ENDBRANCH   1  16
TORSDOF 5
ENDMDL
