MODEL 1
REMARK VINA RESULT:    -9.102      0.000      0.000
REMARK INTER + INTRA:         -14.465
REMARK INTER:                 -13.093
REMARK INTRA:                  -1.371
REMARK UNBOUND:                -1.371
REMARK  Name = 
REMARK  9 active torsions:
REMARK  status: ('A' for Active; 'I' for Inactive)
REMARK    1  A    between atoms: C_1  and  O_2
REMARK    2  A    between atoms: O_2  and  C_3
REMARK    3  A    between atoms: C_10  and  C_11
REMARK    4  A    between atoms: N_13  and  C_14
REMARK    5  A    between atoms: C_14  and  C_15
REMARK    6  A    between atoms: C_18  and  C_19
REMARK    7  A    between atoms: C_19  and  N_20
REMARK    8  A    between atoms: C_19  and  C_21
REMARK    9  A    between atoms: C_21  and  C_22
REMARK                            x       y       z     vdW  Elec       q    Type
REMARK                         _______ _______ _______ _____ _____    ______ ____
ROOT
ATOM      1  C   UNL     1      46.927   6.222  12.635  0.00  0.00    +0.000 A 
ATOM      2  C   UNL     1      46.622   5.022  13.296  0.00  0.00    +0.000 A 
ATOM      3  C   UNL     1      45.761   4.082  12.711  0.00  0.00    +0.000 A 
ATOM      4  C   UNL     1      45.199   4.316  11.449  0.00  0.00    +0.000 A 
ATOM      5  C   UNL     1      45.488   5.534  10.809  0.00  0.00    +0.000 A 
ATOM      6  C   UNL     1      46.341   6.473  11.391  0.00  0.00    +0.000 A 
ENDROOT
BRANCH   1   7
ATOM      7  C   UNL     1      47.904   7.214  13.208  0.00  0.00    +0.000 C 
BRANCH   7  10
ATOM      8  C   UNL     1      48.948   7.072  15.415  0.00  0.00    +0.000 C 
ATOM      9  O   UNL     1      50.052   6.913  14.899  0.00  0.00    +0.000 OA
ATOM     10  N   UNL     1      47.825   7.256  14.652  0.00  0.00    +0.000 N 
ATOM     11  H   UNL     1      46.912   7.284  15.088  0.00  0.00    +0.000 HD
BRANCH   8  19
ATOM     12  C   UNL     1      48.889   4.662  17.861  0.00  0.00    +0.000 A 
ATOM     13  N   UNL     1      48.886   3.954  19.011  0.00  0.00    +0.000 NA
ATOM     14  C   UNL     1      48.772   4.616  20.165  0.00  0.00    +0.000 A 
ATOM     15  N   UNL     1      48.641   5.929  20.322  0.00  0.00    +0.000 NA
ATOM     16  C   UNL     1      48.656   6.601  19.158  0.00  0.00    +0.000 A 
ATOM     17  S   UNL     1      48.510   8.292  19.169  0.00  0.00    +0.000 S 
ATOM     18  C   UNL     1      48.657   8.363  17.479  0.00  0.00    +0.000 A 
ATOM     19  C   UNL     1      48.792   7.120  16.874  0.00  0.00    +0.000 A 
ATOM     20  C   UNL     1      48.780   6.063  17.879  0.00  0.00    +0.000 A 
BRANCH  12  22
ATOM     21  C   UNL     1      47.818   3.230  16.347  0.00  0.00    +0.000 C 
ATOM     22  O   UNL     1      48.994   3.978  16.664  0.00  0.00    +0.000 OA
ENDBRANCH  12  22
ENDBRANCH   8  19
ENDBRANCH   7  10
ENDBRANCH   1   7
BRANCH   4  23
ATOM     23  C   UNL     1      44.321   3.271  10.768  0.00  0.00    +0.000 C 
BRANCH  23  24
ATOM     24  N   UNL     1      42.978   3.273  11.363  0.00  0.00    +0.000 NA
ATOM     25  H   UNL     1      42.709   4.222  11.607  0.00  0.00    +0.000 HD
ATOM     26  H   UNL     1      43.004   2.751  12.239  0.00  0.00    +0.000 HD
ENDBRANCH  23  24
BRANCH  23  27
ATOM     27  C   UNL     1      44.303   3.518   9.236  0.00  0.00    +0.000 C 
BRANCH  27  28
ATOM     28  C   UNL     1      45.422   2.868   8.455  0.00  0.00    +0.000 A 
ATOM     29  C   UNL     1      46.285   3.635   7.659  0.00  0.00    +0.000 A 
ATOM     30  C   UNL     1      47.301   3.023   6.919  0.00  0.00    +0.000 A 
ATOM     31  C   UNL     1      47.466   1.639   6.970  0.00  0.00    +0.000 A 
ATOM     32  C   UNL     1      46.617   0.880   7.764  0.00  0.00    +0.000 A 
ATOM     33  F   UNL     1      46.772  -0.450   7.812  0.00  0.00    +0.000 F 
ATOM     34  C   UNL     1      45.601   1.478   8.503  0.00  0.00    +0.000 A 
ENDBRANCH  27  28
ENDBRANCH  23  27
ENDBRANCH   4  23
TORSDOF 8
ENDMDL
MODEL 2
REMARK VINA RESULT:    -8.754      1.353      2.329
REMARK INTER + INTRA:         -13.964
REMARK INTER:                 -12.522
REMARK INTRA:                  -1.441
REMARK UNBOUND:                -1.371
REMARK  Name = 
REMARK  9 active torsions:
REMARK  status: ('A' for Active; 'I' for Inactive)
REMARK    1  A    between atoms: C_1  and  O_2
REMARK    2  A    between atoms: O_2  and  C_3
REMARK    3  A    between atoms: C_10  and  C_11
REMARK    4  A    between atoms: N_13  and  C_14
REMARK    5  A    between atoms: C_14  and  C_15
REMARK    6  A    between atoms: C_18  and  C_19
REMARK    7  A    between atoms: C_19  and  N_20
REMARK    8  A    between atoms: C_19  and  C_21
REMARK    9  A    between atoms: C_21  and  C_22
REMARK                            x       y       z     vdW  Elec       q    Type
REMARK                         _______ _______ _______ _____ _____    ______ ____
ROOT
ATOM      1  C   UNL     1      46.881   6.106  12.959  0.00  0.00    +0.000 A 
ATOM      2  C   UNL     1      46.479   4.903  13.559  0.00  0.00    +0.000 A 
ATOM      3  C   UNL     1      45.641   4.008  12.877  0.00  0.00    +0.000 A 
ATOM      4  C   UNL     1      45.199   4.290  11.578  0.00  0.00    +0.000 A 
ATOM      5  C   UNL     1      45.585   5.513  10.997  0.00  0.00    +0.000 A 
ATOM      6  C   UNL     1      46.415   6.406  11.675  0.00  0.00    +0.000 A 
ENDROOT
BRANCH   1   7
ATOM      7  C   UNL     1      47.837   7.048  13.639  0.00  0.00    +0.000 C 
BRANCH   7  10
ATOM      8  C   UNL     1      49.018   6.643  15.742  0.00  0.00    +0.000 C 
ATOM      9  O   UNL     1      50.099   6.667  15.158  0.00  0.00    +0.000 OA
ATOM     10  N   UNL     1      47.841   6.849  15.073  0.00  0.00    +0.000 N 
ATOM     11  H   UNL     1      46.956   6.726  15.548  0.00  0.00    +0.000 HD
BRANCH   8  19
ATOM     12  C   UNL     1      47.846   8.566  18.335  0.00  0.00    +0.000 A 
ATOM     13  N   UNL     1      47.420   9.065  19.515  0.00  0.00    +0.000 NA
ATOM     14  C   UNL     1      47.573   8.319  20.613  0.00  0.00    +0.000 A 
ATOM     15  N   UNL     1      48.125   7.113  20.688  0.00  0.00    +0.000 NA
ATOM     16  C   UNL     1      48.529   6.646  19.494  0.00  0.00    +0.000 A 
ATOM     17  S   UNL     1      49.250   5.112  19.400  0.00  0.00    +0.000 S 
ATOM     18  C   UNL     1      49.408   5.238  17.714  0.00  0.00    +0.000 A 
ATOM     19  C   UNL     1      48.946   6.441  17.195  0.00  0.00    +0.000 A 
ATOM     20  C   UNL     1      48.431   7.289  18.263  0.00  0.00    +0.000 A 
BRANCH  12  22
ATOM     21  C   UNL     1      48.816  10.206  16.973  0.00  0.00    +0.000 C 
ATOM     22  O   UNL     1      47.702   9.341  17.199  0.00  0.00    +0.000 OA
ENDBRANCH  12  22
ENDBRANCH   8  19
ENDBRANCH   7  10
ENDBRANCH   1   7
BRANCH   4  23
ATOM     23  C   UNL     1      44.349   3.294  10.796  0.00  0.00    +0.000 C 
BRANCH  23  24
ATOM     24  N   UNL     1      42.994   3.234  11.359  0.00  0.00    +0.000 NA
ATOM     25  H   UNL     1      42.647   4.175  11.526  0.00  0.00    +0.000 HD
ATOM     26  H   UNL     1      43.035   2.780  12.271  0.00  0.00    +0.000 HD
ENDBRANCH  23  24
BRANCH  23  27
ATOM     27  C   UNL     1      44.362   3.662   9.288  0.00  0.00    +0.000 C 
BRANCH  27  28
ATOM     28  C   UNL     1      45.433   2.991   8.460  0.00  0.00    +0.000 A 
ATOM     29  C   UNL     1      46.233   3.734   7.579  0.00  0.00    +0.000 A 
ATOM     30  C   UNL     1      47.204   3.102   6.796  0.00  0.00    +0.000 A 
ATOM     31  C   UNL     1      47.388   1.723   6.889  0.00  0.00    +0.000 A 
ATOM     32  C   UNL     1      46.602   0.988   7.768  0.00  0.00    +0.000 A 
ATOM     33  F   UNL     1      46.775  -0.338   7.856  0.00  0.00    +0.000 F 
ATOM     34  C   UNL     1      45.631   1.606   8.549  0.00  0.00    +0.000 A 
ENDBRANCH  27  28
ENDBRANCH  23  27
ENDBRANCH   4  23
TORSDOF 8
ENDMDL
MODEL 3
REMARK VINA RESULT:    -8.720      1.643      2.049
REMARK INTER + INTRA:         -13.914
REMARK INTER:                 -12.417
REMARK INTRA:                  -1.497
REMARK UNBOUND:                -1.371
REMARK  Name = 
REMARK  9 active torsions:
REMARK  status: ('A' for Active; 'I' for Inactive)
REMARK    1  A    between atoms: C_1  and  O_2
REMARK    2  A    between atoms: O_2  and  C_3
REMARK    3  A    between atoms: C_10  and  C_11
REMARK    4  A    between atoms: N_13  and  C_14
REMARK    5  A    between atoms: C_14  and  C_15
REMARK    6  A    between atoms: C_18  and  C_19
REMARK    7  A    between atoms: C_19  and  N_20
REMARK    8  A    between atoms: C_19  and  C_21
REMARK    9  A    between atoms: C_21  and  C_22
REMARK                            x       y       z     vdW  Elec       q    Type
REMARK                         _______ _______ _______ _____ _____    ______ ____
ROOT
ATOM      1  C   UNL     1      46.604   6.221  12.816  0.00  0.00    +0.000 A 
ATOM      2  C   UNL     1      46.053   6.469  11.549  0.00  0.00    +0.000 A 
ATOM      3  C   UNL     1      45.341   5.469  10.871  0.00  0.00    +0.000 A 
ATOM      4  C   UNL     1      45.152   4.207  11.449  0.00  0.00    +0.000 A 
ATOM      5  C   UNL     1      45.734   3.961  12.706  0.00  0.00    +0.000 A 
ATOM      6  C   UNL     1      46.447   4.952  13.381  0.00  0.00    +0.000 A 
ENDROOT
BRANCH   1   7
ATOM      7  C   UNL     1      47.311   7.298  13.595  0.00  0.00    +0.000 C 
BRANCH   7  10
ATOM      8  C   UNL     1      49.280   7.594  15.014  0.00  0.00    +0.000 C 
ATOM      9  O   UNL     1      49.100   8.810  15.037  0.00  0.00    +0.000 OA
ATOM     10  N   UNL     1      48.425   6.760  14.344  0.00  0.00    +0.000 N 
ATOM     11  H   UNL     1      48.643   5.776  14.251  0.00  0.00    +0.000 HD
BRANCH   8  19
ATOM     12  C   UNL     1      49.468   5.063  17.328  0.00  0.00    +0.000 A 
ATOM     13  N   UNL     1      49.842   4.090  18.186  0.00  0.00    +0.000 NA
ATOM     14  C   UNL     1      51.143   3.941  18.451  0.00  0.00    +0.000 A 
ATOM     15  N   UNL     1      52.144   4.669  17.967  0.00  0.00    +0.000 NA
ATOM     16  C   UNL     1      51.734   5.621  17.111  0.00  0.00    +0.000 A 
ATOM     17  S   UNL     1      52.882   6.640  16.387  0.00  0.00    +0.000 S 
ATOM     18  C   UNL     1      51.679   7.444  15.499  0.00  0.00    +0.000 A 
ATOM     19  C   UNL     1      50.393   6.980  15.748  0.00  0.00    +0.000 A 
ATOM     20  C   UNL     1      50.425   5.896  16.722  0.00  0.00    +0.000 A 
BRANCH  12  22
ATOM     21  C   UNL     1      47.450   3.995  16.805  0.00  0.00    +0.000 C 
ATOM     22  O   UNL     1      48.121   5.229  17.062  0.00  0.00    +0.000 OA
ENDBRANCH  12  22
ENDBRANCH   8  19
ENDBRANCH   7  10
ENDBRANCH   1   7
BRANCH   4  23
ATOM     23  C   UNL     1      44.317   3.135  10.758  0.00  0.00    +0.000 C 
BRANCH  23  24
ATOM     24  N   UNL     1      42.977   3.074  11.356  0.00  0.00    +0.000 NA
ATOM     25  H   UNL     1      42.770   3.949  11.830  0.00  0.00    +0.000 HD
ATOM     26  H   UNL     1      42.968   2.352  12.075  0.00  0.00    +0.000 HD
ENDBRANCH  23  24
BRANCH  23  27
ATOM     27  C   UNL     1      44.285   3.399   9.229  0.00  0.00    +0.000 C 
BRANCH  27  28
ATOM     28  C   UNL     1      45.423   2.796   8.437  0.00  0.00    +0.000 A 
ATOM     29  C   UNL     1      46.262   3.602   7.655  0.00  0.00    +0.000 A 
ATOM     30  C   UNL     1      47.297   3.034   6.905  0.00  0.00    +0.000 A 
ATOM     31  C   UNL     1      47.504   1.656   6.932  0.00  0.00    +0.000 A 
ATOM     32  C   UNL     1      46.678   0.858   7.713  0.00  0.00    +0.000 A 
ATOM     33  F   UNL     1      46.874  -0.468   7.738  0.00  0.00    +0.000 F 
ATOM     34  C   UNL     1      45.645   1.412   8.461  0.00  0.00    +0.000 A 
ENDBRANCH  27  28
ENDBRANCH  23  27
ENDBRANCH   4  23
TORSDOF 8
ENDMDL
MODEL 4
REMARK VINA RESULT:    -8.270      1.852      2.198
REMARK INTER + INTRA:         -13.267
REMARK INTER:                 -11.854
REMARK INTRA:                  -1.413
REMARK UNBOUND:                -1.371
REMARK  Name = 
REMARK  9 active torsions:
REMARK  status: ('A' for Active; 'I' for Inactive)
REMARK    1  A    between atoms: C_1  and  O_2
REMARK    2  A    between atoms: O_2  and  C_3
REMARK    3  A    between atoms: C_10  and  C_11
REMARK    4  A    between atoms: N_13  and  C_14
REMARK    5  A    between atoms: C_14  and  C_15
REMARK    6  A    between atoms: C_18  and  C_19
REMARK    7  A    between atoms: C_19  and  N_20
REMARK    8  A    between atoms: C_19  and  C_21
REMARK    9  A    between atoms: C_21  and  C_22
REMARK                            x       y       z     vdW  Elec       q    Type
REMARK                         _______ _______ _______ _____ _____    ______ ____
ROOT
ATOM      1  C   UNL     1      46.595   6.478  12.830  0.00  0.00    +0.000 A 
ATOM      2  C   UNL     1      46.653   5.142  13.256  0.00  0.00    +0.000 A 
ATOM      3  C   UNL     1      45.894   4.153  12.613  0.00  0.00    +0.000 A 
ATOM      4  C   UNL     1      45.072   4.476  11.525  0.00  0.00    +0.000 A 
ATOM      5  C   UNL     1      44.999   5.823  11.126  0.00  0.00    +0.000 A 
ATOM      6  C   UNL     1      45.750   6.809  11.766  0.00  0.00    +0.000 A 
ENDROOT
BRANCH   1   7
ATOM      7  C   UNL     1      47.453   7.545  13.455  0.00  0.00    +0.000 C 
BRANCH   7  10
ATOM      8  C   UNL     1      49.182   7.684  15.178  0.00  0.00    +0.000 C 
ATOM      9  O   UNL     1      48.801   8.809  15.492  0.00  0.00    +0.000 OA
ATOM     10  N   UNL     1      48.556   6.968  14.193  0.00  0.00    +0.000 N 
ATOM     11  H   UNL     1      48.943   6.088  13.877  0.00  0.00    +0.000 HD
BRANCH   8  19
ATOM     12  C   UNL     1      49.430   4.866  17.125  0.00  0.00    +0.000 A 
ATOM     13  N   UNL     1      49.826   3.805  17.860  0.00  0.00    +0.000 NA
ATOM     14  C   UNL     1      51.121   3.697  18.174  0.00  0.00    +0.000 A 
ATOM     15  N   UNL     1      52.092   4.544  17.852  0.00  0.00    +0.000 NA
ATOM     16  C   UNL     1      51.661   5.582  17.115  0.00  0.00    +0.000 A 
ATOM     17  S   UNL     1      52.772   6.760  16.605  0.00  0.00    +0.000 S 
ATOM     18  C   UNL     1      51.561   7.609  15.771  0.00  0.00    +0.000 A 
ATOM     19  C   UNL     1      50.299   7.038  15.880  0.00  0.00    +0.000 A 
ATOM     20  C   UNL     1      50.357   5.831  16.695  0.00  0.00    +0.000 A 
BRANCH  12  22
ATOM     21  C   UNL     1      47.478   3.737  16.489  0.00  0.00    +0.000 C 
ATOM     22  O   UNL     1      48.089   4.987  16.810  0.00  0.00    +0.000 OA
ENDBRANCH  12  22
ENDBRANCH   8  19
ENDBRANCH   7  10
ENDBRANCH   1   7
BRANCH   4  23
ATOM     23  C   UNL     1      44.299   3.400  10.770  0.00  0.00    +0.000 C 
BRANCH  23  24
ATOM     24  N   UNL     1      42.971   3.216  11.370  0.00  0.00    +0.000 NA
ATOM     25  H   UNL     1      42.286   3.029  10.644  0.00  0.00    +0.000 HD
ATOM     26  H   UNL     1      42.684   4.089  11.813  0.00  0.00    +0.000 HD
ENDBRANCH  23  24
BRANCH  23  27
ATOM     27  C   UNL     1      44.236   3.759   9.261  0.00  0.00    +0.000 C 
BRANCH  27  28
ATOM     28  C   UNL     1      45.193   3.004   8.368  0.00  0.00    +0.000 A 
ATOM     29  C   UNL     1      45.666   1.734   8.729  0.00  0.00    +0.000 A 
ATOM     30  C   UNL     1      46.571   1.053   7.910  0.00  0.00    +0.000 A 
ATOM     31  C   UNL     1      47.010   1.633   6.721  0.00  0.00    +0.000 A 
ATOM     32  C   UNL     1      46.535   2.887   6.358  0.00  0.00    +0.000 A 
ATOM     33  F   UNL     1      46.958   3.447   5.216  0.00  0.00    +0.000 F 
ATOM     34  C   UNL     1      45.636   3.575   7.166  0.00  0.00    +0.000 A 
ENDBRANCH  27  28
ENDBRANCH  23  27
ENDBRANCH   4  23
TORSDOF 8
ENDMDL
MODEL 5
REMARK VINA RESULT:    -8.257      1.835      2.207
REMARK INTER + INTRA:         -13.249
REMARK INTER:                 -12.786
REMARK INTRA:                  -0.463
REMARK UNBOUND:                -1.371
REMARK  Name = 
REMARK  9 active torsions:
REMARK  status: ('A' for Active; 'I' for Inactive)
REMARK    1  A    between atoms: C_1  and  O_2
REMARK    2  A    between atoms: O_2  and  C_3
REMARK    3  A    between atoms: C_10  and  C_11
REMARK    4  A    between atoms: N_13  and  C_14
REMARK    5  A    between atoms: C_14  and  C_15
REMARK    6  A    between atoms: C_18  and  C_19
REMARK    7  A    between atoms: C_19  and  N_20
REMARK    8  A    between atoms: C_19  and  C_21
REMARK    9  A    between atoms: C_21  and  C_22
REMARK                            x       y       z     vdW  Elec       q    Type
REMARK                         _______ _______ _______ _____ _____    ______ ____
ROOT
ATOM      1  C   UNL     1      46.083   6.991  12.253  0.00  0.00    +0.000 A 
ATOM      2  C   UNL     1      44.901   6.391  12.714  0.00  0.00    +0.000 A 
ATOM      3  C   UNL     1      44.235   5.433  11.935  0.00  0.00    +0.000 A 
ATOM      4  C   UNL     1      44.743   5.046  10.687  0.00  0.00    +0.000 A 
ATOM      5  C   UNL     1      45.912   5.676  10.223  0.00  0.00    +0.000 A 
ATOM      6  C   UNL     1      46.574   6.631  10.994  0.00  0.00    +0.000 A 
ENDROOT
BRANCH   1   7
ATOM      7  C   UNL     1      46.856   7.967  13.099  0.00  0.00    +0.000 C 
BRANCH   7  10
ATOM      8  C   UNL     1      48.531   6.823  14.465  0.00  0.00    +0.000 C 
ATOM      9  O   UNL     1      49.341   6.875  13.542  0.00  0.00    +0.000 OA
ATOM     10  N   UNL     1      47.279   7.364  14.345  0.00  0.00    +0.000 N 
ATOM     11  H   UNL     1      46.591   7.225  15.074  0.00  0.00    +0.000 HD
BRANCH   8  19
ATOM     12  C   UNL     1      47.280   4.178  16.262  0.00  0.00    +0.000 A 
ATOM     13  N   UNL     1      47.040   3.177  17.136  0.00  0.00    +0.000 NA
ATOM     14  C   UNL     1      47.821   3.075  18.216  0.00  0.00    +0.000 A 
ATOM     15  N   UNL     1      48.827   3.875  18.551  0.00  0.00    +0.000 NA
ATOM     16  C   UNL     1      49.041   4.853  17.655  0.00  0.00    +0.000 A 
ATOM     17  S   UNL     1      50.297   5.964  17.917  0.00  0.00    +0.000 S 
ATOM     18  C   UNL     1      49.964   6.759  16.454  0.00  0.00    +0.000 A 
ATOM     19  C   UNL     1      48.890   6.221  15.755  0.00  0.00    +0.000 A 
ATOM     20  C   UNL     1      48.330   5.087  16.480  0.00  0.00    +0.000 A 
BRANCH  12  22
ATOM     21  C   UNL     1      46.983   3.611  14.009  0.00  0.00    +0.000 C 
ATOM     22  O   UNL     1      46.465   4.295  15.151  0.00  0.00    +0.000 OA
ENDBRANCH  12  22
ENDBRANCH   8  19
ENDBRANCH   7  10
ENDBRANCH   1   7
BRANCH   4  23
ATOM     23  C   UNL     1      44.071   3.953   9.863  0.00  0.00    +0.000 C 
BRANCH  23  24
ATOM     24  N   UNL     1      43.783   4.445   8.510  0.00  0.00    +0.000 NA
ATOM     25  H   UNL     1      42.793   4.660   8.424  0.00  0.00    +0.000 HD
ATOM     26  H   UNL     1      43.971   3.701   7.839  0.00  0.00    +0.000 HD
ENDBRANCH  23  24
BRANCH  23  27
ATOM     27  C   UNL     1      44.953   2.675   9.866  0.00  0.00    +0.000 C 
BRANCH  27  28
ATOM     28  C   UNL     1      45.706   2.397   8.586  0.00  0.00    +0.000 A 
ATOM     29  C   UNL     1      46.204   1.116   8.308  0.00  0.00    +0.000 A 
ATOM     30  C   UNL     1      46.922   0.872   7.133  0.00  0.00    +0.000 A 
ATOM     31  C   UNL     1      47.146   1.905   6.224  0.00  0.00    +0.000 A 
ATOM     32  C   UNL     1      46.646   3.172   6.495  0.00  0.00    +0.000 A 
ATOM     33  F   UNL     1      46.863   4.167   5.624  0.00  0.00    +0.000 F 
ATOM     34  C   UNL     1      45.933   3.426   7.661  0.00  0.00    +0.000 A 
ENDBRANCH  27  28
ENDBRANCH  23  27
ENDBRANCH   4  23
TORSDOF 8
ENDMDL
MODEL 6
REMARK VINA RESULT:    -7.893      2.464      3.356
REMARK INTER + INTRA:         -12.725
REMARK INTER:                 -11.473
REMARK INTRA:                  -1.252
REMARK UNBOUND:                -1.371
REMARK  Name = 
REMARK  9 active torsions:
REMARK  status: ('A' for Active; 'I' for Inactive)
REMARK    1  A    between atoms: C_1  and  O_2
REMARK    2  A    between atoms: O_2  and  C_3
REMARK    3  A    between atoms: C_10  and  C_11
REMARK    4  A    between atoms: N_13  and  C_14
REMARK    5  A    between atoms: C_14  and  C_15
REMARK    6  A    between atoms: C_18  and  C_19
REMARK    7  A    between atoms: C_19  and  N_20
REMARK    8  A    between atoms: C_19  and  C_21
REMARK    9  A    between atoms: C_21  and  C_22
REMARK                            x       y       z     vdW  Elec       q    Type
REMARK                         _______ _______ _______ _____ _____    ______ ____
ROOT
ATOM      1  C   UNL     1      46.736   6.238  12.836  0.00  0.00    +0.000 A 
ATOM      2  C   UNL     1      46.254   6.488  11.542  0.00  0.00    +0.000 A 
ATOM      3  C   UNL     1      45.496   5.523  10.862  0.00  0.00    +0.000 A 
ATOM      4  C   UNL     1      45.193   4.295  11.466  0.00  0.00    +0.000 A 
ATOM      5  C   UNL     1      45.707   4.044  12.751  0.00  0.00    +0.000 A 
ATOM      6  C   UNL     1      46.464   5.000  13.427  0.00  0.00    +0.000 A 
ENDROOT
BRANCH   1   7
ATOM      7  C   UNL     1      47.489   7.282  13.615  0.00  0.00    +0.000 C 
BRANCH   7  10
ATOM      8  C   UNL     1      49.054   7.251  15.494  0.00  0.00    +0.000 C 
ATOM      9  O   UNL     1      48.479   8.208  16.009  0.00  0.00    +0.000 OA
ATOM     10  N   UNL     1      48.616   6.706  14.316  0.00  0.00    +0.000 N 
ATOM     11  H   UNL     1      49.157   5.986  13.856  0.00  0.00    +0.000 HD
BRANCH   8  19
ATOM     12  C   UNL     1      52.411   7.971  15.566  0.00  0.00    +0.000 A 
ATOM     13  N   UNL     1      53.736   8.046  15.817  0.00  0.00    +0.000 NA
ATOM     14  C   UNL     1      54.280   7.138  16.632  0.00  0.00    +0.000 A 
ATOM     15  N   UNL     1      53.657   6.130  17.234  0.00  0.00    +0.000 NA
ATOM     16  C   UNL     1      52.341   6.093  16.967  0.00  0.00    +0.000 A 
ATOM     17  S   UNL     1      51.384   4.875  17.661  0.00  0.00    +0.000 S 
ATOM     18  C   UNL     1      49.980   5.500  16.940  0.00  0.00    +0.000 A 
ATOM     19  C   UNL     1      50.207   6.618  16.147  0.00  0.00    +0.000 A 
ATOM     20  C   UNL     1      51.623   6.966  16.154  0.00  0.00    +0.000 A 
BRANCH  12  22
ATOM     21  C   UNL     1      51.939   8.518  13.338  0.00  0.00    +0.000 C 
ATOM     22  O   UNL     1      51.846   8.900  14.711  0.00  0.00    +0.000 OA
ENDBRANCH  12  22
ENDBRANCH   8  19
ENDBRANCH   7  10
ENDBRANCH   1   7
BRANCH   4  23
ATOM     23  C   UNL     1      44.309   3.267  10.769  0.00  0.00    +0.000 C 
BRANCH  23  24
ATOM     24  N   UNL     1      42.969   3.263  11.371  0.00  0.00    +0.000 NA
ATOM     25  H   UNL     1      42.956   2.651  12.182  0.00  0.00    +0.000 HD
ATOM     26  H   UNL     1      42.308   2.865  10.704  0.00  0.00    +0.000 HD
ENDBRANCH  23  24
BRANCH  23  27
ATOM     27  C   UNL     1      44.285   3.542   9.242  0.00  0.00    +0.000 C 
BRANCH  27  28
ATOM     28  C   UNL     1      45.396   2.900   8.444  0.00  0.00    +0.000 A 
ATOM     29  C   UNL     1      46.225   3.670   7.615  0.00  0.00    +0.000 A 
ATOM     30  C   UNL     1      47.235   3.066   6.860  0.00  0.00    +0.000 A 
ATOM     31  C   UNL     1      47.428   1.687   6.929  0.00  0.00    +0.000 A 
ATOM     32  C   UNL     1      46.613   0.925   7.756  0.00  0.00    +0.000 A 
ATOM     33  F   UNL     1      46.795  -0.401   7.821  0.00  0.00    +0.000 F 
ATOM     34  C   UNL     1      45.604   1.515   8.510  0.00  0.00    +0.000 A 
ENDBRANCH  27  28
ENDBRANCH  23  27
ENDBRANCH   4  23
TORSDOF 8
ENDMDL
MODEL 7
REMARK VINA RESULT:    -7.885      2.065      3.690
REMARK INTER + INTRA:         -12.713
REMARK INTER:                 -11.218
REMARK INTRA:                  -1.495
REMARK UNBOUND:                -1.371
REMARK  Name = 
REMARK  9 active torsions:
REMARK  status: ('A' for Active; 'I' for Inactive)
REMARK    1  A    between atoms: C_1  and  O_2
REMARK    2  A    between atoms: O_2  and  C_3
REMARK    3  A    between atoms: C_10  and  C_11
REMARK    4  A    between atoms: N_13  and  C_14
REMARK    5  A    between atoms: C_14  and  C_15
REMARK    6  A    between atoms: C_18  and  C_19
REMARK    7  A    between atoms: C_19  and  N_20
REMARK    8  A    between atoms: C_19  and  C_21
REMARK    9  A    between atoms: C_21  and  C_22
REMARK                            x       y       z     vdW  Elec       q    Type
REMARK                         _______ _______ _______ _____ _____    ______ ____
ROOT
ATOM      1  C   UNL     1      46.591   4.493  13.647  0.00  0.00    +0.000 A 
ATOM      2  C   UNL     1      46.050   3.275  13.207  0.00  0.00    +0.000 A 
ATOM      3  C   UNL     1      45.320   3.207  12.012  0.00  0.00    +0.000 A 
ATOM      4  C   UNL     1      45.127   4.350  11.225  0.00  0.00    +0.000 A 
ATOM      5  C   UNL     1      45.648   5.571  11.690  0.00  0.00    +0.000 A 
ATOM      6  C   UNL     1      46.371   5.642  12.881  0.00  0.00    +0.000 A 
ENDROOT
BRANCH   1   7
ATOM      7  C   UNL     1      47.439   4.580  14.887  0.00  0.00    +0.000 C 
BRANCH   7  10
ATOM      8  C   UNL     1      48.710   6.267  16.119  0.00  0.00    +0.000 C 
ATOM      9  O   UNL     1      49.457   5.400  16.568  0.00  0.00    +0.000 OA
ATOM     10  N   UNL     1      47.694   5.956  15.255  0.00  0.00    +0.000 N 
ATOM     11  H   UNL     1      47.028   6.665  14.975  0.00  0.00    +0.000 HD
BRANCH   8  19
ATOM     12  C   UNL     1      48.992   9.120  14.228  0.00  0.00    +0.000 A 
ATOM     13  N   UNL     1      49.074  10.381  13.753  0.00  0.00    +0.000 NA
ATOM     14  C   UNL     1      49.184  11.384  14.630  0.00  0.00    +0.000 A 
ATOM     15  N   UNL     1      49.238  11.284  15.954  0.00  0.00    +0.000 NA
ATOM     16  C   UNL     1      49.146  10.016  16.388  0.00  0.00    +0.000 A 
ATOM     17  S   UNL     1      49.188   9.702  18.056  0.00  0.00    +0.000 S 
ATOM     18  C   UNL     1      48.985   8.036  17.795  0.00  0.00    +0.000 A 
ATOM     19  C   UNL     1      48.907   7.683  16.454  0.00  0.00    +0.000 A 
ATOM     20  C   UNL     1      49.015   8.868  15.611  0.00  0.00    +0.000 A 
BRANCH  12  22
ATOM     21  C   UNL     1      48.516   8.513  12.016  0.00  0.00    +0.000 C 
ATOM     22  O   UNL     1      48.893   8.079  13.323  0.00  0.00    +0.000 OA
ENDBRANCH  12  22
ENDBRANCH   8  19
ENDBRANCH   7  10
ENDBRANCH   1   7
BRANCH   4  23
ATOM     23  C   UNL     1      44.400   4.277   9.886  0.00  0.00    +0.000 C 
BRANCH  23  24
ATOM     24  N   UNL     1      43.246   5.186   9.887  0.00  0.00    +0.000 NA
ATOM     25  H   UNL     1      42.793   5.170  10.797  0.00  0.00    +0.000 HD
ATOM     26  H   UNL     1      42.556   4.845   9.219  0.00  0.00    +0.000 HD
ENDBRANCH  23  24
BRANCH  23  27
ATOM     27  C   UNL     1      45.395   4.564   8.731  0.00  0.00    +0.000 C 
BRANCH  27  28
ATOM     28  C   UNL     1      45.967   3.346   8.041  0.00  0.00    +0.000 A 
ATOM     29  C   UNL     1      45.801   2.065   8.587  0.00  0.00    +0.000 A 
ATOM     30  C   UNL     1      46.355   0.947   7.957  0.00  0.00    +0.000 A 
ATOM     31  C   UNL     1      47.076   1.098   6.774  0.00  0.00    +0.000 A 
ATOM     32  C   UNL     1      47.234   2.365   6.228  0.00  0.00    +0.000 A 
ATOM     33  F   UNL     1      47.929   2.512   5.092  0.00  0.00    +0.000 F 
ATOM     34  C   UNL     1      46.689   3.485   6.848  0.00  0.00    +0.000 A 
ENDBRANCH  27  28
ENDBRANCH  23  27
ENDBRANCH   4  23
TORSDOF 8
ENDMDL
MODEL 8
REMARK VINA RESULT:    -7.875      1.620      2.221
REMARK INTER + INTRA:         -12.698
REMARK INTER:                 -10.888
REMARK INTRA:                  -1.810
REMARK UNBOUND:                -1.371
REMARK  Name = 
REMARK  9 active torsions:
REMARK  status: ('A' for Active; 'I' for Inactive)
REMARK    1  A    between atoms: C_1  and  O_2
REMARK    2  A    between atoms: O_2  and  C_3
REMARK    3  A    between atoms: C_10  and  C_11
REMARK    4  A    between atoms: N_13  and  C_14
REMARK    5  A    between atoms: C_14  and  C_15
REMARK    6  A    between atoms: C_18  and  C_19
REMARK    7  A    between atoms: C_19  and  N_20
REMARK    8  A    between atoms: C_19  and  C_21
REMARK    9  A    between atoms: C_21  and  C_22
REMARK                            x       y       z     vdW  Elec       q    Type
REMARK                         _______ _______ _______ _____ _____    ______ ____
ROOT
ATOM      1  C   UNL     1      47.693   6.612  13.361  0.00  0.00    +0.000 A 
ATOM      2  C   UNL     1      46.677   7.425  12.836  0.00  0.00    +0.000 A 
ATOM      3  C   UNL     1      45.432   6.879  12.489  0.00  0.00    +0.000 A 
ATOM      4  C   UNL     1      45.173   5.514  12.673  0.00  0.00    +0.000 A 
ATOM      5  C   UNL     1      46.209   4.704  13.172  0.00  0.00    +0.000 A 
ATOM      6  C   UNL     1      47.449   5.244  13.514  0.00  0.00    +0.000 A 
ENDROOT
BRANCH   1   7
ATOM      7  C   UNL     1      49.011   7.185  13.808  0.00  0.00    +0.000 C 
BRANCH   7  10
ATOM      8  C   UNL     1      48.775   7.939  16.123  0.00  0.00    +0.000 C 
ATOM      9  O   UNL     1      48.166   8.940  15.751  0.00  0.00    +0.000 OA
ATOM     10  N   UNL     1      49.211   6.997  15.229  0.00  0.00    +0.000 N 
ATOM     11  H   UNL     1      49.798   6.233  15.539  0.00  0.00    +0.000 HD
BRANCH   8  19
ATOM     12  C   UNL     1      48.372   5.184  18.132  0.00  0.00    +0.000 A 
ATOM     13  N   UNL     1      48.372   4.266  19.122  0.00  0.00    +0.000 NA
ATOM     14  C   UNL     1      48.821   4.630  20.327  0.00  0.00    +0.000 A 
ATOM     15  N   UNL     1      49.267   5.831  20.682  0.00  0.00    +0.000 NA
ATOM     16  C   UNL     1      49.258   6.714  19.670  0.00  0.00    +0.000 A 
ATOM     17  S   UNL     1      49.805   8.298  19.942  0.00  0.00    +0.000 S 
ATOM     18  C   UNL     1      49.544   8.718  18.317  0.00  0.00    +0.000 A 
ATOM     19  C   UNL     1      49.019   7.687  17.549  0.00  0.00    +0.000 A 
ATOM     20  C   UNL     1      48.837   6.490  18.361  0.00  0.00    +0.000 A 
BRANCH  12  22
ATOM     21  C   UNL     1      47.894   3.398  16.692  0.00  0.00    +0.000 C 
ATOM     22  O   UNL     1      47.895   4.813  16.888  0.00  0.00    +0.000 OA
ENDBRANCH  12  22
ENDBRANCH   8  19
ENDBRANCH   7  10
ENDBRANCH   1   7
BRANCH   4  23
ATOM     23  C   UNL     1      43.801   4.920  12.370  0.00  0.00    +0.000 C 
BRANCH  23  24
ATOM     24  N   UNL     1      42.782   5.542  13.226  0.00  0.00    +0.000 NA
ATOM     25  H   UNL     1      41.988   4.916  13.329  0.00  0.00    +0.000 HD
ATOM     26  H   UNL     1      42.426   6.378  12.762  0.00  0.00    +0.000 HD
ENDBRANCH  23  24
BRANCH  23  27
ATOM     27  C   UNL     1      43.489   5.062  10.857  0.00  0.00    +0.000 C 
BRANCH  27  28
ATOM     28  C   UNL     1      44.288   4.167   9.937  0.00  0.00    +0.000 A 
ATOM     29  C   UNL     1      44.153   2.773   9.993  0.00  0.00    +0.000 A 
ATOM     30  C   UNL     1      44.915   1.951   9.156  0.00  0.00    +0.000 A 
ATOM     31  C   UNL     1      45.815   2.515   8.254  0.00  0.00    +0.000 A 
ATOM     32  C   UNL     1      45.943   3.897   8.193  0.00  0.00    +0.000 A 
ATOM     33  F   UNL     1      46.811   4.441   7.328  0.00  0.00    +0.000 F 
ATOM     34  C   UNL     1      45.192   4.724   9.022  0.00  0.00    +0.000 A 
ENDBRANCH  27  28
ENDBRANCH  23  27
ENDBRANCH   4  23
TORSDOF 8
ENDMDL
MODEL 9
REMARK VINA RESULT:    -7.771      3.670      5.089
REMARK INTER + INTRA:         -12.550
REMARK INTER:                 -11.169
REMARK INTRA:                  -1.381
REMARK UNBOUND:                -1.371
REMARK  Name = 
REMARK  9 active torsions:
REMARK  status: ('A' for Active; 'I' for Inactive)
REMARK    1  A    between atoms: C_1  and  O_2
REMARK    2  A    between atoms: O_2  and  C_3
REMARK    3  A    between atoms: C_10  and  C_11
REMARK    4  A    between atoms: N_13  and  C_14
REMARK    5  A    between atoms: C_14  and  C_15
REMARK    6  A    between atoms: C_18  and  C_19
REMARK    7  A    between atoms: C_19  and  N_20
REMARK    8  A    between atoms: C_19  and  C_21
REMARK    9  A    between atoms: C_21  and  C_22
REMARK                            x       y       z     vdW  Elec       q    Type
REMARK                         _______ _______ _______ _____ _____    ______ ____
ROOT
ATOM      1  C   UNL     1      46.848   6.057  12.969  0.00  0.00    +0.000 A 
ATOM      2  C   UNL     1      46.475   4.830  13.539  0.00  0.00    +0.000 A 
ATOM      3  C   UNL     1      45.659   3.933  12.835  0.00  0.00    +0.000 A 
ATOM      4  C   UNL     1      45.210   4.236  11.543  0.00  0.00    +0.000 A 
ATOM      5  C   UNL     1      45.566   5.482  10.993  0.00  0.00    +0.000 A 
ATOM      6  C   UNL     1      46.374   6.377  11.693  0.00  0.00    +0.000 A 
ENDROOT
BRANCH   1   7
ATOM      7  C   UNL     1      47.781   7.005  13.673  0.00  0.00    +0.000 C 
BRANCH   7  10
ATOM      8  C   UNL     1      49.586   8.153  12.489  0.00  0.00    +0.000 C 
ATOM      9  O   UNL     1      48.959   9.210  12.526  0.00  0.00    +0.000 OA
ATOM     10  N   UNL     1      49.090   7.010  13.057  0.00  0.00    +0.000 N 
ATOM     11  H   UNL     1      49.570   6.128  12.930  0.00  0.00    +0.000 HD
BRANCH   8  19
ATOM     12  C   UNL     1      52.702   9.190  13.493  0.00  0.00    +0.000 A 
ATOM     13  N   UNL     1      54.021   9.432  13.650  0.00  0.00    +0.000 NA
ATOM     14  C   UNL     1      54.859   9.038  12.687  0.00  0.00    +0.000 A 
ATOM     15  N   UNL     1      54.537   8.431  11.549  0.00  0.00    +0.000 NA
ATOM     16  C   UNL     1      53.219   8.201  11.432  0.00  0.00    +0.000 A 
ATOM     17  S   UNL     1      52.629   7.423  10.043  0.00  0.00    +0.000 S 
ATOM     18  C   UNL     1      51.039   7.464  10.637  0.00  0.00    +0.000 A 
ATOM     19  C   UNL     1      50.918   8.083  11.875  0.00  0.00    +0.000 A 
ATOM     20  C   UNL     1      52.222   8.535  12.346  0.00  0.00    +0.000 A 
BRANCH  12  22
ATOM     21  C   UNL     1      51.667   8.643  15.522  0.00  0.00    +0.000 C 
ATOM     22  O   UNL     1      51.831   9.609  14.482  0.00  0.00    +0.000 OA
ENDBRANCH  12  22
ENDBRANCH   8  19
ENDBRANCH   7  10
ENDBRANCH   1   7
BRANCH   4  23
ATOM     23  C   UNL     1      44.384   3.240  10.736  0.00  0.00    +0.000 C 
BRANCH  23  24
ATOM     24  N   UNL     1      43.016   3.172  11.265  0.00  0.00    +0.000 NA
ATOM     25  H   UNL     1      42.950   2.433  11.960  0.00  0.00    +0.000 HD
ATOM     26  H   UNL     1      42.382   2.910  10.511  0.00  0.00    +0.000 HD
ENDBRANCH  23  24
BRANCH  23  27
ATOM     27  C   UNL     1      44.432   3.614   9.231  0.00  0.00    +0.000 C 
BRANCH  27  28
ATOM     28  C   UNL     1      45.527   2.952   8.426  0.00  0.00    +0.000 A 
ATOM     29  C   UNL     1      46.373   3.707   7.602  0.00  0.00    +0.000 A 
ATOM     30  C   UNL     1      47.366   3.084   6.841  0.00  0.00    +0.000 A 
ATOM     31  C   UNL     1      47.525   1.700   6.898  0.00  0.00    +0.000 A 
ATOM     32  C   UNL     1      46.693   0.952   7.721  0.00  0.00    +0.000 A 
ATOM     33  F   UNL     1      46.843  -0.379   7.775  0.00  0.00    +0.000 F 
ATOM     34  C   UNL     1      45.700   1.561   8.481  0.00  0.00    +0.000 A 
ENDBRANCH  27  28
ENDBRANCH  23  27
ENDBRANCH   4  23
TORSDOF 8
ENDMDL
