MODEL 1
REMARK VINA RESULT:    -9.722      0.000      0.000
REMARK INTER + INTRA:         -14.420
REMARK INTER:                 -13.132
REMARK INTRA:                  -1.289
REMARK UNBOUND:                -1.289
REMARK  Name = 
REMARK  6 active torsions:
REMARK  status: ('A' for Active; 'I' for Inactive)
REMARK    1  A    between atoms: C_2  and  C_4
REMARK    2  A    between atoms: N_8  and  C_9
REMARK    3  A    between atoms: C_9  and  C_10
REMARK    4  A    between atoms: C_10  and  C_13
REMARK    5  A    between atoms: C_15  and  C_16
REMARK    6  A    between atoms: C_23  and  C_24
REMARK                            x       y       z     vdW  Elec       q    Type
REMARK                         _______ _______ _______ _____ _____    ______ ____
ROOT
ATOM      1  C   UNL     1      43.500   5.535  12.175  0.00  0.00    +0.000 C 
ATOM      2  F   UNL     1      43.026   6.749  11.757  0.00  0.00    +0.000 F 
ATOM      3  F   UNL     1      42.670   5.170  13.200  0.00  0.00    +0.000 F 
ENDROOT
BRANCH   1   4
ATOM      4  C   UNL     1      44.947   5.607  12.631  0.00  0.00    +0.000 A 
ATOM      5  C   UNL     1      45.811   6.517  12.001  0.00  0.00    +0.000 A 
ATOM      6  C   UNL     1      47.140   6.663  12.412  0.00  0.00    +0.000 A 
ATOM      7  C   UNL     1      47.607   5.875  13.474  0.00  0.00    +0.000 A 
ATOM      8  C   UNL     1      46.767   4.966  14.132  0.00  0.00    +0.000 A 
ATOM      9  C   UNL     1      45.438   4.825  13.690  0.00  0.00    +0.000 A 
BRANCH   6  10
ATOM     10  C   UNL     1      48.028   7.693  11.738  0.00  0.00    +0.000 C 
ATOM     11  C   UNL     1      49.515   7.435  12.030  0.00  0.00    +0.000 C 
ATOM     12  C   UNL     1      50.403   8.510  11.410  0.00  0.00    +0.000 C 
ATOM     13  C   UNL     1      49.976   9.907  11.846  0.00  0.00    +0.000 C 
ATOM     14  C   UNL     1      48.512  10.173  11.514  0.00  0.00    +0.000 C 
ATOM     15  C   UNL     1      47.602   9.118  12.133  0.00  0.00    +0.000 C 
ENDBRANCH   6  10
BRANCH   8  16
ATOM     16  C   UNL     1      47.278   4.188  15.322  0.00  0.00    +0.000 C 
ATOM     17  F   UNL     1      46.383   4.108  16.347  0.00  0.00    +0.000 F 
ATOM     18  F   UNL     1      47.585   2.899  15.002  0.00  0.00    +0.000 F 
ATOM     19  F   UNL     1      48.410   4.722  15.858  0.00  0.00    +0.000 F 
ENDBRANCH   8  16
ENDBRANCH   1   4
BRANCH   1  20
ATOM     20  C   UNL     1      43.328   4.524  11.009  0.00  0.00    +0.000 C 
BRANCH  20  25
ATOM     21  C   UNL     1      46.337   2.066   7.869  0.00  0.00    +0.000 A 
ATOM     22  C   UNL     1      46.334   3.370   7.388  0.00  0.00    +0.000 A 
ATOM     23  C   UNL     1      45.567   4.334   8.047  0.00  0.00    +0.000 A 
ATOM     24  C   UNL     1      44.826   3.983   9.177  0.00  0.00    +0.000 A 
ATOM     25  N   UNL     1      44.016   4.957   9.772  0.00  0.00    +0.000 N 
ATOM     26  N   UNL     1      44.809   2.714   9.635  0.00  0.00    +0.000 NA
ATOM     27  C   UNL     1      45.550   1.785   8.975  0.00  0.00    +0.000 A 
ATOM     28  H   UNL     1      44.511   5.837   9.888  0.00  0.00    +0.000 HD
BRANCH  21  30
ATOM     29  N   UNL     1      46.804  -0.305   7.621  0.00  0.00    +0.000 N 
ATOM     30  C   UNL     1      47.108   0.973   7.243  0.00  0.00    +0.000 C 
ATOM     31  O   UNL     1      47.959   1.197   6.387  0.00  0.00    +0.000 OA
ATOM     32  H   UNL     1      47.265  -1.050   7.113  0.00  0.00    +0.000 HD
ATOM     33  H   UNL     1      45.959  -0.538   8.123  0.00  0.00    +0.000 HD
ENDBRANCH  21  30
ENDBRANCH  20  25
ENDBRANCH   1  20
TORSDOF 6
ENDMDL
MODEL 2
REMARK VINA RESULT:    -9.417      1.024      1.460
REMARK INTER + INTRA:         -14.009
REMARK INTER:                 -12.584
REMARK INTRA:                  -1.424
REMARK UNBOUND:                -1.289
REMARK  Name = 
REMARK  6 active torsions:
REMARK  status: ('A' for Active; 'I' for Inactive)
REMARK    1  A    between atoms: C_2  and  C_4
REMARK    2  A    between atoms: N_8  and  C_9
REMARK    3  A    between atoms: C_9  and  C_10
REMARK    4  A    between atoms: C_10  and  C_13
REMARK    5  A    between atoms: C_15  and  C_16
REMARK    6  A    between atoms: C_23  and  C_24
REMARK                            x       y       z     vdW  Elec       q    Type
REMARK                         _______ _______ _______ _____ _____    ______ ____
ROOT
ATOM      1  C   UNL     1      43.550   5.182  12.172  0.00  0.00    +0.000 C 
ATOM      2  F   UNL     1      42.790   6.311  12.314  0.00  0.00    +0.000 F 
ATOM      3  F   UNL     1      42.897   4.227  12.903  0.00  0.00    +0.000 F 
ENDROOT
BRANCH   1   4
ATOM      4  C   UNL     1      44.974   5.379  12.662  0.00  0.00    +0.000 A 
ATOM      5  C   UNL     1      45.787   6.326  12.019  0.00  0.00    +0.000 A 
ATOM      6  C   UNL     1      47.088   6.587  12.458  0.00  0.00    +0.000 A 
ATOM      7  C   UNL     1      47.581   5.879  13.563  0.00  0.00    +0.000 A 
ATOM      8  C   UNL     1      46.792   4.936  14.236  0.00  0.00    +0.000 A 
ATOM      9  C   UNL     1      45.490   4.679  13.765  0.00  0.00    +0.000 A 
BRANCH   6  10
ATOM     10  C   UNL     1      47.918   7.653  11.766  0.00  0.00    +0.000 C 
ATOM     11  C   UNL     1      49.423   7.436  11.994  0.00  0.00    +0.000 C 
ATOM     12  C   UNL     1      50.253   8.546  11.356  0.00  0.00    +0.000 C 
ATOM     13  C   UNL     1      49.803   9.923  11.832  0.00  0.00    +0.000 C 
ATOM     14  C   UNL     1      48.319  10.149  11.563  0.00  0.00    +0.000 C 
ATOM     15  C   UNL     1      47.467   9.058  12.201  0.00  0.00    +0.000 C 
ENDBRANCH   6  10
BRANCH   8  16
ATOM     16  C   UNL     1      47.323   4.246  15.470  0.00  0.00    +0.000 C 
ATOM     17  F   UNL     1      47.718   2.959  15.249  0.00  0.00    +0.000 F 
ATOM     18  F   UNL     1      48.413   4.881  15.987  0.00  0.00    +0.000 F 
ATOM     19  F   UNL     1      46.410   4.186  16.479  0.00  0.00    +0.000 F 
ENDBRANCH   8  16
ENDBRANCH   1   4
BRANCH   1  20
ATOM     20  C   UNL     1      43.523   4.770  10.675  0.00  0.00    +0.000 C 
BRANCH  20  25
ATOM     21  C   UNL     1      46.557   2.549   7.386  0.00  0.00    +0.000 A 
ATOM     22  C   UNL     1      45.970   1.493   8.074  0.00  0.00    +0.000 A 
ATOM     23  C   UNL     1      45.055   1.775   9.093  0.00  0.00    +0.000 A 
ATOM     24  C   UNL     1      44.737   3.099   9.399  0.00  0.00    +0.000 A 
ATOM     25  N   UNL     1      43.870   3.346  10.469  0.00  0.00    +0.000 N 
ATOM     26  N   UNL     1      45.320   4.126   8.748  0.00  0.00    +0.000 NA
ATOM     27  C   UNL     1      46.218   3.836   7.768  0.00  0.00    +0.000 A 
ATOM     28  H   UNL     1      43.050   2.746  10.434  0.00  0.00    +0.000 HD
BRANCH  21  30
ATOM     29  N   UNL     1      47.392   3.135   5.181  0.00  0.00    +0.000 N 
ATOM     30  C   UNL     1      47.538   2.360   6.298  0.00  0.00    +0.000 C 
ATOM     31  O   UNL     1      48.472   1.570   6.406  0.00  0.00    +0.000 OA
ATOM     32  H   UNL     1      48.127   3.072   4.486  0.00  0.00    +0.000 HD
ATOM     33  H   UNL     1      46.801   3.954   5.160  0.00  0.00    +0.000 HD
ENDBRANCH  21  30
ENDBRANCH  20  25
ENDBRANCH   1  20
TORSDOF 6
ENDMDL
MODEL 3
REMARK VINA RESULT:    -8.972      1.839      3.566
REMARK INTER + INTRA:         -13.407
REMARK INTER:                 -12.194
REMARK INTRA:                  -1.213
REMARK UNBOUND:                -1.289
REMARK  Name = 
REMARK  6 active torsions:
REMARK  status: ('A' for Active; 'I' for Inactive)
REMARK    1  A    between atoms: C_2  and  C_4
REMARK    2  A    between atoms: N_8  and  C_9
REMARK    3  A    between atoms: C_9  and  C_10
REMARK    4  A    between atoms: C_10  and  C_13
REMARK    5  A    between atoms: C_15  and  C_16
REMARK    6  A    between atoms: C_23  and  C_24
REMARK                            x       y       z     vdW  Elec       q    Type
REMARK                         _______ _______ _______ _____ _____    ______ ____
ROOT
ATOM      1  C   UNL     1      43.927   4.880  12.349  0.00  0.00    +0.000 C 
ATOM      2  F   UNL     1      42.955   4.956  13.311  0.00  0.00    +0.000 F 
ATOM      3  F   UNL     1      44.718   3.831  12.735  0.00  0.00    +0.000 F 
ENDROOT
BRANCH   1   4
ATOM      4  C   UNL     1      44.726   6.166  12.235  0.00  0.00    +0.000 A 
ATOM      5  C   UNL     1      46.106   6.131  12.495  0.00  0.00    +0.000 A 
ATOM      6  C   UNL     1      46.901   7.273  12.357  0.00  0.00    +0.000 A 
ATOM      7  C   UNL     1      46.297   8.471  11.952  0.00  0.00    +0.000 A 
ATOM      8  C   UNL     1      44.925   8.537  11.672  0.00  0.00    +0.000 A 
ATOM      9  C   UNL     1      44.141   7.378  11.834  0.00  0.00    +0.000 A 
BRANCH   6  10
ATOM     10  C   UNL     1      48.397   7.182  12.601  0.00  0.00    +0.000 C 
ATOM     11  C   UNL     1      48.777   7.724  13.989  0.00  0.00    +0.000 C 
ATOM     12  C   UNL     1      50.287   7.697  14.207  0.00  0.00    +0.000 C 
ATOM     13  C   UNL     1      51.025   8.432  13.093  0.00  0.00    +0.000 C 
ATOM     14  C   UNL     1      50.677   7.861  11.723  0.00  0.00    +0.000 C 
ATOM     15  C   UNL     1      49.173   7.888  11.475  0.00  0.00    +0.000 C 
ENDBRANCH   6  10
BRANCH   8  16
ATOM     16  C   UNL     1      44.316   9.822  11.163  0.00  0.00    +0.000 C 
ATOM     17  F   UNL     1      43.414   9.639  10.157  0.00  0.00    +0.000 F 
ATOM     18  F   UNL     1      43.645  10.497  12.139  0.00  0.00    +0.000 F 
ATOM     19  F   UNL     1      45.244  10.692  10.677  0.00  0.00    +0.000 F 
ENDBRANCH   8  16
ENDBRANCH   1   4
BRANCH   1  20
ATOM     20  C   UNL     1      43.243   4.520  11.002  0.00  0.00    +0.000 C 
BRANCH  20  25
ATOM     21  C   UNL     1      46.290   2.035   7.920  0.00  0.00    +0.000 A 
ATOM     22  C   UNL     1      46.388   3.358   7.503  0.00  0.00    +0.000 A 
ATOM     23  C   UNL     1      45.638   4.334   8.165  0.00  0.00    +0.000 A 
ATOM     24  C   UNL     1      44.814   3.976   9.233  0.00  0.00    +0.000 A 
ATOM     25  N   UNL     1      44.026   4.967   9.828  0.00  0.00    +0.000 N 
ATOM     26  N   UNL     1      44.700   2.691   9.627  0.00  0.00    +0.000 NA
ATOM     27  C   UNL     1      45.425   1.751   8.965  0.00  0.00    +0.000 A 
ATOM     28  H   UNL     1      44.562   5.811  10.014  0.00  0.00    +0.000 HD
BRANCH  21  30
ATOM     29  N   UNL     1      46.702  -0.345   7.659  0.00  0.00    +0.000 N 
ATOM     30  C   UNL     1      47.034   0.928   7.286  0.00  0.00    +0.000 C 
ATOM     31  O   UNL     1      47.887   1.137   6.428  0.00  0.00    +0.000 OA
ATOM     32  H   UNL     1      47.145  -1.097   7.145  0.00  0.00    +0.000 HD
ATOM     33  H   UNL     1      45.854  -0.561   8.161  0.00  0.00    +0.000 HD
ENDBRANCH  21  30
ENDBRANCH  20  25
ENDBRANCH   1  20
TORSDOF 6
ENDMDL
MODEL 4
REMARK VINA RESULT:    -8.729      2.215      4.320
REMARK INTER + INTRA:         -13.080
REMARK INTER:                 -11.749
REMARK INTRA:                  -1.331
REMARK UNBOUND:                -1.289
REMARK  Name = 
REMARK  6 active torsions:
REMARK  status: ('A' for Active; 'I' for Inactive)
REMARK    1  A    between atoms: C_2  and  C_4
REMARK    2  A    between atoms: N_8  and  C_9
REMARK    3  A    between atoms: C_9  and  C_10
REMARK    4  A    between atoms: C_10  and  C_13
REMARK    5  A    between atoms: C_15  and  C_16
REMARK    6  A    between atoms: C_23  and  C_24
REMARK                            x       y       z     vdW  Elec       q    Type
REMARK                         _______ _______ _______ _____ _____    ______ ____
ROOT
ATOM      1  C   UNL     1      43.821   4.726  12.716  0.00  0.00    +0.000 C 
ATOM      2  F   UNL     1      42.770   5.524  13.079  0.00  0.00    +0.000 F 
ATOM      3  F   UNL     1      43.573   3.525  13.325  0.00  0.00    +0.000 F 
ENDROOT
BRANCH   1   4
ATOM      4  C   UNL     1      45.158   5.302  13.146  0.00  0.00    +0.000 A 
ATOM      5  C   UNL     1      45.862   4.676  14.188  0.00  0.00    +0.000 A 
ATOM      6  C   UNL     1      47.120   5.132  14.593  0.00  0.00    +0.000 A 
ATOM      7  C   UNL     1      47.679   6.239  13.939  0.00  0.00    +0.000 A 
ATOM      8  C   UNL     1      47.009   6.878  12.887  0.00  0.00    +0.000 A 
ATOM      9  C   UNL     1      45.736   6.412  12.507  0.00  0.00    +0.000 A 
BRANCH   6  10
ATOM     10  C   UNL     1      47.869   4.398  15.691  0.00  0.00    +0.000 C 
ATOM     11  C   UNL     1      46.916   3.571  16.570  0.00  0.00    +0.000 C 
ATOM     12  C   UNL     1      47.660   2.889  17.715  0.00  0.00    +0.000 C 
ATOM     13  C   UNL     1      48.458   3.894  18.539  0.00  0.00    +0.000 C 
ATOM     14  C   UNL     1      49.432   4.680  17.669  0.00  0.00    +0.000 C 
ATOM     15  C   UNL     1      48.711   5.381  16.523  0.00  0.00    +0.000 C 
ENDBRANCH   6  10
BRANCH   8  16
ATOM     16  C   UNL     1      47.670   8.020  12.151  0.00  0.00    +0.000 C 
ATOM     17  F   UNL     1      48.384   7.624  11.058  0.00  0.00    +0.000 F 
ATOM     18  F   UNL     1      46.766   8.928  11.688  0.00  0.00    +0.000 F 
ATOM     19  F   UNL     1      48.541   8.720  12.929  0.00  0.00    +0.000 F 
ENDBRANCH   8  16
ENDBRANCH   1   4
BRANCH   1  20
ATOM     20  C   UNL     1      43.763   4.526  11.177  0.00  0.00    +0.000 C 
BRANCH  20  25
ATOM     21  C   UNL     1      46.483   2.812   7.352  0.00  0.00    +0.000 A 
ATOM     22  C   UNL     1      45.995   1.664   7.966  0.00  0.00    +0.000 A 
ATOM     23  C   UNL     1      45.186   1.792   9.098  0.00  0.00    +0.000 A 
ATOM     24  C   UNL     1      44.873   3.059   9.592  0.00  0.00    +0.000 A 
ATOM     25  N   UNL     1      44.117   3.149  10.767  0.00  0.00    +0.000 N 
ATOM     26  N   UNL     1      45.362   4.175   9.013  0.00  0.00    +0.000 NA
ATOM     27  C   UNL     1      46.157   4.033   7.920  0.00  0.00    +0.000 A 
ATOM     28  H   UNL     1      43.312   2.529  10.744  0.00  0.00    +0.000 HD
BRANCH  21  30
ATOM     29  N   UNL     1      48.675   2.515   6.348  0.00  0.00    +0.000 N 
ATOM     30  C   UNL     1      47.348   2.786   6.156  0.00  0.00    +0.000 C 
ATOM     31  O   UNL     1      46.892   2.959   5.030  0.00  0.00    +0.000 OA
ATOM     32  H   UNL     1      49.238   2.399   5.515  0.00  0.00    +0.000 HD
ATOM     33  H   UNL     1      49.032   2.128   7.210  0.00  0.00    +0.000 HD
ENDBRANCH  21  30
ENDBRANCH  20  25
ENDBRANCH   1  20
TORSDOF 6
ENDMDL
MODEL 5
REMARK VINA RESULT:    -7.481      3.927      7.389
REMARK INTER + INTRA:         -11.394
REMARK INTER:                 -10.594
REMARK INTRA:                  -0.799
REMARK UNBOUND:                -1.289
REMARK  Name = 
REMARK  6 active torsions:
REMARK  status: ('A' for Active; 'I' for Inactive)
REMARK    1  A    between atoms: C_2  and  C_4
REMARK    2  A    between atoms: N_8  and  C_9
REMARK    3  A    between atoms: C_9  and  C_10
REMARK    4  A    between atoms: C_10  and  C_13
REMARK    5  A    between atoms: C_15  and  C_16
REMARK    6  A    between atoms: C_23  and  C_24
REMARK                            x       y       z     vdW  Elec       q    Type
REMARK                         _______ _______ _______ _____ _____    ______ ____
ROOT
ATOM      1  C   UNL     1      47.297   7.234  11.567  0.00  0.00    +0.000 C 
ATOM      2  F   UNL     1      46.898   8.530  11.756  0.00  0.00    +0.000 F 
ATOM      3  F   UNL     1      48.268   7.305  10.605  0.00  0.00    +0.000 F 
ENDROOT
BRANCH   1   4
ATOM      4  C   UNL     1      46.152   6.335  11.135  0.00  0.00    +0.000 A 
ATOM      5  C   UNL     1      46.328   5.504  10.017  0.00  0.00    +0.000 A 
ATOM      6  C   UNL     1      45.328   4.619   9.603  0.00  0.00    +0.000 A 
ATOM      7  C   UNL     1      44.128   4.572  10.326  0.00  0.00    +0.000 A 
ATOM      8  C   UNL     1      43.925   5.379  11.455  0.00  0.00    +0.000 A 
ATOM      9  C   UNL     1      44.940   6.274  11.843  0.00  0.00    +0.000 A 
BRANCH   6  10
ATOM     10  C   UNL     1      45.576   3.703   8.419  0.00  0.00    +0.000 C 
ATOM     11  C   UNL     1      45.886   2.265   8.870  0.00  0.00    +0.000 C 
ATOM     12  C   UNL     1      46.203   1.361   7.683  0.00  0.00    +0.000 C 
ATOM     13  C   UNL     1      47.326   1.937   6.826  0.00  0.00    +0.000 C 
ATOM     14  C   UNL     1      46.994   3.346   6.346  0.00  0.00    +0.000 C 
ATOM     15  C   UNL     1      46.684   4.273   7.516  0.00  0.00    +0.000 C 
ENDBRANCH   6  10
BRANCH   8  16
ATOM     16  C   UNL     1      42.653   5.250  12.259  0.00  0.00    +0.000 C 
ATOM     17  F   UNL     1      41.616   5.984  11.763  0.00  0.00    +0.000 F 
ATOM     18  F   UNL     1      42.201   3.964  12.306  0.00  0.00    +0.000 F 
ATOM     19  F   UNL     1      42.801   5.643  13.554  0.00  0.00    +0.000 F 
ENDBRANCH   8  16
ENDBRANCH   1   4
BRANCH   1  20
ATOM     20  C   UNL     1      47.940   6.731  12.889  0.00  0.00    +0.000 C 
BRANCH  20  25
ATOM     21  C   UNL     1      48.367   4.454  17.314  0.00  0.00    +0.000 A 
ATOM     22  C   UNL     1      47.440   3.683  16.622  0.00  0.00    +0.000 A 
ATOM     23  C   UNL     1      47.080   4.058  15.325  0.00  0.00    +0.000 A 
ATOM     24  C   UNL     1      47.656   5.187  14.740  0.00  0.00    +0.000 A 
ATOM     25  N   UNL     1      47.223   5.573  13.467  0.00  0.00    +0.000 N 
ATOM     26  N   UNL     1      48.540   5.950  15.416  0.00  0.00    +0.000 NA
ATOM     27  C   UNL     1      48.870   5.579  16.682  0.00  0.00    +0.000 A 
ATOM     28  H   UNL     1      47.180   4.783  12.829  0.00  0.00    +0.000 HD
BRANCH  21  30
ATOM     29  N   UNL     1      48.247   3.061  19.301  0.00  0.00    +0.000 N 
ATOM     30  C   UNL     1      48.810   4.147  18.689  0.00  0.00    +0.000 C 
ATOM     31  O   UNL     1      49.677   4.812  19.248  0.00  0.00    +0.000 OA
ATOM     32  H   UNL     1      48.631   2.799  20.201  0.00  0.00    +0.000 HD
ATOM     33  H   UNL     1      47.729   2.358  18.794  0.00  0.00    +0.000 HD
ENDBRANCH  21  30
ENDBRANCH  20  25
ENDBRANCH   1  20
TORSDOF 6
ENDMDL
MODEL 6
REMARK VINA RESULT:    -7.366      4.295      7.833
REMARK INTER + INTRA:         -11.238
REMARK INTER:                  -9.811
REMARK INTRA:                  -1.427
REMARK UNBOUND:                -1.289
REMARK  Name = 
REMARK  6 active torsions:
REMARK  status: ('A' for Active; 'I' for Inactive)
REMARK    1  A    between atoms: C_2  and  C_4
REMARK    2  A    between atoms: N_8  and  C_9
REMARK    3  A    between atoms: C_9  and  C_10
REMARK    4  A    between atoms: C_10  and  C_13
REMARK    5  A    between atoms: C_15  and  C_16
REMARK    6  A    between atoms: C_23  and  C_24
REMARK                            x       y       z     vdW  Elec       q    Type
REMARK                         _______ _______ _______ _____ _____    ______ ____
ROOT
ATOM      1  C   UNL     1      48.165   8.993  13.173  0.00  0.00    +0.000 C 
ATOM      2  F   UNL     1      47.927   9.577  14.389  0.00  0.00    +0.000 F 
ATOM      3  F   UNL     1      48.795   9.961  12.439  0.00  0.00    +0.000 F 
ENDROOT
BRANCH   1   4
ATOM      4  C   UNL     1      46.887   8.528  12.497  0.00  0.00    +0.000 A 
ATOM      5  C   UNL     1      46.618   7.151  12.433  0.00  0.00    +0.000 A 
ATOM      6  C   UNL     1      45.434   6.667  11.867  0.00  0.00    +0.000 A 
ATOM      7  C   UNL     1      44.507   7.585  11.354  0.00  0.00    +0.000 A 
ATOM      8  C   UNL     1      44.740   8.966  11.413  0.00  0.00    +0.000 A 
ATOM      9  C   UNL     1      45.946   9.429  11.973  0.00  0.00    +0.000 A 
BRANCH   6  10
ATOM     10  C   UNL     1      45.158   5.174  11.861  0.00  0.00    +0.000 C 
ATOM     11  C   UNL     1      44.885   4.655  10.440  0.00  0.00    +0.000 C 
ATOM     12  C   UNL     1      44.540   3.169  10.442  0.00  0.00    +0.000 C 
ATOM     13  C   UNL     1      43.381   2.866  11.386  0.00  0.00    +0.000 C 
ATOM     14  C   UNL     1      43.676   3.344  12.803  0.00  0.00    +0.000 C 
ATOM     15  C   UNL     1      44.012   4.831  12.829  0.00  0.00    +0.000 C 
ENDBRANCH   6  10
BRANCH   8  16
ATOM     16  C   UNL     1      43.688   9.933  10.923  0.00  0.00    +0.000 C 
ATOM     17  F   UNL     1      43.374  10.904  11.827  0.00  0.00    +0.000 F 
ATOM     18  F   UNL     1      44.080  10.593   9.797  0.00  0.00    +0.000 F 
ATOM     19  F   UNL     1      42.512   9.323  10.610  0.00  0.00    +0.000 F 
ENDBRANCH   8  16
ENDBRANCH   1   4
BRANCH   1  20
ATOM     20  C   UNL     1      49.148   7.812  13.391  0.00  0.00    +0.000 C 
BRANCH  20  25
ATOM     21  C   UNL     1      48.083   4.634  17.096  0.00  0.00    +0.000 A 
ATOM     22  C   UNL     1      48.929   5.569  17.681  0.00  0.00    +0.000 A 
ATOM     23  C   UNL     1      49.429   6.614  16.899  0.00  0.00    +0.000 A 
ATOM     24  C   UNL     1      49.070   6.712  15.554  0.00  0.00    +0.000 A 
ATOM     25  N   UNL     1      49.642   7.730  14.784  0.00  0.00    +0.000 N 
ATOM     26  N   UNL     1      48.267   5.795  14.977  0.00  0.00    +0.000 NA
ATOM     27  C   UNL     1      47.799   4.777  15.747  0.00  0.00    +0.000 A 
ATOM     28  H   UNL     1      49.610   8.626  15.263  0.00  0.00    +0.000 HD
BRANCH  21  30
ATOM     29  N   UNL     1      48.138   3.101  18.980  0.00  0.00    +0.000 N 
ATOM     30  C   UNL     1      47.506   3.491  17.831  0.00  0.00    +0.000 C 
ATOM     31  O   UNL     1      46.478   2.937  17.453  0.00  0.00    +0.000 OA
ATOM     32  H   UNL     1      47.678   2.386  19.530  0.00  0.00    +0.000 HD
ATOM     33  H   UNL     1      48.823   3.679  19.447  0.00  0.00    +0.000 HD
ENDBRANCH  21  30
ENDBRANCH  20  25
ENDBRANCH   1  20
TORSDOF 6
ENDMDL
MODEL 7
REMARK VINA RESULT:    -7.207      4.499      6.995
REMARK INTER + INTRA:         -11.024
REMARK INTER:                  -9.876
REMARK INTRA:                  -1.148
REMARK UNBOUND:                -1.289
REMARK  Name = 
REMARK  6 active torsions:
REMARK  status: ('A' for Active; 'I' for Inactive)
REMARK    1  A    between atoms: C_2  and  C_4
REMARK    2  A    between atoms: N_8  and  C_9
REMARK    3  A    between atoms: C_9  and  C_10
REMARK    4  A    between atoms: C_10  and  C_13
REMARK    5  A    between atoms: C_15  and  C_16
REMARK    6  A    between atoms: C_23  and  C_24
REMARK                            x       y       z     vdW  Elec       q    Type
REMARK                         _______ _______ _______ _____ _____    ______ ____
ROOT
ATOM      1  C   UNL     1      47.658   3.905  17.145  0.00  0.00    +0.000 C 
ATOM      2  F   UNL     1      46.772   4.841  17.607  0.00  0.00    +0.000 F 
ATOM      3  F   UNL     1      47.410   2.789  17.897  0.00  0.00    +0.000 F 
ENDROOT
BRANCH   1   4
ATOM      4  C   UNL     1      49.101   4.360  17.286  0.00  0.00    +0.000 A 
ATOM      5  C   UNL     1      50.072   3.422  17.674  0.00  0.00    +0.000 A 
ATOM      6  C   UNL     1      51.422   3.770  17.771  0.00  0.00    +0.000 A 
ATOM      7  C   UNL     1      51.802   5.087  17.476  0.00  0.00    +0.000 A 
ATOM      8  C   UNL     1      50.860   6.045  17.074  0.00  0.00    +0.000 A 
ATOM      9  C   UNL     1      49.503   5.675  16.998  0.00  0.00    +0.000 A 
BRANCH   6  10
ATOM     10  C   UNL     1      52.447   2.715  18.146  0.00  0.00    +0.000 C 
ATOM     11  C   UNL     1      53.871   3.147  17.760  0.00  0.00    +0.000 C 
ATOM     12  C   UNL     1      54.892   2.058  18.074  0.00  0.00    +0.000 C 
ATOM     13  C   UNL     1      54.510   0.731  17.427  0.00  0.00    +0.000 C 
ATOM     14  C   UNL     1      53.114   0.286  17.848  0.00  0.00    +0.000 C 
ATOM     15  C   UNL     1      52.072   1.354  17.534  0.00  0.00    +0.000 C 
ENDBRANCH   6  10
BRANCH   8  16
ATOM     16  C   UNL     1      51.310   7.434  16.687  0.00  0.00    +0.000 C 
ATOM     17  F   UNL     1      52.503   7.794  17.238  0.00  0.00    +0.000 F 
ATOM     18  F   UNL     1      51.472   7.567  15.341  0.00  0.00    +0.000 F 
ATOM     19  F   UNL     1      50.424   8.400  17.055  0.00  0.00    +0.000 F 
ENDBRANCH   8  16
ENDBRANCH   1   4
BRANCH   1  20
ATOM     20  C   UNL     1      47.307   3.599  15.664  0.00  0.00    +0.000 C 
BRANCH  20  25
ATOM     21  C   UNL     1      44.946   4.008  11.281  0.00  0.00    +0.000 A 
ATOM     22  C   UNL     1      45.099   5.322  11.710  0.00  0.00    +0.000 A 
ATOM     23  C   UNL     1      45.727   5.566  12.934  0.00  0.00    +0.000 A 
ATOM     24  C   UNL     1      46.199   4.500  13.701  0.00  0.00    +0.000 A 
ATOM     25  N   UNL     1      46.762   4.776  14.952  0.00  0.00    +0.000 N 
ATOM     26  N   UNL     1      46.033   3.223  13.299  0.00  0.00    +0.000 NA
ATOM     27  C   UNL     1      45.408   3.001  12.112  0.00  0.00    +0.000 A 
ATOM     28  H   UNL     1      47.425   5.545  14.903  0.00  0.00    +0.000 HD
BRANCH  21  30
ATOM     29  N   UNL     1      43.842   4.665   9.218  0.00  0.00    +0.000 N 
ATOM     30  C   UNL     1      44.292   3.643  10.008  0.00  0.00    +0.000 C 
ATOM     31  O   UNL     1      44.191   2.473   9.651  0.00  0.00    +0.000 OA
ATOM     32  H   UNL     1      43.489   4.409   8.304  0.00  0.00    +0.000 HD
ATOM     33  H   UNL     1      44.126   5.625   9.356  0.00  0.00    +0.000 HD
ENDBRANCH  21  30
ENDBRANCH  20  25
ENDBRANCH   1  20
TORSDOF 6
ENDMDL
MODEL 8
REMARK VINA RESULT:    -7.194      4.009      6.684
REMARK INTER + INTRA:         -11.006
REMARK INTER:                  -9.557
REMARK INTRA:                  -1.448
REMARK UNBOUND:                -1.289
REMARK  Name = 
REMARK  6 active torsions:
REMARK  status: ('A' for Active; 'I' for Inactive)
REMARK    1  A    between atoms: C_2  and  C_4
REMARK    2  A    between atoms: N_8  and  C_9
REMARK    3  A    between atoms: C_9  and  C_10
REMARK    4  A    between atoms: C_10  and  C_13
REMARK    5  A    between atoms: C_15  and  C_16
REMARK    6  A    between atoms: C_23  and  C_24
REMARK                            x       y       z     vdW  Elec       q    Type
REMARK                         _______ _______ _______ _____ _____    ______ ____
ROOT
ATOM      1  C   UNL     1      48.603   8.171  13.024  0.00  0.00    +0.000 C 
ATOM      2  F   UNL     1      48.740   8.357  11.675  0.00  0.00    +0.000 F 
ATOM      3  F   UNL     1      49.885   8.097  13.498  0.00  0.00    +0.000 F 
ENDROOT
BRANCH   1   4
ATOM      4  C   UNL     1      47.815   6.916  13.356  0.00  0.00    +0.000 A 
ATOM      5  C   UNL     1      46.867   6.447  12.433  0.00  0.00    +0.000 A 
ATOM      6  C   UNL     1      46.148   5.270  12.661  0.00  0.00    +0.000 A 
ATOM      7  C   UNL     1      46.386   4.553  13.843  0.00  0.00    +0.000 A 
ATOM      8  C   UNL     1      47.334   4.987  14.780  0.00  0.00    +0.000 A 
ATOM      9  C   UNL     1      48.034   6.184  14.535  0.00  0.00    +0.000 A 
BRANCH   6  10
ATOM     10  C   UNL     1      45.167   4.771  11.616  0.00  0.00    +0.000 C 
ATOM     11  C   UNL     1      44.844   3.280  11.809  0.00  0.00    +0.000 C 
ATOM     12  C   UNL     1      43.912   2.762  10.717  0.00  0.00    +0.000 C 
ATOM     13  C   UNL     1      44.472   3.042   9.327  0.00  0.00    +0.000 C 
ATOM     14  C   UNL     1      44.750   4.527   9.125  0.00  0.00    +0.000 C 
ATOM     15  C   UNL     1      45.689   5.067  10.199  0.00  0.00    +0.000 C 
ENDBRANCH   6  10
BRANCH   8  16
ATOM     16  C   UNL     1      47.624   4.153  16.006  0.00  0.00    +0.000 C 
ATOM     17  F   UNL     1      46.631   4.190  16.939  0.00  0.00    +0.000 F 
ATOM     18  F   UNL     1      47.795   2.835  15.703  0.00  0.00    +0.000 F 
ATOM     19  F   UNL     1      48.757   4.539  16.654  0.00  0.00    +0.000 F 
ENDBRANCH   8  16
ENDBRANCH   1   4
BRANCH   1  20
ATOM     20  C   UNL     1      47.923   9.435  13.617  0.00  0.00    +0.000 C 
BRANCH  20  25
ATOM     21  C   UNL     1      43.878  10.410  10.851  0.00  0.00    +0.000 A 
ATOM     22  C   UNL     1      44.834  11.307  10.386  0.00  0.00    +0.000 A 
ATOM     23  C   UNL     1      46.105  11.304  10.967  0.00  0.00    +0.000 A 
ATOM     24  C   UNL     1      46.402  10.404  11.992  0.00  0.00    +0.000 A 
ATOM     25  N   UNL     1      47.662  10.474  12.596  0.00  0.00    +0.000 N 
ATOM     26  N   UNL     1      45.471   9.547  12.460  0.00  0.00    +0.000 NA
ATOM     27  C   UNL     1      44.236   9.571  11.894  0.00  0.00    +0.000 A 
ATOM     28  H   UNL     1      48.406  10.540  11.907  0.00  0.00    +0.000 HD
BRANCH  21  30
ATOM     29  N   UNL     1      41.598   9.585  11.005  0.00  0.00    +0.000 N 
ATOM     30  C   UNL     1      42.506  10.336  10.310  0.00  0.00    +0.000 C 
ATOM     31  O   UNL     1      42.180  10.954   9.302  0.00  0.00    +0.000 OA
ATOM     32  H   UNL     1      40.639   9.624  10.684  0.00  0.00    +0.000 HD
ATOM     33  H   UNL     1      41.760   9.275  11.953  0.00  0.00    +0.000 HD
ENDBRANCH  21  30
ENDBRANCH  20  25
ENDBRANCH   1  20
TORSDOF 6
ENDMDL
MODEL 9
REMARK VINA RESULT:    -7.138      4.759      7.233
REMARK INTER + INTRA:         -10.930
REMARK INTER:                  -9.785
REMARK INTRA:                  -1.146
REMARK UNBOUND:                -1.289
REMARK  Name = 
REMARK  6 active torsions:
REMARK  status: ('A' for Active; 'I' for Inactive)
REMARK    1  A    between atoms: C_2  and  C_4
REMARK    2  A    between atoms: N_8  and  C_9
REMARK    3  A    between atoms: C_9  and  C_10
REMARK    4  A    between atoms: C_10  and  C_13
REMARK    5  A    between atoms: C_15  and  C_16
REMARK    6  A    between atoms: C_23  and  C_24
REMARK                            x       y       z     vdW  Elec       q    Type
REMARK                         _______ _______ _______ _____ _____    ______ ____
ROOT
ATOM      1  C   UNL     1      47.436   3.767  17.290  0.00  0.00    +0.000 C 
ATOM      2  F   UNL     1      46.457   4.670  17.607  0.00  0.00    +0.000 F 
ATOM      3  F   UNL     1      46.969   2.568  17.756  0.00  0.00    +0.000 F 
ENDROOT
BRANCH   1   4
ATOM      4  C   UNL     1      48.773   4.123  17.918  0.00  0.00    +0.000 A 
ATOM      5  C   UNL     1      49.894   3.332  17.619  0.00  0.00    +0.000 A 
ATOM      6  C   UNL     1      51.159   3.641  18.127  0.00  0.00    +0.000 A 
ATOM      7  C   UNL     1      51.298   4.764  18.954  0.00  0.00    +0.000 A 
ATOM      8  C   UNL     1      50.202   5.582  19.262  0.00  0.00    +0.000 A 
ATOM      9  C   UNL     1      48.934   5.242  18.752  0.00  0.00    +0.000 A 
BRANCH   6  10
ATOM     10  C   UNL     1      52.354   2.788  17.741  0.00  0.00    +0.000 C 
ATOM     11  C   UNL     1      51.994   1.294  17.699  0.00  0.00    +0.000 C 
ATOM     12  C   UNL     1      53.211   0.432  17.378  0.00  0.00    +0.000 C 
ATOM     13  C   UNL     1      54.360   0.708  18.342  0.00  0.00    +0.000 C 
ATOM     14  C   UNL     1      54.742   2.184  18.347  0.00  0.00    +0.000 C 
ATOM     15  C   UNL     1      53.544   3.067  18.677  0.00  0.00    +0.000 C 
ENDBRANCH   6  10
BRANCH   8  16
ATOM     16  C   UNL     1      50.397   6.829  20.092  0.00  0.00    +0.000 C 
ATOM     17  F   UNL     1      49.529   6.930  21.139  0.00  0.00    +0.000 F 
ATOM     18  F   UNL     1      51.643   6.892  20.642  0.00  0.00    +0.000 F 
ATOM     19  F   UNL     1      50.246   7.974  19.372  0.00  0.00    +0.000 F 
ENDBRANCH   8  16
ENDBRANCH   1   4
BRANCH   1  20
ATOM     20  C   UNL     1      47.543   3.695  15.743  0.00  0.00    +0.000 C 
BRANCH  20  25
ATOM     21  C   UNL     1      44.930   4.161  11.511  0.00  0.00    +0.000 A 
ATOM     22  C   UNL     1      45.116   5.469  11.943  0.00  0.00    +0.000 A 
ATOM     23  C   UNL     1      45.817   5.698  13.130  0.00  0.00    +0.000 A 
ATOM     24  C   UNL     1      46.327   4.621  13.857  0.00  0.00    +0.000 A 
ATOM     25  N   UNL     1      46.964   4.882  15.075  0.00  0.00    +0.000 N 
ATOM     26  N   UNL     1      46.130   3.350  13.453  0.00  0.00    +0.000 NA
ATOM     27  C   UNL     1      45.435   3.143  12.304  0.00  0.00    +0.000 A 
ATOM     28  H   UNL     1      47.628   5.648  14.996  0.00  0.00    +0.000 HD
BRANCH  21  30
ATOM     29  N   UNL     1      44.078   4.786   9.323  0.00  0.00    +0.000 N 
ATOM     30  C   UNL     1      44.201   3.812  10.275  0.00  0.00    +0.000 C 
ATOM     31  O   UNL     1      43.757   2.682  10.089  0.00  0.00    +0.000 OA
ATOM     32  H   UNL     1      43.667   4.508   8.441  0.00  0.00    +0.000 HD
ATOM     33  H   UNL     1      44.634   5.629   9.333  0.00  0.00    +0.000 HD
ENDBRANCH  21  30
ENDBRANCH  20  25
ENDBRANCH   1  20
TORSDOF 6
ENDMDL
