MODEL 1
REMARK VINA RESULT:    -9.282      0.000      0.000
REMARK INTER + INTRA:         -13.112
REMARK INTER:                 -11.995
REMARK INTRA:                  -1.117
REMARK UNBOUND:                -1.117
REMARK  Name = 
REMARK  5 active torsions:
REMARK  status: ('A' for Active; 'I' for Inactive)
REMARK    1  A    between atoms: C_2  and  C_3
REMARK    2  A    between atoms: C_6  and  C_7
REMARK    3  A    between atoms: C_11  and  C_12
REMARK    4  A    between atoms: C_12  and  N_13
REMARK    5  A    between atoms: C_17  and  C_18
REMARK                            x       y       z     vdW  Elec       q    Type
REMARK                         _______ _______ _______ _____ _____    ______ ____
ROOT
ATOM      1  C   UNL     1      43.883   5.134  11.247  0.00  0.00    +0.000 C 
ATOM      2  C   UNL     1      42.634   5.848  11.747  0.00  0.00    +0.000 C 
ATOM      3  C   UNL     1      42.698   4.361  11.800  0.00  0.00    +0.000 C 
ENDROOT
BRANCH   1   4
ATOM      4  N   UNL     1      44.157   5.139   9.797  0.00  0.00    +0.000 N 
ATOM      5  C   UNL     1      44.957   4.186   9.150  0.00  0.00    +0.000 A 
ATOM      6  C   UNL     1      44.975   2.835   9.475  0.00  0.00    +0.000 A 
ATOM      7  C   UNL     1      45.735   1.943   8.710  0.00  0.00    +0.000 A 
ATOM      8  C   UNL     1      46.472   2.415   7.627  0.00  0.00    +0.000 A 
ATOM      9  C   UNL     1      46.399   3.773   7.371  0.00  0.00    +0.000 A 
ATOM     10  N   UNL     1      45.664   4.656   8.099  0.00  0.00    +0.000 NA
ATOM     11  H   UNL     1      44.445   6.033   9.407  0.00  0.00    +0.000 HD
BRANCH   8  12
ATOM     12  C   UNL     1      47.274   1.460   6.823  0.00  0.00    +0.000 C 
ATOM     13  N   UNL     1      48.230   1.944   5.974  0.00  0.00    +0.000 N 
ATOM     14  O   UNL     1      47.095   0.252   6.914  0.00  0.00    +0.000 OA
ATOM     15  H   UNL     1      48.464   2.915   5.829  0.00  0.00    +0.000 HD
ATOM     16  H   UNL     1      48.762   1.256   5.455  0.00  0.00    +0.000 HD
ENDBRANCH   8  12
ENDBRANCH   1   4
BRANCH   1  21
ATOM     17  C   UNL     1      47.240   6.516  12.539  0.00  0.00    +0.000 A 
ATOM     18  C   UNL     1      47.468   5.681  13.642  0.00  0.00    +0.000 A 
ATOM     19  C   UNL     1      46.554   4.682  13.988  0.00  0.00    +0.000 A 
ATOM     20  C   UNL     1      45.403   4.495  13.223  0.00  0.00    +0.000 A 
ATOM     21  C   UNL     1      45.135   5.296  12.101  0.00  0.00    +0.000 A 
ATOM     22  C   UNL     1      46.066   6.301  11.796  0.00  0.00    +0.000 A 
BRANCH  17  26
ATOM     23  C   UNL     1      49.948   9.642  11.356  0.00  0.00    +0.000 A 
ATOM     24  C   UNL     1      50.430   8.355  11.591  0.00  0.00    +0.000 A 
ATOM     25  C   UNL     1      49.548   7.352  11.997  0.00  0.00    +0.000 A 
ATOM     26  C   UNL     1      48.170   7.600  12.159  0.00  0.00    +0.000 A 
ATOM     27  C   UNL     1      47.713   8.905  11.913  0.00  0.00    +0.000 A 
ATOM     28  C   UNL     1      48.592   9.919  11.522  0.00  0.00    +0.000 A 
BRANCH  23  30
ATOM     29  N   UNL     1      51.570  11.514  10.611  0.00  0.00    +0.000 NA
ATOM     30  C   UNL     1      50.844  10.678  10.942  0.00  0.00    +0.000 C 
ENDBRANCH  23  30
ENDBRANCH  17  26
ENDBRANCH   1  21
TORSDOF 5
ENDMDL
MODEL 2
REMARK VINA RESULT:    -8.586      2.883      4.525
REMARK INTER + INTRA:         -12.213
REMARK INTER:                 -11.340
REMARK INTRA:                  -0.874
REMARK UNBOUND:                -1.117
REMARK  Name = 
REMARK  5 active torsions:
REMARK  status: ('A' for Active; 'I' for Inactive)
REMARK    1  A    between atoms: C_2  and  C_3
REMARK    2  A    between atoms: C_6  and  C_7
REMARK    3  A    between atoms: C_11  and  C_12
REMARK    4  A    between atoms: C_12  and  N_13
REMARK    5  A    between atoms: C_17  and  C_18
REMARK                            x       y       z     vdW  Elec       q    Type
REMARK                         _______ _______ _______ _____ _____    ______ ____
ROOT
ATOM      1  C   UNL     1      44.143   4.903  11.442  0.00  0.00    +0.000 C 
ATOM      2  C   UNL     1      42.873   5.315  12.175  0.00  0.00    +0.000 C 
ATOM      3  C   UNL     1      43.373   3.918  12.305  0.00  0.00    +0.000 C 
ENDROOT
BRANCH   1   4
ATOM      4  N   UNL     1      44.096   4.797   9.971  0.00  0.00    +0.000 N 
ATOM      5  C   UNL     1      44.918   3.942   9.222  0.00  0.00    +0.000 A 
ATOM      6  C   UNL     1      45.280   2.662   9.624  0.00  0.00    +0.000 A 
ATOM      7  C   UNL     1      46.026   1.846   8.766  0.00  0.00    +0.000 A 
ATOM      8  C   UNL     1      46.404   2.323   7.513  0.00  0.00    +0.000 A 
ATOM      9  C   UNL     1      46.004   3.607   7.191  0.00  0.00    +0.000 A 
ATOM     10  N   UNL     1      45.275   4.415   8.008  0.00  0.00    +0.000 NA
ATOM     11  H   UNL     1      44.106   5.680   9.466  0.00  0.00    +0.000 HD
BRANCH   8  12
ATOM     12  C   UNL     1      47.195   1.449   6.612  0.00  0.00    +0.000 C 
ATOM     13  N   UNL     1      48.196   2.000   5.862  0.00  0.00    +0.000 N 
ATOM     14  O   UNL     1      46.968   0.248   6.538  0.00  0.00    +0.000 OA
ATOM     15  H   UNL     1      48.471   2.970   5.853  0.00  0.00    +0.000 HD
ATOM     16  H   UNL     1      48.718   1.364   5.271  0.00  0.00    +0.000 HD
ENDBRANCH   8  12
ENDBRANCH   1   4
BRANCH   1  21
ATOM     17  C   UNL     1      47.084   5.682  13.806  0.00  0.00    +0.000 A 
ATOM     18  C   UNL     1      47.851   6.541  13.007  0.00  0.00    +0.000 A 
ATOM     19  C   UNL     1      47.445   6.870  11.711  0.00  0.00    +0.000 A 
ATOM     20  C   UNL     1      46.254   6.354  11.201  0.00  0.00    +0.000 A 
ATOM     21  C   UNL     1      45.443   5.499  11.965  0.00  0.00    +0.000 A 
ATOM     22  C   UNL     1      45.894   5.176  13.255  0.00  0.00    +0.000 A 
BRANCH  17  26
ATOM     23  C   UNL     1      48.227   4.595  17.808  0.00  0.00    +0.000 A 
ATOM     24  C   UNL     1      48.729   5.761  17.233  0.00  0.00    +0.000 A 
ATOM     25  C   UNL     1      48.372   6.095  15.925  0.00  0.00    +0.000 A 
ATOM     26  C   UNL     1      47.495   5.290  15.170  0.00  0.00    +0.000 A 
ATOM     27  C   UNL     1      47.003   4.121  15.777  0.00  0.00    +0.000 A 
ATOM     28  C   UNL     1      47.369   3.772  17.079  0.00  0.00    +0.000 A 
BRANCH  23  30
ATOM     29  N   UNL     1      48.886   3.959  20.227  0.00  0.00    +0.000 NA
ATOM     30  C   UNL     1      48.589   4.243  19.147  0.00  0.00    +0.000 C 
ENDBRANCH  23  30
ENDBRANCH  17  26
ENDBRANCH   1  21
TORSDOF 5
ENDMDL
MODEL 3
REMARK VINA RESULT:    -7.550      2.308      3.047
REMARK INTER + INTRA:         -10.874
REMARK INTER:                 -10.426
REMARK INTRA:                  -0.447
REMARK UNBOUND:                -1.117
REMARK  Name = 
REMARK  5 active torsions:
REMARK  status: ('A' for Active; 'I' for Inactive)
REMARK    1  A    between atoms: C_2  and  C_3
REMARK    2  A    between atoms: C_6  and  C_7
REMARK    3  A    between atoms: C_11  and  C_12
REMARK    4  A    between atoms: C_12  and  N_13
REMARK    5  A    between atoms: C_17  and  C_18
REMARK                            x       y       z     vdW  Elec       q    Type
REMARK                         _______ _______ _______ _____ _____    ______ ____
ROOT
ATOM      1  C   UNL     1      43.934   5.441  11.169  0.00  0.00    +0.000 C 
ATOM      2  C   UNL     1      42.575   5.157  11.798  0.00  0.00    +0.000 C 
ATOM      3  C   UNL     1      43.736   4.287  12.138  0.00  0.00    +0.000 C 
ENDROOT
BRANCH   1   4
ATOM      4  N   UNL     1      44.103   5.180   9.727  0.00  0.00    +0.000 N 
ATOM      5  C   UNL     1      44.869   4.127   9.207  0.00  0.00    +0.000 A 
ATOM      6  C   UNL     1      44.931   2.858   9.771  0.00  0.00    +0.000 A 
ATOM      7  C   UNL     1      45.647   1.843   9.128  0.00  0.00    +0.000 A 
ATOM      8  C   UNL     1      46.298   2.110   7.925  0.00  0.00    +0.000 A 
ATOM      9  C   UNL     1      46.186   3.397   7.432  0.00  0.00    +0.000 A 
ATOM     10  N   UNL     1      45.492   4.397   8.039  0.00  0.00    +0.000 NA
ATOM     11  H   UNL     1      44.348   5.988   9.160  0.00  0.00    +0.000 HD
BRANCH   8  12
ATOM     12  C   UNL     1      47.055   1.025   7.253  0.00  0.00    +0.000 C 
ATOM     13  N   UNL     1      46.781  -0.275   7.576  0.00  0.00    +0.000 N 
ATOM     14  O   UNL     1      47.911   1.278   6.414  0.00  0.00    +0.000 OA
ATOM     15  H   UNL     1      46.094  -0.593   8.242  0.00  0.00    +0.000 HD
ATOM     16  H   UNL     1      47.312  -0.983   7.083  0.00  0.00    +0.000 HD
ENDBRANCH   8  12
ENDBRANCH   1   4
BRANCH   1  21
ATOM     17  C   UNL     1      46.527   7.720  12.881  0.00  0.00    +0.000 A 
ATOM     18  C   UNL     1      46.032   8.989  12.546  0.00  0.00    +0.000 A 
ATOM     19  C   UNL     1      44.879   9.128  11.767  0.00  0.00    +0.000 A 
ATOM     20  C   UNL     1      44.196   7.996  11.325  0.00  0.00    +0.000 A 
ATOM     21  C   UNL     1      44.643   6.703  11.644  0.00  0.00    +0.000 A 
ATOM     22  C   UNL     1      45.814   6.603  12.410  0.00  0.00    +0.000 A 
BRANCH  17  26
ATOM     23  C   UNL     1      50.114   7.102  15.172  0.00  0.00    +0.000 A 
ATOM     24  C   UNL     1      48.912   6.538  15.595  0.00  0.00    +0.000 A 
ATOM     25  C   UNL     1      47.747   6.763  14.859  0.00  0.00    +0.000 A 
ATOM     26  C   UNL     1      47.756   7.534  13.678  0.00  0.00    +0.000 A 
ATOM     27  C   UNL     1      48.983   8.088  13.274  0.00  0.00    +0.000 A 
ATOM     28  C   UNL     1      50.149   7.881  14.015  0.00  0.00    +0.000 A 
BRANCH  23  30
ATOM     29  N   UNL     1      52.283   6.697  16.522  0.00  0.00    +0.000 NA
ATOM     30  C   UNL     1      51.313   6.880  15.920  0.00  0.00    +0.000 C 
ENDBRANCH  23  30
ENDBRANCH  17  26
ENDBRANCH   1  21
TORSDOF 5
ENDMDL
MODEL 4
REMARK VINA RESULT:    -6.857      1.476      2.047
REMARK INTER + INTRA:          -9.978
REMARK INTER:                  -9.948
REMARK INTRA:                  -0.030
REMARK UNBOUND:                -1.117
REMARK  Name = 
REMARK  5 active torsions:
REMARK  status: ('A' for Active; 'I' for Inactive)
REMARK    1  A    between atoms: C_2  and  C_3
REMARK    2  A    between atoms: C_6  and  C_7
REMARK    3  A    between atoms: C_11  and  C_12
REMARK    4  A    between atoms: C_12  and  N_13
REMARK    5  A    between atoms: C_17  and  C_18
REMARK                            x       y       z     vdW  Elec       q    Type
REMARK                         _______ _______ _______ _____ _____    ______ ____
ROOT
ATOM      1  C   UNL     1      44.614   5.742  11.188  0.00  0.00    +0.000 C 
ATOM      2  C   UNL     1      43.250   5.421  11.785  0.00  0.00    +0.000 C 
ATOM      3  C   UNL     1      44.419   4.560  12.123  0.00  0.00    +0.000 C 
ENDROOT
BRANCH   1   4
ATOM      4  N   UNL     1      44.813   5.521   9.743  0.00  0.00    +0.000 N 
ATOM      5  C   UNL     1      45.383   4.360   9.200  0.00  0.00    +0.000 A 
ATOM      6  C   UNL     1      45.158   3.081   9.692  0.00  0.00    +0.000 A 
ATOM      7  C   UNL     1      45.695   1.973   9.026  0.00  0.00    +0.000 A 
ATOM      8  C   UNL     1      46.455   2.160   7.873  0.00  0.00    +0.000 A 
ATOM      9  C   UNL     1      46.630   3.465   7.451  0.00  0.00    +0.000 A 
ATOM     10  N   UNL     1      46.115   4.555   8.081  0.00  0.00    +0.000 NA
ATOM     11  H   UNL     1      45.247   6.289   9.236  0.00  0.00    +0.000 HD
BRANCH   8  12
ATOM     12  C   UNL     1      47.019   0.978   7.176  0.00  0.00    +0.000 C 
ATOM     13  N   UNL     1      46.707  -0.274   7.631  0.00  0.00    +0.000 N 
ATOM     14  O   UNL     1      47.750   1.108   6.202  0.00  0.00    +0.000 OA
ATOM     15  H   UNL     1      46.111  -0.493   8.414  0.00  0.00    +0.000 HD
ATOM     16  H   UNL     1      47.104  -1.051   7.117  0.00  0.00    +0.000 HD
ENDBRANCH   8  12
ENDBRANCH   1   4
BRANCH   1  21
ATOM     17  C   UNL     1      47.359   8.346  11.917  0.00  0.00    +0.000 A 
ATOM     18  C   UNL     1      46.628   9.320  12.613  0.00  0.00    +0.000 A 
ATOM     19  C   UNL     1      45.259   9.160  12.846  0.00  0.00    +0.000 A 
ATOM     20  C   UNL     1      44.605   8.013  12.397  0.00  0.00    +0.000 A 
ATOM     21  C   UNL     1      45.294   7.003  11.707  0.00  0.00    +0.000 A 
ATOM     22  C   UNL     1      46.663   7.208  11.475  0.00  0.00    +0.000 A 
BRANCH  17  26
ATOM     23  C   UNL     1      51.541   8.758  10.997  0.00  0.00    +0.000 A 
ATOM     24  C   UNL     1      50.974   7.490  11.110  0.00  0.00    +0.000 A 
ATOM     25  C   UNL     1      49.621   7.364  11.432  0.00  0.00    +0.000 A 
ATOM     26  C   UNL     1      48.801   8.493  11.628  0.00  0.00    +0.000 A 
ATOM     27  C   UNL     1      49.399   9.759  11.506  0.00  0.00    +0.000 A 
ATOM     28  C   UNL     1      50.756   9.892  11.200  0.00  0.00    +0.000 A 
BRANCH  23  30
ATOM     29  N   UNL     1      54.046   9.006  10.404  0.00  0.00    +0.000 NA
ATOM     30  C   UNL     1      52.927   8.898  10.670  0.00  0.00    +0.000 C 
ENDBRANCH  23  30
ENDBRANCH  17  26
ENDBRANCH   1  21
TORSDOF 5
ENDMDL
MODEL 5
REMARK VINA RESULT:    -6.521      5.510      8.714
REMARK INTER + INTRA:          -9.544
REMARK INTER:                  -8.591
REMARK INTRA:                  -0.954
REMARK UNBOUND:                -1.117
REMARK  Name = 
REMARK  5 active torsions:
REMARK  status: ('A' for Active; 'I' for Inactive)
REMARK    1  A    between atoms: C_2  and  C_3
REMARK    2  A    between atoms: C_6  and  C_7
REMARK    3  A    between atoms: C_11  and  C_12
REMARK    4  A    between atoms: C_12  and  N_13
REMARK    5  A    between atoms: C_17  and  C_18
REMARK                            x       y       z     vdW  Elec       q    Type
REMARK                         _______ _______ _______ _____ _____    ______ ____
ROOT
ATOM      1  C   UNL     1      50.105   7.601  16.767  0.00  0.00    +0.000 C 
ATOM      2  C   UNL     1      49.835   8.932  17.457  0.00  0.00    +0.000 C 
ATOM      3  C   UNL     1      51.234   8.431  17.353  0.00  0.00    +0.000 C 
ENDROOT
BRANCH   1   4
ATOM      4  N   UNL     1      49.664   6.364  17.439  0.00  0.00    +0.000 N 
ATOM      5  C   UNL     1      50.396   5.168  17.435  0.00  0.00    +0.000 A 
ATOM      6  C   UNL     1      51.781   5.105  17.522  0.00  0.00    +0.000 A 
ATOM      7  C   UNL     1      52.418   3.861  17.607  0.00  0.00    +0.000 A 
ATOM      8  C   UNL     1      51.660   2.693  17.600  0.00  0.00    +0.000 A 
ATOM      9  C   UNL     1      50.288   2.845  17.510  0.00  0.00    +0.000 A 
ATOM     10  N   UNL     1      49.649   4.043  17.431  0.00  0.00    +0.000 NA
ATOM     11  H   UNL     1      48.702   6.085  17.259  0.00  0.00    +0.000 HD
BRANCH   8  12
ATOM     12  C   UNL     1      52.347   1.381  17.690  0.00  0.00    +0.000 C 
ATOM     13  N   UNL     1      51.637   0.285  18.095  0.00  0.00    +0.000 N 
ATOM     14  O   UNL     1      53.532   1.267  17.402  0.00  0.00    +0.000 OA
ATOM     15  H   UNL     1      50.660   0.266  18.347  0.00  0.00    +0.000 HD
ATOM     16  H   UNL     1      52.142  -0.592  18.130  0.00  0.00    +0.000 HD
ENDBRANCH   8  12
ENDBRANCH   1   4
BRANCH   1  21
ATOM     17  C   UNL     1      48.557   6.812  13.327  0.00  0.00    +0.000 A 
ATOM     18  C   UNL     1      49.436   7.494  12.474  0.00  0.00    +0.000 A 
ATOM     19  C   UNL     1      50.518   8.216  12.985  0.00  0.00    +0.000 A 
ATOM     20  C   UNL     1      50.745   8.252  14.360  0.00  0.00    +0.000 A 
ATOM     21  C   UNL     1      49.901   7.575  15.257  0.00  0.00    +0.000 A 
ATOM     22  C   UNL     1      48.814   6.878  14.708  0.00  0.00    +0.000 A 
BRANCH  17  26
ATOM     23  C   UNL     1      45.199   4.590  11.812  0.00  0.00    +0.000 A 
ATOM     24  C   UNL     1      45.669   5.704  11.116  0.00  0.00    +0.000 A 
ATOM     25  C   UNL     1      46.744   6.433  11.627  0.00  0.00    +0.000 A 
ATOM     26  C   UNL     1      47.387   6.062  12.825  0.00  0.00    +0.000 A 
ATOM     27  C   UNL     1      46.893   4.934  13.504  0.00  0.00    +0.000 A 
ATOM     28  C   UNL     1      45.807   4.209  13.007  0.00  0.00    +0.000 A 
BRANCH  23  30
ATOM     29  N   UNL     1      43.206   3.226  10.888  0.00  0.00    +0.000 NA
ATOM     30  C   UNL     1      44.096   3.838  11.298  0.00  0.00    +0.000 C 
ENDBRANCH  23  30
ENDBRANCH  17  26
ENDBRANCH   1  21
TORSDOF 5
ENDMDL
