MODEL 1
REMARK VINA RESULT:    -9.567      0.000      0.000
REMARK INTER + INTRA:         -13.061
REMARK INTER:                 -12.363
REMARK INTRA:                  -0.697
REMARK UNBOUND:                -0.697
REMARK  Name = 
REMARK  5 active torsions:
REMARK  status: ('A' for Active; 'I' for Inactive)
REMARK    1  A    between atoms: C_2  and  C_4
REMARK    2  A    between atoms: N_8  and  C_9
REMARK    3  A    between atoms: C_9  and  C_10
REMARK    4  A    between atoms: C_10  and  C_11
REMARK    5  A    between atoms: C_15  and  C_16
REMARK                            x       y       z     vdW  Elec       q    Type
REMARK                         _______ _______ _______ _____ _____    ______ ____
ROOT
ATOM      1  C   UNL     1      43.357   4.466  11.232  0.00  0.00    +0.000 C 
ENDROOT
BRANCH   1   6
ATOM      2  C   UNL     1      46.435   2.466   7.733  0.00  0.00    +0.000 A 
ATOM      3  C   UNL     1      45.632   1.828   8.669  0.00  0.00    +0.000 A 
ATOM      4  C   UNL     1      44.719   2.582   9.407  0.00  0.00    +0.000 A 
ATOM      5  C   UNL     1      44.641   3.959   9.214  0.00  0.00    +0.000 A 
ATOM      6  N   UNL     1      43.703   4.761   9.849  0.00  0.00    +0.000 N 
ATOM      7  N   UNL     1      45.439   4.593   8.331  0.00  0.00    +0.000 NA
ATOM      8  C   UNL     1      46.320   3.841   7.617  0.00  0.00    +0.000 A 
ATOM      9  H   UNL     1      43.963   5.726   9.651  0.00  0.00    +0.000 HD
BRANCH   2  11
ATOM     10  N   UNL     1      48.467   2.441   6.404  0.00  0.00    +0.000 N 
ATOM     11  C   UNL     1      47.388   1.740   6.871  0.00  0.00    +0.000 C 
ATOM     12  O   UNL     1      47.244   0.550   6.612  0.00  0.00    +0.000 OA
ATOM     13  H   UNL     1      49.172   1.908   5.909  0.00  0.00    +0.000 HD
ATOM     14  H   UNL     1      48.750   3.326   6.802  0.00  0.00    +0.000 HD
ENDBRANCH   2  11
ENDBRANCH   1   6
BRANCH   1  15
ATOM     15  C   UNL     1      43.639   5.672  12.135  0.00  0.00    +0.000 C 
BRANCH  15  16
ATOM     16  C   UNL     1      45.122   5.816  12.379  0.00  0.00    +0.000 A 
ATOM     17  C   UNL     1      45.902   6.647  11.567  0.00  0.00    +0.000 A 
ATOM     18  C   UNL     1      47.251   6.836  11.852  0.00  0.00    +0.000 A 
ATOM     19  C   UNL     1      47.829   6.213  12.962  0.00  0.00    +0.000 A 
ATOM     20  C   UNL     1      47.077   5.382  13.812  0.00  0.00    +0.000 A 
ATOM     21  C   UNL     1      45.721   5.184  13.481  0.00  0.00    +0.000 A 
BRANCH  20  22
ATOM     22  C   UNL     1      47.664   4.781  15.028  0.00  0.00    +0.000 A 
ATOM     23  N   UNL     1      48.347   5.587  15.867  0.00  0.00    +0.000 NA
ATOM     24  C   UNL     1      48.789   5.031  17.010  0.00  0.00    +0.000 A 
ATOM     25  C   UNL     1      48.583   3.715  17.345  0.00  0.00    +0.000 A 
ATOM     26  C   UNL     1      47.888   2.973  16.422  0.00  0.00    +0.000 A 
ATOM     27  N   UNL     1      47.419   3.476  15.266  0.00  0.00    +0.000 NA
ENDBRANCH  20  22
ENDBRANCH  15  16
ENDBRANCH   1  15
TORSDOF 5
ENDMDL
MODEL 2
REMARK VINA RESULT:    -8.843      2.126      3.618
REMARK INTER + INTRA:         -12.125
REMARK INTER:                 -11.308
REMARK INTRA:                  -0.817
REMARK UNBOUND:                -0.697
REMARK  Name = 
REMARK  5 active torsions:
REMARK  status: ('A' for Active; 'I' for Inactive)
REMARK    1  A    between atoms: C_2  and  C_4
REMARK    2  A    between atoms: N_8  and  C_9
REMARK    3  A    between atoms: C_9  and  C_10
REMARK    4  A    between atoms: C_10  and  C_11
REMARK    5  A    between atoms: C_15  and  C_16
REMARK                            x       y       z     vdW  Elec       q    Type
REMARK                         _______ _______ _______ _____ _____    ______ ____
ROOT
ATOM      1  C   UNL     1      43.243   4.348  11.189  0.00  0.00    +0.000 C 
ENDROOT
BRANCH   1   6
ATOM      2  C   UNL     1      46.470   2.538   7.719  0.00  0.00    +0.000 A 
ATOM      3  C   UNL     1      45.619   1.851   8.575  0.00  0.00    +0.000 A 
ATOM      4  C   UNL     1      44.677   2.568   9.316  0.00  0.00    +0.000 A 
ATOM      5  C   UNL     1      44.618   3.955   9.205  0.00  0.00    +0.000 A 
ATOM      6  N   UNL     1      43.657   4.724   9.844  0.00  0.00    +0.000 N 
ATOM      7  N   UNL     1      45.460   4.634   8.402  0.00  0.00    +0.000 NA
ATOM      8  C   UNL     1      46.370   3.920   7.683  0.00  0.00    +0.000 A 
ATOM      9  H   UNL     1      43.932   5.697   9.719  0.00  0.00    +0.000 HD
BRANCH   2  11
ATOM     10  N   UNL     1      48.540   2.590   6.451  0.00  0.00    +0.000 N 
ATOM     11  C   UNL     1      47.458   1.858   6.859  0.00  0.00    +0.000 C 
ATOM     12  O   UNL     1      47.338   0.678   6.552  0.00  0.00    +0.000 OA
ATOM     13  H   UNL     1      49.266   2.085   5.957  0.00  0.00    +0.000 HD
ATOM     14  H   UNL     1      48.799   3.463   6.890  0.00  0.00    +0.000 HD
ENDBRANCH   2  11
ENDBRANCH   1   6
BRANCH   1  15
ATOM     15  C   UNL     1      43.336   5.543  12.144  0.00  0.00    +0.000 C 
BRANCH  15  16
ATOM     16  C   UNL     1      44.757   5.731  12.621  0.00  0.00    +0.000 A 
ATOM     17  C   UNL     1      45.409   4.721  13.336  0.00  0.00    +0.000 A 
ATOM     18  C   UNL     1      46.744   4.872  13.699  0.00  0.00    +0.000 A 
ATOM     19  C   UNL     1      47.447   6.024  13.333  0.00  0.00    +0.000 A 
ATOM     20  C   UNL     1      46.832   7.056  12.600  0.00  0.00    +0.000 A 
ATOM     21  C   UNL     1      45.471   6.890  12.274  0.00  0.00    +0.000 A 
BRANCH  20  22
ATOM     22  C   UNL     1      47.589   8.242  12.145  0.00  0.00    +0.000 A 
ATOM     23  N   UNL     1      46.941   9.423  12.084  0.00  0.00    +0.000 NA
ATOM     24  C   UNL     1      47.679  10.500  11.757  0.00  0.00    +0.000 A 
ATOM     25  C   UNL     1      49.025  10.444  11.486  0.00  0.00    +0.000 A 
ATOM     26  C   UNL     1      49.592   9.196  11.562  0.00  0.00    +0.000 A 
ATOM     27  N   UNL     1      48.905   8.087  11.888  0.00  0.00    +0.000 NA
ENDBRANCH  20  22
ENDBRANCH  15  16
ENDBRANCH   1  15
TORSDOF 5
ENDMDL
MODEL 3
REMARK VINA RESULT:    -8.667      1.617      2.509
REMARK INTER + INTRA:         -11.898
REMARK INTER:                 -11.009
REMARK INTRA:                  -0.889
REMARK UNBOUND:                -0.697
REMARK  Name = 
REMARK  5 active torsions:
REMARK  status: ('A' for Active; 'I' for Inactive)
REMARK    1  A    between atoms: C_2  and  C_4
REMARK    2  A    between atoms: N_8  and  C_9
REMARK    3  A    between atoms: C_9  and  C_10
REMARK    4  A    between atoms: C_10  and  C_11
REMARK    5  A    between atoms: C_15  and  C_16
REMARK                            x       y       z     vdW  Elec       q    Type
REMARK                         _______ _______ _______ _____ _____    ______ ____
ROOT
ATOM      1  C   UNL     1      43.337   4.795  10.960  0.00  0.00    +0.000 C 
ENDROOT
BRANCH   1   6
ATOM      2  C   UNL     1      46.402   2.324   7.763  0.00  0.00    +0.000 A 
ATOM      3  C   UNL     1      45.523   1.817   8.711  0.00  0.00    +0.000 A 
ATOM      4  C   UNL     1      44.636   2.686   9.348  0.00  0.00    +0.000 A 
ATOM      5  C   UNL     1      44.659   4.045   9.045  0.00  0.00    +0.000 A 
ATOM      6  N   UNL     1      43.754   4.954   9.574  0.00  0.00    +0.000 N 
ATOM      7  N   UNL     1      45.530   4.552   8.150  0.00  0.00    +0.000 NA
ATOM      8  C   UNL     1      46.385   3.690   7.535  0.00  0.00    +0.000 A 
ATOM      9  H   UNL     1      44.086   5.880   9.313  0.00  0.00    +0.000 HD
BRANCH   2  11
ATOM     10  N   UNL     1      48.478   2.061   6.530  0.00  0.00    +0.000 N 
ATOM     11  C   UNL     1      47.336   1.471   7.002  0.00  0.00    +0.000 C 
ATOM     12  O   UNL     1      47.121   0.277   6.830  0.00  0.00    +0.000 OA
ATOM     13  H   UNL     1      49.163   1.445   6.109  0.00  0.00    +0.000 HD
ATOM     14  H   UNL     1      48.805   2.954   6.870  0.00  0.00    +0.000 HD
ENDBRANCH   2  11
ENDBRANCH   1   6
BRANCH   1  15
ATOM     15  C   UNL     1      43.906   5.918  11.834  0.00  0.00    +0.000 C 
BRANCH  15  16
ATOM     16  C   UNL     1      45.118   5.434  12.596  0.00  0.00    +0.000 A 
ATOM     17  C   UNL     1      45.301   4.071  12.854  0.00  0.00    +0.000 A 
ATOM     18  C   UNL     1      46.461   3.629  13.483  0.00  0.00    +0.000 A 
ATOM     19  C   UNL     1      47.458   4.541  13.842  0.00  0.00    +0.000 A 
ATOM     20  C   UNL     1      47.320   5.918  13.586  0.00  0.00    +0.000 A 
ATOM     21  C   UNL     1      46.121   6.340  12.976  0.00  0.00    +0.000 A 
BRANCH  20  22
ATOM     22  C   UNL     1      48.401   6.877  13.894  0.00  0.00    +0.000 A 
ATOM     23  N   UNL     1      48.389   8.070  13.265  0.00  0.00    +0.000 NA
ATOM     24  C   UNL     1      49.333   8.956  13.634  0.00  0.00    +0.000 A 
ATOM     25  C   UNL     1      50.281   8.700  14.595  0.00  0.00    +0.000 A 
ATOM     26  C   UNL     1      50.219   7.454  15.169  0.00  0.00    +0.000 A 
ATOM     27  N   UNL     1      49.297   6.531  14.842  0.00  0.00    +0.000 NA
ENDBRANCH  20  22
ENDBRANCH  15  16
ENDBRANCH   1  15
TORSDOF 5
ENDMDL
MODEL 4
REMARK VINA RESULT:    -8.068      2.657      4.574
REMARK INTER + INTRA:         -11.124
REMARK INTER:                 -10.952
REMARK INTRA:                  -0.172
REMARK UNBOUND:                -0.697
REMARK  Name = 
REMARK  5 active torsions:
REMARK  status: ('A' for Active; 'I' for Inactive)
REMARK    1  A    between atoms: C_2  and  C_4
REMARK    2  A    between atoms: N_8  and  C_9
REMARK    3  A    between atoms: C_9  and  C_10
REMARK    4  A    between atoms: C_10  and  C_11
REMARK    5  A    between atoms: C_15  and  C_16
REMARK                            x       y       z     vdW  Elec       q    Type
REMARK                         _______ _______ _______ _____ _____    ______ ____
ROOT
ATOM      1  C   UNL     1      43.464   4.342  11.074  0.00  0.00    +0.000 C 
ENDROOT
BRANCH   1   6
ATOM      2  C   UNL     1      46.621   2.711   7.455  0.00  0.00    +0.000 A 
ATOM      3  C   UNL     1      45.763   1.984   8.270  0.00  0.00    +0.000 A 
ATOM      4  C   UNL     1      44.843   2.667   9.067  0.00  0.00    +0.000 A 
ATOM      5  C   UNL     1      44.814   4.059   9.055  0.00  0.00    +0.000 A 
ATOM      6  N   UNL     1      43.875   4.803   9.755  0.00  0.00    +0.000 N 
ATOM      7  N   UNL     1      45.664   4.775   8.292  0.00  0.00    +0.000 NA
ATOM      8  C   UNL     1      46.552   4.093   7.518  0.00  0.00    +0.000 A 
ATOM      9  H   UNL     1      44.170   5.775   9.696  0.00  0.00    +0.000 HD
BRANCH   2  11
ATOM     10  N   UNL     1      48.039   2.820   5.487  0.00  0.00    +0.000 N 
ATOM     11  C   UNL     1      47.587   2.072   6.540  0.00  0.00    +0.000 C 
ATOM     12  O   UNL     1      47.999   0.933   6.733  0.00  0.00    +0.000 OA
ATOM     13  H   UNL     1      48.783   2.414   4.932  0.00  0.00    +0.000 HD
ATOM     14  H   UNL     1      47.926   3.823   5.448  0.00  0.00    +0.000 HD
ENDBRANCH   2  11
ENDBRANCH   1   6
BRANCH   1  15
ATOM     15  C   UNL     1      44.683   4.086  11.967  0.00  0.00    +0.000 C 
BRANCH  15  16
ATOM     16  C   UNL     1      45.328   5.390  12.371  0.00  0.00    +0.000 A 
ATOM     17  C   UNL     1      46.540   5.401  13.069  0.00  0.00    +0.000 A 
ATOM     18  C   UNL     1      47.167   6.608  13.363  0.00  0.00    +0.000 A 
ATOM     19  C   UNL     1      46.600   7.815  12.944  0.00  0.00    +0.000 A 
ATOM     20  C   UNL     1      45.389   7.847  12.227  0.00  0.00    +0.000 A 
ATOM     21  C   UNL     1      44.762   6.612  11.971  0.00  0.00    +0.000 A 
BRANCH  20  22
ATOM     22  C   UNL     1      44.824   9.114  11.717  0.00  0.00    +0.000 A 
ATOM     23  N   UNL     1      45.428  10.267  12.073  0.00  0.00    +0.000 NA
ATOM     24  C   UNL     1      44.946  11.395  11.519  0.00  0.00    +0.000 A 
ATOM     25  C   UNL     1      43.894  11.419  10.636  0.00  0.00    +0.000 A 
ATOM     26  C   UNL     1      43.338  10.198  10.345  0.00  0.00    +0.000 A 
ATOM     27  N   UNL     1      43.779   9.039  10.866  0.00  0.00    +0.000 NA
ENDBRANCH  20  22
ENDBRANCH  15  16
ENDBRANCH   1  15
TORSDOF 5
ENDMDL
MODEL 5
REMARK VINA RESULT:    -7.840      1.493      2.074
REMARK INTER + INTRA:         -10.829
REMARK INTER:                  -9.926
REMARK INTRA:                  -0.902
REMARK UNBOUND:                -0.697
REMARK  Name = 
REMARK  5 active torsions:
REMARK  status: ('A' for Active; 'I' for Inactive)
REMARK    1  A    between atoms: C_2  and  C_4
REMARK    2  A    between atoms: N_8  and  C_9
REMARK    3  A    between atoms: C_9  and  C_10
REMARK    4  A    between atoms: C_10  and  C_11
REMARK    5  A    between atoms: C_15  and  C_16
REMARK                            x       y       z     vdW  Elec       q    Type
REMARK                         _______ _______ _______ _____ _____    ______ ____
ROOT
ATOM      1  C   UNL     1      43.427   3.510  11.125  0.00  0.00    +0.000 C 
ENDROOT
BRANCH   1   6
ATOM      2  C   UNL     1      46.546   2.545   7.243  0.00  0.00    +0.000 A 
ATOM      3  C   UNL     1      46.185   3.764   7.803  0.00  0.00    +0.000 A 
ATOM      4  C   UNL     1      45.458   3.775   8.994  0.00  0.00    +0.000 A 
ATOM      5  C   UNL     1      45.084   2.573   9.590  0.00  0.00    +0.000 A 
ATOM      6  N   UNL     1      44.434   2.505  10.814  0.00  0.00    +0.000 N 
ATOM      7  N   UNL     1      45.400   1.385   9.038  0.00  0.00    +0.000 NA
ATOM      8  C   UNL     1      46.114   1.392   7.878  0.00  0.00    +0.000 A 
ATOM      9  H   UNL     1      44.148   1.536  10.938  0.00  0.00    +0.000 HD
BRANCH   2  11
ATOM     10  N   UNL     1      47.077   3.311   5.002  0.00  0.00    +0.000 N 
ATOM     11  C   UNL     1      47.360   2.438   6.017  0.00  0.00    +0.000 C 
ATOM     12  O   UNL     1      48.276   1.629   5.922  0.00  0.00    +0.000 OA
ATOM     13  H   UNL     1      47.711   3.306   4.212  0.00  0.00    +0.000 HD
ATOM     14  H   UNL     1      46.519   4.143   5.142  0.00  0.00    +0.000 HD
ENDBRANCH   2  11
ENDBRANCH   1   6
BRANCH   1  15
ATOM     15  C   UNL     1      43.685   4.134  12.501  0.00  0.00    +0.000 C 
BRANCH  15  16
ATOM     16  C   UNL     1      44.785   5.166  12.418  0.00  0.00    +0.000 A 
ATOM     17  C   UNL     1      44.738   6.182  11.457  0.00  0.00    +0.000 A 
ATOM     18  C   UNL     1      45.713   7.175  11.443  0.00  0.00    +0.000 A 
ATOM     19  C   UNL     1      46.732   7.174  12.400  0.00  0.00    +0.000 A 
ATOM     20  C   UNL     1      46.806   6.178  13.391  0.00  0.00    +0.000 A 
ATOM     21  C   UNL     1      45.824   5.168  13.362  0.00  0.00    +0.000 A 
BRANCH  20  22
ATOM     22  C   UNL     1      47.837   6.214  14.450  0.00  0.00    +0.000 A 
ATOM     23  N   UNL     1      47.759   5.301  15.441  0.00  0.00    +0.000 NA
ATOM     24  C   UNL     1      48.763   5.300  16.338  0.00  0.00    +0.000 A 
ATOM     25  C   UNL     1      49.828   6.166  16.289  0.00  0.00    +0.000 A 
ATOM     26  C   UNL     1      49.811   7.064  15.251  0.00  0.00    +0.000 A 
ATOM     27  N   UNL     1      48.838   7.110  14.324  0.00  0.00    +0.000 NA
ENDBRANCH  20  22
ENDBRANCH  15  16
ENDBRANCH   1  15
TORSDOF 5
ENDMDL
MODEL 6
REMARK VINA RESULT:    -7.568      2.882      7.845
REMARK INTER + INTRA:         -10.478
REMARK INTER:                  -9.972
REMARK INTRA:                  -0.506
REMARK UNBOUND:                -0.697
REMARK  Name = 
REMARK  5 active torsions:
REMARK  status: ('A' for Active; 'I' for Inactive)
REMARK    1  A    between atoms: C_2  and  C_4
REMARK    2  A    between atoms: N_8  and  C_9
REMARK    3  A    between atoms: C_9  and  C_10
REMARK    4  A    between atoms: C_10  and  C_11
REMARK    5  A    between atoms: C_15  and  C_16
REMARK                            x       y       z     vdW  Elec       q    Type
REMARK                         _______ _______ _______ _____ _____    ______ ____
ROOT
ATOM      1  C   UNL     1      47.108   6.672  12.974  0.00  0.00    +0.000 C 
ENDROOT
BRANCH   1   6
ATOM      2  C   UNL     1      48.674   4.093  17.052  0.00  0.00    +0.000 A 
ATOM      3  C   UNL     1      48.895   5.421  16.710  0.00  0.00    +0.000 A 
ATOM      4  C   UNL     1      48.202   5.968  15.628  0.00  0.00    +0.000 A 
ATOM      5  C   UNL     1      47.322   5.175  14.897  0.00  0.00    +0.000 A 
ATOM      6  N   UNL     1      46.538   5.669  13.864  0.00  0.00    +0.000 N 
ATOM      7  N   UNL     1      47.125   3.877  15.201  0.00  0.00    +0.000 NA
ATOM      8  C   UNL     1      47.804   3.360  16.260  0.00  0.00    +0.000 A 
ATOM      9  H   UNL     1      46.112   4.863  13.410  0.00  0.00    +0.000 HD
BRANCH   2  11
ATOM     10  N   UNL     1      48.538   3.207  19.308  0.00  0.00    +0.000 N 
ATOM     11  C   UNL     1      49.320   3.449  18.212  0.00  0.00    +0.000 C 
ATOM     12  O   UNL     1      50.498   3.109  18.185  0.00  0.00    +0.000 OA
ATOM     13  H   UNL     1      48.960   2.665  20.053  0.00  0.00    +0.000 HD
ATOM     14  H   UNL     1      47.528   3.232  19.269  0.00  0.00    +0.000 HD
ENDBRANCH   2  11
ENDBRANCH   1   6
BRANCH   1  15
ATOM     15  C   UNL     1      46.020   7.317  12.110  0.00  0.00    +0.000 C 
BRANCH  15  16
ATOM     16  C   UNL     1      45.178   6.257  11.439  0.00  0.00    +0.000 A 
ATOM     17  C   UNL     1      43.801   6.182  11.678  0.00  0.00    +0.000 A 
ATOM     18  C   UNL     1      43.022   5.256  10.992  0.00  0.00    +0.000 A 
ATOM     19  C   UNL     1      43.607   4.409  10.046  0.00  0.00    +0.000 A 
ATOM     20  C   UNL     1      44.985   4.463   9.765  0.00  0.00    +0.000 A 
ATOM     21  C   UNL     1      45.754   5.389  10.498  0.00  0.00    +0.000 A 
BRANCH  20  22
ATOM     22  C   UNL     1      45.596   3.623   8.713  0.00  0.00    +0.000 A 
ATOM     23  N   UNL     1      46.128   4.240   7.638  0.00  0.00    +0.000 NA
ATOM     24  C   UNL     1      46.758   3.456   6.744  0.00  0.00    +0.000 A 
ATOM     25  C   UNL     1      46.873   2.094   6.875  0.00  0.00    +0.000 A 
ATOM     26  C   UNL     1      46.289   1.557   7.995  0.00  0.00    +0.000 A 
ATOM     27  N   UNL     1      45.650   2.291   8.924  0.00  0.00    +0.000 NA
ENDBRANCH  20  22
ENDBRANCH  15  16
ENDBRANCH   1  15
TORSDOF 5
ENDMDL
MODEL 7
REMARK VINA RESULT:    -7.489      2.607      7.455
REMARK INTER + INTRA:         -10.376
REMARK INTER:                  -9.466
REMARK INTRA:                  -0.909
REMARK UNBOUND:                -0.697
REMARK  Name = 
REMARK  5 active torsions:
REMARK  status: ('A' for Active; 'I' for Inactive)
REMARK    1  A    between atoms: C_2  and  C_4
REMARK    2  A    between atoms: N_8  and  C_9
REMARK    3  A    between atoms: C_9  and  C_10
REMARK    4  A    between atoms: C_10  and  C_11
REMARK    5  A    between atoms: C_15  and  C_16
REMARK                            x       y       z     vdW  Elec       q    Type
REMARK                         _______ _______ _______ _____ _____    ______ ____
ROOT
ATOM      1  C   UNL     1      45.528   7.306  12.605  0.00  0.00    +0.000 C 
ENDROOT
BRANCH   1   6
ATOM      2  C   UNL     1      47.755   4.083  15.827  0.00  0.00    +0.000 A 
ATOM      3  C   UNL     1      46.701   3.865  14.948  0.00  0.00    +0.000 A 
ATOM      4  C   UNL     1      46.379   4.852  14.016  0.00  0.00    +0.000 A 
ATOM      5  C   UNL     1      47.097   6.045  13.994  0.00  0.00    +0.000 A 
ATOM      6  N   UNL     1      46.890   7.035  13.044  0.00  0.00    +0.000 N 
ATOM      7  N   UNL     1      48.100   6.280  14.863  0.00  0.00    +0.000 NA
ATOM      8  C   UNL     1      48.404   5.305  15.762  0.00  0.00    +0.000 A 
ATOM      9  H   UNL     1      47.429   7.845  13.346  0.00  0.00    +0.000 HD
BRANCH   2  11
ATOM     10  N   UNL     1      47.387   2.852  17.887  0.00  0.00    +0.000 N 
ATOM     11  C   UNL     1      48.199   3.073  16.808  0.00  0.00    +0.000 C 
ATOM     12  O   UNL     1      49.231   2.432  16.647  0.00  0.00    +0.000 OA
ATOM     13  H   UNL     1      47.642   2.081  18.493  0.00  0.00    +0.000 HD
ATOM     14  H   UNL     1      46.426   3.163  17.914  0.00  0.00    +0.000 HD
ENDBRANCH   2  11
ENDBRANCH   1   6
BRANCH   1  15
ATOM     15  C   UNL     1      45.397   7.128  11.089  0.00  0.00    +0.000 C 
BRANCH  15  16
ATOM     16  C   UNL     1      44.991   5.712  10.755  0.00  0.00    +0.000 A 
ATOM     17  C   UNL     1      43.904   5.111  11.399  0.00  0.00    +0.000 A 
ATOM     18  C   UNL     1      43.487   3.837  11.024  0.00  0.00    +0.000 A 
ATOM     19  C   UNL     1      44.139   3.159   9.990  0.00  0.00    +0.000 A 
ATOM     20  C   UNL     1      45.226   3.735   9.306  0.00  0.00    +0.000 A 
ATOM     21  C   UNL     1      45.646   5.013   9.728  0.00  0.00    +0.000 A 
BRANCH  20  22
ATOM     22  C   UNL     1      45.871   3.056   8.163  0.00  0.00    +0.000 A 
ATOM     23  N   UNL     1      46.121   3.781   7.053  0.00  0.00    +0.000 NA
ATOM     24  C   UNL     1      46.792   3.160   6.065  0.00  0.00    +0.000 A 
ATOM     25  C   UNL     1      47.215   1.855   6.138  0.00  0.00    +0.000 A 
ATOM     26  C   UNL     1      46.903   1.197   7.301  0.00  0.00    +0.000 A 
ATOM     27  N   UNL     1      46.239   1.767   8.322  0.00  0.00    +0.000 NA
ENDBRANCH  20  22
ENDBRANCH  15  16
ENDBRANCH   1  15
TORSDOF 5
ENDMDL
MODEL 8
REMARK VINA RESULT:    -7.154      3.890      7.262
REMARK INTER + INTRA:          -9.942
REMARK INTER:                  -9.243
REMARK INTRA:                  -0.700
REMARK UNBOUND:                -0.697
REMARK  Name = 
REMARK  5 active torsions:
REMARK  status: ('A' for Active; 'I' for Inactive)
REMARK    1  A    between atoms: C_2  and  C_4
REMARK    2  A    between atoms: N_8  and  C_9
REMARK    3  A    between atoms: C_9  and  C_10
REMARK    4  A    between atoms: C_10  and  C_11
REMARK    5  A    between atoms: C_15  and  C_16
REMARK                            x       y       z     vdW  Elec       q    Type
REMARK                         _______ _______ _______ _____ _____    ______ ____
ROOT
ATOM      1  C   UNL     1      44.979   7.019  12.660  0.00  0.00    +0.000 C 
ENDROOT
BRANCH   1   6
ATOM      2  C   UNL     1      49.784   8.547  12.101  0.00  0.00    +0.000 A 
ATOM      3  C   UNL     1      49.150   7.423  11.586  0.00  0.00    +0.000 A 
ATOM      4  C   UNL     1      47.765   7.306  11.715  0.00  0.00    +0.000 A 
ATOM      5  C   UNL     1      47.044   8.299  12.374  0.00  0.00    +0.000 A 
ATOM      6  N   UNL     1      45.659   8.292  12.467  0.00  0.00    +0.000 N 
ATOM      7  N   UNL     1      47.653   9.377  12.905  0.00  0.00    +0.000 NA
ATOM      8  C   UNL     1      49.003   9.477  12.768  0.00  0.00    +0.000 A 
ATOM      9  H   UNL     1      45.408   9.034  13.118  0.00  0.00    +0.000 HD
BRANCH   2  11
ATOM     10  N   UNL     1      52.056   8.150  12.861  0.00  0.00    +0.000 N 
ATOM     11  C   UNL     1      51.235   8.779  11.963  0.00  0.00    +0.000 C 
ATOM     12  O   UNL     1      51.692   9.473  11.063  0.00  0.00    +0.000 OA
ATOM     13  H   UNL     1      53.051   8.225  12.690  0.00  0.00    +0.000 HD
ATOM     14  H   UNL     1      51.740   7.382  13.436  0.00  0.00    +0.000 HD
ENDBRANCH   2  11
ENDBRANCH   1   6
BRANCH   1  15
ATOM     15  C   UNL     1      44.081   6.692  11.463  0.00  0.00    +0.000 C 
BRANCH  15  16
ATOM     16  C   UNL     1      44.135   5.216  11.147  0.00  0.00    +0.000 A 
ATOM     17  C   UNL     1      43.357   4.303  11.867  0.00  0.00    +0.000 A 
ATOM     18  C   UNL     1      43.352   2.957  11.513  0.00  0.00    +0.000 A 
ATOM     19  C   UNL     1      44.108   2.514  10.424  0.00  0.00    +0.000 A 
ATOM     20  C   UNL     1      44.892   3.402   9.664  0.00  0.00    +0.000 A 
ATOM     21  C   UNL     1      44.901   4.753  10.065  0.00  0.00    +0.000 A 
BRANCH  20  22
ATOM     22  C   UNL     1      45.633   2.953   8.467  0.00  0.00    +0.000 A 
ATOM     23  N   UNL     1      45.885   3.860   7.500  0.00  0.00    +0.000 NA
ATOM     24  C   UNL     1      46.641   3.444   6.466  0.00  0.00    +0.000 A 
ATOM     25  C   UNL     1      47.147   2.172   6.358  0.00  0.00    +0.000 A 
ATOM     26  C   UNL     1      46.827   1.319   7.386  0.00  0.00    +0.000 A 
ATOM     27  N   UNL     1      46.079   1.680   8.444  0.00  0.00    +0.000 NA
ENDBRANCH  20  22
ENDBRANCH  15  16
ENDBRANCH   1  15
TORSDOF 5
ENDMDL
MODEL 9
REMARK VINA RESULT:    -6.998      2.979      7.672
REMARK INTER + INTRA:          -9.740
REMARK INTER:                  -8.914
REMARK INTRA:                  -0.827
REMARK UNBOUND:                -0.697
REMARK  Name = 
REMARK  5 active torsions:
REMARK  status: ('A' for Active; 'I' for Inactive)
REMARK    1  A    between atoms: C_2  and  C_4
REMARK    2  A    between atoms: N_8  and  C_9
REMARK    3  A    between atoms: C_9  and  C_10
REMARK    4  A    between atoms: C_10  and  C_11
REMARK    5  A    between atoms: C_15  and  C_16
REMARK                            x       y       z     vdW  Elec       q    Type
REMARK                         _______ _______ _______ _____ _____    ______ ____
ROOT
ATOM      1  C   UNL     1      49.001   8.469  13.763  0.00  0.00    +0.000 C 
ENDROOT
BRANCH   1   6
ATOM      2  C   UNL     1      48.103   4.531  16.831  0.00  0.00    +0.000 A 
ATOM      3  C   UNL     1      47.385   4.970  15.726  0.00  0.00    +0.000 A 
ATOM      4  C   UNL     1      47.929   5.967  14.915  0.00  0.00    +0.000 A 
ATOM      5  C   UNL     1      49.165   6.523  15.235  0.00  0.00    +0.000 A 
ATOM      6  N   UNL     1      49.805   7.457  14.433  0.00  0.00    +0.000 N 
ATOM      7  N   UNL     1      49.855   6.127  16.323  0.00  0.00    +0.000 NA
ATOM      8  C   UNL     1      49.312   5.151  17.101  0.00  0.00    +0.000 A 
ATOM      9  H   UNL     1      50.601   7.802  14.967  0.00  0.00    +0.000 HD
BRANCH   2  11
ATOM     10  N   UNL     1      48.394   3.153  18.809  0.00  0.00    +0.000 N 
ATOM     11  C   UNL     1      47.630   3.444  17.711  0.00  0.00    +0.000 C 
ATOM     12  O   UNL     1      46.580   2.852  17.493  0.00  0.00    +0.000 OA
ATOM     13  H   UNL     1      48.005   2.486  19.464  0.00  0.00    +0.000 HD
ATOM     14  H   UNL     1      49.107   3.780  19.154  0.00  0.00    +0.000 HD
ENDBRANCH   2  11
ENDBRANCH   1   6
BRANCH   1  15
ATOM     15  C   UNL     1      48.790   8.112  12.288  0.00  0.00    +0.000 C 
BRANCH  15  16
ATOM     16  C   UNL     1      47.344   7.760  12.029  0.00  0.00    +0.000 A 
ATOM     17  C   UNL     1      46.321   8.649  12.373  0.00  0.00    +0.000 A 
ATOM     18  C   UNL     1      45.000   8.352  12.055  0.00  0.00    +0.000 A 
ATOM     19  C   UNL     1      44.690   7.172  11.371  0.00  0.00    +0.000 A 
ATOM     20  C   UNL     1      45.691   6.259  10.992  0.00  0.00    +0.000 A 
ATOM     21  C   UNL     1      47.016   6.572  11.356  0.00  0.00    +0.000 A 
BRANCH  20  22
ATOM     22  C   UNL     1      45.379   5.048  10.204  0.00  0.00    +0.000 A 
ATOM     23  N   UNL     1      44.719   4.044  10.818  0.00  0.00    +0.000 NA
ATOM     24  C   UNL     1      44.368   2.996  10.050  0.00  0.00    +0.000 A 
ATOM     25  C   UNL     1      44.650   2.908   8.709  0.00  0.00    +0.000 A 
ATOM     26  C   UNL     1      45.334   3.973   8.178  0.00  0.00    +0.000 A 
ATOM     27  N   UNL     1      45.707   5.048   8.895  0.00  0.00    +0.000 NA
ENDBRANCH  20  22
ENDBRANCH  15  16
ENDBRANCH   1  15
TORSDOF 5
ENDMDL
