MODEL 1
REMARK VINA RESULT:    -9.186      0.000      0.000
REMARK INTER + INTRA:         -12.875
REMARK INTER:                 -11.872
REMARK INTRA:                  -1.003
REMARK UNBOUND:                -1.003
REMARK  Name = 
REMARK  5 active torsions:
REMARK  status: ('A' for Active; 'I' for Inactive)
REMARK    1  A    between atoms: C_2  and  C_4
REMARK    2  A    between atoms: N_8  and  C_9
REMARK    3  A    between atoms: C_9  and  C_10
REMARK    4  A    between atoms: C_10  and  C_11
REMARK    5  A    between atoms: C_15  and  C_16
REMARK                            x       y       z     vdW  Elec       q    Type
REMARK                         _______ _______ _______ _____ _____    ______ ____
ROOT
ATOM      1  C   UNL     1      43.260   4.381  11.151  0.00  0.00    +0.000 C 
ENDROOT
BRANCH   1   6
ATOM      2  C   UNL     1      46.475   2.513   7.705  0.00  0.00    +0.000 A 
ATOM      3  C   UNL     1      45.626   1.852   8.585  0.00  0.00    +0.000 A 
ATOM      4  C   UNL     1      44.694   2.587   9.317  0.00  0.00    +0.000 A 
ATOM      5  C   UNL     1      44.638   3.972   9.179  0.00  0.00    +0.000 A 
ATOM      6  N   UNL     1      43.680   4.753   9.808  0.00  0.00    +0.000 N 
ATOM      7  N   UNL     1      45.480   4.629   8.357  0.00  0.00    +0.000 NA
ATOM      8  C   UNL     1      46.377   3.898   7.644  0.00  0.00    +0.000 A 
ATOM      9  H   UNL     1      43.956   5.724   9.675  0.00  0.00    +0.000 HD
BRANCH   2  11
ATOM     10  N   UNL     1      48.545   2.512   6.443  0.00  0.00    +0.000 N 
ATOM     11  C   UNL     1      47.448   1.805   6.854  0.00  0.00    +0.000 C 
ATOM     12  O   UNL     1      47.303   0.625   6.559  0.00  0.00    +0.000 OA
ATOM     13  H   UNL     1      49.257   1.987   5.949  0.00  0.00    +0.000 HD
ATOM     14  H   UNL     1      48.821   3.387   6.866  0.00  0.00    +0.000 HD
ENDBRANCH   2  11
ENDBRANCH   1   6
BRANCH   1  15
ATOM     15  C   UNL     1      43.404   5.559  12.120  0.00  0.00    +0.000 C 
BRANCH  15  16
ATOM     16  C   UNL     1      44.819   5.628  12.646  0.00  0.00    +0.000 A 
ATOM     17  C   UNL     1      45.372   4.558  13.356  0.00  0.00    +0.000 A 
ATOM     18  C   UNL     1      46.701   4.608  13.768  0.00  0.00    +0.000 A 
ATOM     19  C   UNL     1      47.496   5.710  13.443  0.00  0.00    +0.000 A 
ATOM     20  C   UNL     1      46.993   6.778  12.679  0.00  0.00    +0.000 A 
ATOM     21  C   UNL     1      45.631   6.727  12.324  0.00  0.00    +0.000 A 
BRANCH  20  22
ATOM     22  C   UNL     1      47.873   7.852  12.160  0.00  0.00    +0.000 A 
ATOM     23  C   UNL     1      47.418   9.182  12.097  0.00  0.00    +0.000 A 
ATOM     24  C   UNL     1      48.267  10.232  11.735  0.00  0.00    +0.000 A 
ATOM     25  C   UNL     1      49.598   9.974  11.431  0.00  0.00    +0.000 A 
ATOM     26  C   UNL     1      50.072   8.666  11.459  0.00  0.00    +0.000 A 
ATOM     27  C   UNL     1      49.215   7.616  11.808  0.00  0.00    +0.000 A 
ENDBRANCH  20  22
ENDBRANCH  15  16
ENDBRANCH   1  15
TORSDOF 5
ENDMDL
MODEL 2
REMARK VINA RESULT:    -8.987      1.674      3.597
REMARK INTER + INTRA:         -12.618
REMARK INTER:                 -11.765
REMARK INTRA:                  -0.852
REMARK UNBOUND:                -1.003
REMARK  Name = 
REMARK  5 active torsions:
REMARK  status: ('A' for Active; 'I' for Inactive)
REMARK    1  A    between atoms: C_2  and  C_4
REMARK    2  A    between atoms: N_8  and  C_9
REMARK    3  A    between atoms: C_9  and  C_10
REMARK    4  A    between atoms: C_10  and  C_11
REMARK    5  A    between atoms: C_15  and  C_16
REMARK                            x       y       z     vdW  Elec       q    Type
REMARK                         _______ _______ _______ _____ _____    ______ ____
ROOT
ATOM      1  C   UNL     1      43.398   4.404  11.273  0.00  0.00    +0.000 C 
ENDROOT
BRANCH   1   6
ATOM      2  C   UNL     1      46.482   2.486   7.736  0.00  0.00    +0.000 A 
ATOM      3  C   UNL     1      45.705   1.838   8.689  0.00  0.00    +0.000 A 
ATOM      4  C   UNL     1      44.789   2.575   9.439  0.00  0.00    +0.000 A 
ATOM      5  C   UNL     1      44.681   3.950   9.246  0.00  0.00    +0.000 A 
ATOM      6  N   UNL     1      43.732   4.729   9.894  0.00  0.00    +0.000 N 
ATOM      7  N   UNL     1      45.454   4.597   8.352  0.00  0.00    +0.000 NA
ATOM      8  C   UNL     1      46.335   3.863   7.621  0.00  0.00    +0.000 A 
ATOM      9  H   UNL     1      43.969   5.701   9.705  0.00  0.00    +0.000 HD
BRANCH   2  11
ATOM     10  N   UNL     1      48.516   2.475   6.417  0.00  0.00    +0.000 N 
ATOM     11  C   UNL     1      47.431   1.772   6.863  0.00  0.00    +0.000 C 
ATOM     12  O   UNL     1      47.276   0.590   6.578  0.00  0.00    +0.000 OA
ATOM     13  H   UNL     1      49.215   1.946   5.907  0.00  0.00    +0.000 HD
ATOM     14  H   UNL     1      48.805   3.352   6.827  0.00  0.00    +0.000 HD
ENDBRANCH   2  11
ENDBRANCH   1   6
BRANCH   1  15
ATOM     15  C   UNL     1      43.640   5.602  12.197  0.00  0.00    +0.000 C 
BRANCH  15  16
ATOM     16  C   UNL     1      45.120   5.767  12.456  0.00  0.00    +0.000 A 
ATOM     17  C   UNL     1      45.890   6.635  11.677  0.00  0.00    +0.000 A 
ATOM     18  C   UNL     1      47.235   6.833  11.977  0.00  0.00    +0.000 A 
ATOM     19  C   UNL     1      47.811   6.192  13.078  0.00  0.00    +0.000 A 
ATOM     20  C   UNL     1      47.053   5.359  13.920  0.00  0.00    +0.000 A 
ATOM     21  C   UNL     1      45.711   5.134  13.561  0.00  0.00    +0.000 A 
BRANCH  20  22
ATOM     22  C   UNL     1      47.596   4.836  15.197  0.00  0.00    +0.000 A 
ATOM     23  C   UNL     1      47.455   3.476  15.531  0.00  0.00    +0.000 A 
ATOM     24  C   UNL     1      48.067   2.932  16.663  0.00  0.00    +0.000 A 
ATOM     25  C   UNL     1      48.842   3.737  17.488  0.00  0.00    +0.000 A 
ATOM     26  C   UNL     1      48.979   5.091  17.199  0.00  0.00    +0.000 A 
ATOM     27  C   UNL     1      48.353   5.636  16.072  0.00  0.00    +0.000 A 
ENDBRANCH  20  22
ENDBRANCH  15  16
ENDBRANCH   1  15
TORSDOF 5
ENDMDL
MODEL 3
REMARK VINA RESULT:    -8.398      1.694      2.270
REMARK INTER + INTRA:         -11.855
REMARK INTER:                 -10.859
REMARK INTRA:                  -0.996
REMARK UNBOUND:                -1.003
REMARK  Name = 
REMARK  5 active torsions:
REMARK  status: ('A' for Active; 'I' for Inactive)
REMARK    1  A    between atoms: C_2  and  C_4
REMARK    2  A    between atoms: N_8  and  C_9
REMARK    3  A    between atoms: C_9  and  C_10
REMARK    4  A    between atoms: C_10  and  C_11
REMARK    5  A    between atoms: C_15  and  C_16
REMARK                            x       y       z     vdW  Elec       q    Type
REMARK                         _______ _______ _______ _____ _____    ______ ____
ROOT
ATOM      1  C   UNL     1      43.340   3.603  11.247  0.00  0.00    +0.000 C 
ENDROOT
BRANCH   1   6
ATOM      2  C   UNL     1      46.491   2.831   7.352  0.00  0.00    +0.000 A 
ATOM      3  C   UNL     1      46.069   4.019   7.936  0.00  0.00    +0.000 A 
ATOM      4  C   UNL     1      45.338   3.974   9.123  0.00  0.00    +0.000 A 
ATOM      5  C   UNL     1      45.018   2.745   9.695  0.00  0.00    +0.000 A 
ATOM      6  N   UNL     1      44.370   2.629  10.917  0.00  0.00    +0.000 N 
ATOM      7  N   UNL     1      45.388   1.585   9.119  0.00  0.00    +0.000 NA
ATOM      8  C   UNL     1      46.108   1.646   7.967  0.00  0.00    +0.000 A 
ATOM      9  H   UNL     1      44.116   1.649  11.025  0.00  0.00    +0.000 HD
BRANCH   2  11
ATOM     10  N   UNL     1      48.643   2.506   6.285  0.00  0.00    +0.000 N 
ATOM     11  C   UNL     1      47.315   2.794   6.130  0.00  0.00    +0.000 C 
ATOM     12  O   UNL     1      46.827   2.976   5.021  0.00  0.00    +0.000 OA
ATOM     13  H   UNL     1      49.177   2.379   5.432  0.00  0.00    +0.000 HD
ATOM     14  H   UNL     1      49.022   2.109   7.133  0.00  0.00    +0.000 HD
ENDBRANCH   2  11
ENDBRANCH   1   6
BRANCH   1  15
ATOM     15  C   UNL     1      43.443   4.041  12.711  0.00  0.00    +0.000 C 
BRANCH  15  16
ATOM     16  C   UNL     1      44.655   4.922  12.905  0.00  0.00    +0.000 A 
ATOM     17  C   UNL     1      45.875   4.380  13.322  0.00  0.00    +0.000 A 
ATOM     18  C   UNL     1      47.000   5.193  13.423  0.00  0.00    +0.000 A 
ATOM     19  C   UNL     1      46.924   6.544  13.075  0.00  0.00    +0.000 A 
ATOM     20  C   UNL     1      45.730   7.112  12.594  0.00  0.00    +0.000 A 
ATOM     21  C   UNL     1      44.595   6.281  12.555  0.00  0.00    +0.000 A 
BRANCH  20  22
ATOM     22  C   UNL     1      45.686   8.485  12.036  0.00  0.00    +0.000 A 
ATOM     23  C   UNL     1      44.530   8.956  11.386  0.00  0.00    +0.000 A 
ATOM     24  C   UNL     1      44.414  10.284  10.966  0.00  0.00    +0.000 A 
ATOM     25  C   UNL     1      45.455  11.176  11.191  0.00  0.00    +0.000 A 
ATOM     26  C   UNL     1      46.622  10.734  11.807  0.00  0.00    +0.000 A 
ATOM     27  C   UNL     1      46.740   9.400  12.213  0.00  0.00    +0.000 A 
ENDBRANCH  20  22
ENDBRANCH  15  16
ENDBRANCH   1  15
TORSDOF 5
ENDMDL
MODEL 4
REMARK VINA RESULT:    -8.188      0.939      2.022
REMARK INTER + INTRA:         -11.584
REMARK INTER:                 -10.614
REMARK INTRA:                  -0.970
REMARK UNBOUND:                -1.003
REMARK  Name = 
REMARK  5 active torsions:
REMARK  status: ('A' for Active; 'I' for Inactive)
REMARK    1  A    between atoms: C_2  and  C_4
REMARK    2  A    between atoms: N_8  and  C_9
REMARK    3  A    between atoms: C_9  and  C_10
REMARK    4  A    between atoms: C_10  and  C_11
REMARK    5  A    between atoms: C_15  and  C_16
REMARK                            x       y       z     vdW  Elec       q    Type
REMARK                         _______ _______ _______ _____ _____    ______ ____
ROOT
ATOM      1  C   UNL     1      44.147   4.784  11.424  0.00  0.00    +0.000 C 
ENDROOT
BRANCH   1   6
ATOM      2  C   UNL     1      46.550   2.643   7.506  0.00  0.00    +0.000 A 
ATOM      3  C   UNL     1      45.790   2.060   8.514  0.00  0.00    +0.000 A 
ATOM      4  C   UNL     1      45.070   2.877   9.385  0.00  0.00    +0.000 A 
ATOM      5  C   UNL     1      45.138   4.262   9.255  0.00  0.00    +0.000 A 
ATOM      6  N   UNL     1      44.381   5.130  10.030  0.00  0.00    +0.000 N 
ATOM      7  N   UNL     1      45.900   4.841   8.306  0.00  0.00    +0.000 NA
ATOM      8  C   UNL     1      46.589   4.031   7.458  0.00  0.00    +0.000 A 
ATOM      9  H   UNL     1      44.732   6.068   9.851  0.00  0.00    +0.000 HD
BRANCH   2  11
ATOM     10  N   UNL     1      48.131   2.534   5.672  0.00  0.00    +0.000 N 
ATOM     11  C   UNL     1      47.293   1.851   6.511  0.00  0.00    +0.000 C 
ATOM     12  O   UNL     1      47.196   0.630   6.459  0.00  0.00    +0.000 OA
ATOM     13  H   UNL     1      48.715   1.970   5.064  0.00  0.00    +0.000 HD
ATOM     14  H   UNL     1      48.424   3.484   5.847  0.00  0.00    +0.000 HD
ENDBRANCH   2  11
ENDBRANCH   1   6
BRANCH   1  15
ATOM     15  C   UNL     1      45.410   4.995  12.264  0.00  0.00    +0.000 C 
BRANCH  15  16
ATOM     16  C   UNL     1      45.818   6.449  12.233  0.00  0.00    +0.000 A 
ATOM     17  C   UNL     1      44.966   7.443  12.722  0.00  0.00    +0.000 A 
ATOM     18  C   UNL     1      45.387   8.769  12.755  0.00  0.00    +0.000 A 
ATOM     19  C   UNL     1      46.676   9.107  12.332  0.00  0.00    +0.000 A 
ATOM     20  C   UNL     1      47.583   8.128  11.890  0.00  0.00    +0.000 A 
ATOM     21  C   UNL     1      47.112   6.803  11.815  0.00  0.00    +0.000 A 
BRANCH  20  22
ATOM     22  C   UNL     1      49.008   8.442  11.630  0.00  0.00    +0.000 A 
ATOM     23  C   UNL     1      49.918   7.420  11.301  0.00  0.00    +0.000 A 
ATOM     24  C   UNL     1      51.234   7.702  10.926  0.00  0.00    +0.000 A 
ATOM     25  C   UNL     1      51.672   9.020  10.866  0.00  0.00    +0.000 A 
ATOM     26  C   UNL     1      50.803  10.051  11.210  0.00  0.00    +0.000 A 
ATOM     27  C   UNL     1      49.490   9.764  11.599  0.00  0.00    +0.000 A 
ENDBRANCH  20  22
ENDBRANCH  15  16
ENDBRANCH   1  15
TORSDOF 5
ENDMDL
MODEL 5
REMARK VINA RESULT:    -7.919      3.729      7.024
REMARK INTER + INTRA:         -11.237
REMARK INTER:                 -10.137
REMARK INTRA:                  -1.100
REMARK UNBOUND:                -1.003
REMARK  Name = 
REMARK  5 active torsions:
REMARK  status: ('A' for Active; 'I' for Inactive)
REMARK    1  A    between atoms: C_2  and  C_4
REMARK    2  A    between atoms: N_8  and  C_9
REMARK    3  A    between atoms: C_9  and  C_10
REMARK    4  A    between atoms: C_10  and  C_11
REMARK    5  A    between atoms: C_15  and  C_16
REMARK                            x       y       z     vdW  Elec       q    Type
REMARK                         _______ _______ _______ _____ _____    ______ ____
ROOT
ATOM      1  C   UNL     1      45.311   7.147  12.763  0.00  0.00    +0.000 C 
ENDROOT
BRANCH   1   6
ATOM      2  C   UNL     1      47.854   3.888  15.697  0.00  0.00    +0.000 A 
ATOM      3  C   UNL     1      46.780   3.669  14.843  0.00  0.00    +0.000 A 
ATOM      4  C   UNL     1      46.363   4.694  13.994  0.00  0.00    +0.000 A 
ATOM      5  C   UNL     1      47.007   5.928  14.027  0.00  0.00    +0.000 A 
ATOM      6  N   UNL     1      46.702   6.960  13.151  0.00  0.00    +0.000 N 
ATOM      7  N   UNL     1      48.025   6.166  14.876  0.00  0.00    +0.000 NA
ATOM      8  C   UNL     1      48.426   5.154  15.692  0.00  0.00    +0.000 A 
ATOM      9  H   UNL     1      47.191   7.788  13.487  0.00  0.00    +0.000 HD
BRANCH   2  11
ATOM     10  N   UNL     1      48.006   2.877  17.895  0.00  0.00    +0.000 N 
ATOM     11  C   UNL     1      48.392   2.840  16.584  0.00  0.00    +0.000 C 
ATOM     12  O   UNL     1      49.123   1.953  16.159  0.00  0.00    +0.000 OA
ATOM     13  H   UNL     1      48.295   2.095  18.471  0.00  0.00    +0.000 HD
ATOM     14  H   UNL     1      47.223   3.428  18.220  0.00  0.00    +0.000 HD
ENDBRANCH   2  11
ENDBRANCH   1   6
BRANCH   1  15
ATOM     15  C   UNL     1      45.130   6.959  11.253  0.00  0.00    +0.000 C 
BRANCH  15  16
ATOM     16  C   UNL     1      44.787   5.519  10.947  0.00  0.00    +0.000 A 
ATOM     17  C   UNL     1      43.696   4.897  11.561  0.00  0.00    +0.000 A 
ATOM     18  C   UNL     1      43.348   3.595  11.212  0.00  0.00    +0.000 A 
ATOM     19  C   UNL     1      44.066   2.919  10.222  0.00  0.00    +0.000 A 
ATOM     20  C   UNL     1      45.131   3.533   9.539  0.00  0.00    +0.000 A 
ATOM     21  C   UNL     1      45.496   4.828   9.951  0.00  0.00    +0.000 A 
BRANCH  20  22
ATOM     22  C   UNL     1      45.768   2.905   8.357  0.00  0.00    +0.000 A 
ATOM     23  C   UNL     1      46.117   3.681   7.235  0.00  0.00    +0.000 A 
ATOM     24  C   UNL     1      46.833   3.140   6.164  0.00  0.00    +0.000 A 
ATOM     25  C   UNL     1      47.223   1.807   6.191  0.00  0.00    +0.000 A 
ATOM     26  C   UNL     1      46.870   1.007   7.274  0.00  0.00    +0.000 A 
ATOM     27  C   UNL     1      46.141   1.548   8.339  0.00  0.00    +0.000 A 
ENDBRANCH  20  22
ENDBRANCH  15  16
ENDBRANCH   1  15
TORSDOF 5
ENDMDL
MODEL 6
REMARK VINA RESULT:    -7.830      1.238      2.039
REMARK INTER + INTRA:         -11.122
REMARK INTER:                 -10.558
REMARK INTRA:                  -0.565
REMARK UNBOUND:                -1.003
REMARK  Name = 
REMARK  5 active torsions:
REMARK  status: ('A' for Active; 'I' for Inactive)
REMARK    1  A    between atoms: C_2  and  C_4
REMARK    2  A    between atoms: N_8  and  C_9
REMARK    3  A    between atoms: C_9  and  C_10
REMARK    4  A    between atoms: C_10  and  C_11
REMARK    5  A    between atoms: C_15  and  C_16
REMARK                            x       y       z     vdW  Elec       q    Type
REMARK                         _______ _______ _______ _____ _____    ______ ____
ROOT
ATOM      1  C   UNL     1      43.686   2.952  11.481  0.00  0.00    +0.000 C 
ENDROOT
BRANCH   1   6
ATOM      2  C   UNL     1      46.600   2.621   7.346  0.00  0.00    +0.000 A 
ATOM      3  C   UNL     1      46.120   1.620   8.182  0.00  0.00    +0.000 A 
ATOM      4  C   UNL     1      45.177   1.940   9.158  0.00  0.00    +0.000 A 
ATOM      5  C   UNL     1      44.748   3.257   9.304  0.00  0.00    +0.000 A 
ATOM      6  N   UNL     1      43.751   3.630  10.195  0.00  0.00    +0.000 N 
ATOM      7  N   UNL     1      45.234   4.244   8.526  0.00  0.00    +0.000 NA
ATOM      8  C   UNL     1      46.145   3.914   7.572  0.00  0.00    +0.000 A 
ATOM      9  H   UNL     1      43.743   4.648  10.221  0.00  0.00    +0.000 HD
BRANCH   2  11
ATOM     10  N   UNL     1      47.526   3.209   5.184  0.00  0.00    +0.000 N 
ATOM     11  C   UNL     1      47.553   2.356   6.253  0.00  0.00    +0.000 C 
ATOM     12  O   UNL     1      48.361   1.437   6.315  0.00  0.00    +0.000 OA
ATOM     13  H   UNL     1      48.253   3.082   4.490  0.00  0.00    +0.000 HD
ATOM     14  H   UNL     1      47.062   4.106   5.212  0.00  0.00    +0.000 HD
ENDBRANCH   2  11
ENDBRANCH   1   6
BRANCH   1  15
ATOM     15  C   UNL     1      43.661   3.960  12.635  0.00  0.00    +0.000 C 
BRANCH  15  16
ATOM     16  C   UNL     1      44.303   5.258  12.205  0.00  0.00    +0.000 A 
ATOM     17  C   UNL     1      43.538   6.282  11.638  0.00  0.00    +0.000 A 
ATOM     18  C   UNL     1      44.132   7.499  11.317  0.00  0.00    +0.000 A 
ATOM     19  C   UNL     1      45.484   7.715  11.592  0.00  0.00    +0.000 A 
ATOM     20  C   UNL     1      46.272   6.732  12.216  0.00  0.00    +0.000 A 
ATOM     21  C   UNL     1      45.661   5.491  12.479  0.00  0.00    +0.000 A 
BRANCH  20  22
ATOM     22  C   UNL     1      47.647   7.017  12.693  0.00  0.00    +0.000 A 
ATOM     23  C   UNL     1      48.553   7.725  11.882  0.00  0.00    +0.000 A 
ATOM     24  C   UNL     1      49.808   8.119  12.355  0.00  0.00    +0.000 A 
ATOM     25  C   UNL     1      50.185   7.816  13.658  0.00  0.00    +0.000 A 
ATOM     26  C   UNL     1      49.321   7.094  14.476  0.00  0.00    +0.000 A 
ATOM     27  C   UNL     1      48.071   6.689  13.994  0.00  0.00    +0.000 A 
ENDBRANCH  20  22
ENDBRANCH  15  16
ENDBRANCH   1  15
TORSDOF 5
ENDMDL
MODEL 7
REMARK VINA RESULT:    -7.782      4.173      7.620
REMARK INTER + INTRA:         -11.059
REMARK INTER:                 -10.394
REMARK INTRA:                  -0.666
REMARK UNBOUND:                -1.003
REMARK  Name = 
REMARK  5 active torsions:
REMARK  status: ('A' for Active; 'I' for Inactive)
REMARK    1  A    between atoms: C_2  and  C_4
REMARK    2  A    between atoms: N_8  and  C_9
REMARK    3  A    between atoms: C_9  and  C_10
REMARK    4  A    between atoms: C_10  and  C_11
REMARK    5  A    between atoms: C_15  and  C_16
REMARK                            x       y       z     vdW  Elec       q    Type
REMARK                         _______ _______ _______ _____ _____    ______ ____
ROOT
ATOM      1  C   UNL     1      47.101   6.793  12.916  0.00  0.00    +0.000 C 
ENDROOT
BRANCH   1   6
ATOM      2  C   UNL     1      48.604   4.250  17.036  0.00  0.00    +0.000 A 
ATOM      3  C   UNL     1      48.947   5.524  16.599  0.00  0.00    +0.000 A 
ATOM      4  C   UNL     1      48.258   6.085  15.524  0.00  0.00    +0.000 A 
ATOM      5  C   UNL     1      47.257   5.358  14.885  0.00  0.00    +0.000 A 
ATOM      6  N   UNL     1      46.474   5.887  13.868  0.00  0.00    +0.000 N 
ATOM      7  N   UNL     1      46.940   4.108  15.275  0.00  0.00    +0.000 NA
ATOM      8  C   UNL     1      47.614   3.578  16.330  0.00  0.00    +0.000 A 
ATOM      9  H   UNL     1      45.942   5.115  13.473  0.00  0.00    +0.000 HD
BRANCH   2  11
ATOM     10  N   UNL     1      48.427   3.249  19.237  0.00  0.00    +0.000 N 
ATOM     11  C   UNL     1      49.243   3.609  18.200  0.00  0.00    +0.000 C 
ATOM     12  O   UNL     1      50.445   3.373  18.223  0.00  0.00    +0.000 OA
ATOM     13  H   UNL     1      48.858   2.716  19.983  0.00  0.00    +0.000 HD
ATOM     14  H   UNL     1      47.422   3.196  19.149  0.00  0.00    +0.000 HD
ENDBRANCH   2  11
ENDBRANCH   1   6
BRANCH   1  15
ATOM     15  C   UNL     1      46.066   7.381  11.952  0.00  0.00    +0.000 C 
BRANCH  15  16
ATOM     16  C   UNL     1      45.202   6.280  11.382  0.00  0.00    +0.000 A 
ATOM     17  C   UNL     1      43.824   6.258  11.617  0.00  0.00    +0.000 A 
ATOM     18  C   UNL     1      43.032   5.279  11.023  0.00  0.00    +0.000 A 
ATOM     19  C   UNL     1      43.605   4.339  10.162  0.00  0.00    +0.000 A 
ATOM     20  C   UNL     1      44.976   4.367   9.854  0.00  0.00    +0.000 A 
ATOM     21  C   UNL     1      45.763   5.331  10.512  0.00  0.00    +0.000 A 
BRANCH  20  22
ATOM     22  C   UNL     1      45.558   3.507   8.795  0.00  0.00    +0.000 A 
ATOM     23  C   UNL     1      46.132   4.078   7.645  0.00  0.00    +0.000 A 
ATOM     24  C   UNL     1      46.801   3.301   6.695  0.00  0.00    +0.000 A 
ATOM     25  C   UNL     1      46.915   1.928   6.878  0.00  0.00    +0.000 A 
ATOM     26  C   UNL     1      46.335   1.330   7.992  0.00  0.00    +0.000 A 
ATOM     27  C   UNL     1      45.654   2.110   8.934  0.00  0.00    +0.000 A 
ENDBRANCH  20  22
ENDBRANCH  15  16
ENDBRANCH   1  15
TORSDOF 5
ENDMDL
MODEL 8
REMARK VINA RESULT:    -7.601      1.804      2.560
REMARK INTER + INTRA:         -10.826
REMARK INTER:                 -10.370
REMARK INTRA:                  -0.455
REMARK UNBOUND:                -1.003
REMARK  Name = 
REMARK  5 active torsions:
REMARK  status: ('A' for Active; 'I' for Inactive)
REMARK    1  A    between atoms: C_2  and  C_4
REMARK    2  A    between atoms: N_8  and  C_9
REMARK    3  A    between atoms: C_9  and  C_10
REMARK    4  A    between atoms: C_10  and  C_11
REMARK    5  A    between atoms: C_15  and  C_16
REMARK                            x       y       z     vdW  Elec       q    Type
REMARK                         _______ _______ _______ _____ _____    ______ ____
ROOT
ATOM      1  C   UNL     1      43.604   5.072  11.044  0.00  0.00    +0.000 C 
ENDROOT
BRANCH   1   6
ATOM      2  C   UNL     1      46.228   2.026   7.957  0.00  0.00    +0.000 A 
ATOM      3  C   UNL     1      45.399   1.712   9.027  0.00  0.00    +0.000 A 
ATOM      4  C   UNL     1      44.634   2.718   9.615  0.00  0.00    +0.000 A 
ATOM      5  C   UNL     1      44.727   4.026   9.146  0.00  0.00    +0.000 A 
ATOM      6  N   UNL     1      43.931   5.057   9.626  0.00  0.00    +0.000 N 
ATOM      7  N   UNL     1      45.554   4.351   8.134  0.00  0.00    +0.000 NA
ATOM      8  C   UNL     1      46.287   3.357   7.564  0.00  0.00    +0.000 A 
ATOM      9  H   UNL     1      44.305   5.922   9.241  0.00  0.00    +0.000 HD
BRANCH   2  11
ATOM     10  N   UNL     1      46.826  -0.296   7.595  0.00  0.00    +0.000 N 
ATOM     11  C   UNL     1      47.024   1.012   7.243  0.00  0.00    +0.000 C 
ATOM     12  O   UNL     1      47.802   1.319   6.347  0.00  0.00    +0.000 OA
ATOM     13  H   UNL     1      47.298  -0.990   7.027  0.00  0.00    +0.000 HD
ATOM     14  H   UNL     1      46.029  -0.601   8.135  0.00  0.00    +0.000 HD
ENDBRANCH   2  11
ENDBRANCH   1   6
BRANCH   1  15
ATOM     15  C   UNL     1      44.858   4.873  11.902  0.00  0.00    +0.000 C 
BRANCH  15  16
ATOM     16  C   UNL     1      45.501   6.208  12.199  0.00  0.00    +0.000 A 
ATOM     17  C   UNL     1      44.812   7.402  11.970  0.00  0.00    +0.000 A 
ATOM     18  C   UNL     1      45.390   8.619  12.319  0.00  0.00    +0.000 A 
ATOM     19  C   UNL     1      46.645   8.649  12.933  0.00  0.00    +0.000 A 
ATOM     20  C   UNL     1      47.342   7.466  13.235  0.00  0.00    +0.000 A 
ATOM     21  C   UNL     1      46.760   6.254  12.821  0.00  0.00    +0.000 A 
BRANCH  20  22
ATOM     22  C   UNL     1      48.574   7.473  14.061  0.00  0.00    +0.000 A 
ATOM     23  C   UNL     1      48.661   6.684  15.223  0.00  0.00    +0.000 A 
ATOM     24  C   UNL     1      49.851   6.572  15.946  0.00  0.00    +0.000 A 
ATOM     25  C   UNL     1      50.989   7.246  15.520  0.00  0.00    +0.000 A 
ATOM     26  C   UNL     1      50.928   8.055  14.389  0.00  0.00    +0.000 A 
ATOM     27  C   UNL     1      49.730   8.176  13.675  0.00  0.00    +0.000 A 
ENDBRANCH  20  22
ENDBRANCH  15  16
ENDBRANCH   1  15
TORSDOF 5
ENDMDL
MODEL 9
REMARK VINA RESULT:    -7.440      3.482      6.886
REMARK INTER + INTRA:         -10.617
REMARK INTER:                  -9.761
REMARK INTRA:                  -0.856
REMARK UNBOUND:                -1.003
REMARK  Name = 
REMARK  5 active torsions:
REMARK  status: ('A' for Active; 'I' for Inactive)
REMARK    1  A    between atoms: C_2  and  C_4
REMARK    2  A    between atoms: N_8  and  C_9
REMARK    3  A    between atoms: C_9  and  C_10
REMARK    4  A    between atoms: C_10  and  C_11
REMARK    5  A    between atoms: C_15  and  C_16
REMARK                            x       y       z     vdW  Elec       q    Type
REMARK                         _______ _______ _______ _____ _____    ______ ____
ROOT
ATOM      1  C   UNL     1      44.896   7.097  12.502  0.00  0.00    +0.000 C 
ENDROOT
BRANCH   1   6
ATOM      2  C   UNL     1      49.717   8.618  12.123  0.00  0.00    +0.000 A 
ATOM      3  C   UNL     1      49.129   7.417  11.747  0.00  0.00    +0.000 A 
ATOM      4  C   UNL     1      47.739   7.297  11.782  0.00  0.00    +0.000 A 
ATOM      5  C   UNL     1      46.961   8.368  12.215  0.00  0.00    +0.000 A 
ATOM      6  N   UNL     1      45.573   8.347  12.191  0.00  0.00    +0.000 N 
ATOM      7  N   UNL     1      47.520   9.525  12.617  0.00  0.00    +0.000 NA
ATOM      8  C   UNL     1      48.876   9.630  12.569  0.00  0.00    +0.000 A 
ATOM      9  H   UNL     1      45.257   9.170  12.702  0.00  0.00    +0.000 HD
BRANCH   2  11
ATOM     10  N   UNL     1      51.966   7.990  12.775  0.00  0.00    +0.000 N 
ATOM     11  C   UNL     1      51.172   8.845  12.060  0.00  0.00    +0.000 C 
ATOM     12  O   UNL     1      51.654   9.735  11.370  0.00  0.00    +0.000 OA
ATOM     13  H   UNL     1      52.966   8.088  12.641  0.00  0.00    +0.000 HD
ATOM     14  H   UNL     1      51.631   7.111  13.141  0.00  0.00    +0.000 HD
ENDBRANCH   2  11
ENDBRANCH   1   6
BRANCH   1  15
ATOM     15  C   UNL     1      43.948   6.687  11.371  0.00  0.00    +0.000 C 
BRANCH  15  16
ATOM     16  C   UNL     1      44.040   5.198  11.131  0.00  0.00    +0.000 A 
ATOM     17  C   UNL     1      43.234   4.306  11.845  0.00  0.00    +0.000 A 
ATOM     18  C   UNL     1      43.277   2.945  11.558  0.00  0.00    +0.000 A 
ATOM     19  C   UNL     1      44.098   2.469  10.533  0.00  0.00    +0.000 A 
ATOM     20  C   UNL     1      44.877   3.341   9.753  0.00  0.00    +0.000 A 
ATOM     21  C   UNL     1      44.857   4.705  10.101  0.00  0.00    +0.000 A 
BRANCH  20  22
ATOM     22  C   UNL     1      45.594   2.878   8.540  0.00  0.00    +0.000 A 
ATOM     23  C   UNL     1      45.922   3.783   7.513  0.00  0.00    +0.000 A 
ATOM     24  C   UNL     1      46.708   3.401   6.423  0.00  0.00    +0.000 A 
ATOM     25  C   UNL     1      47.191   2.101   6.336  0.00  0.00    +0.000 A 
ATOM     26  C   UNL     1      46.862   1.176   7.323  0.00  0.00    +0.000 A 
ATOM     27  C   UNL     1      46.063   1.558   8.406  0.00  0.00    +0.000 A 
ENDBRANCH  20  22
ENDBRANCH  15  16
ENDBRANCH   1  15
TORSDOF 5
ENDMDL
