MODEL 1
REMARK VINA RESULT:    -9.569      0.000      0.000
REMARK INTER + INTRA:         -13.851
REMARK INTER:                 -12.925
REMARK INTRA:                  -0.925
REMARK UNBOUND:                -0.925
REMARK  Name = 
REMARK  6 active torsions:
REMARK  status: ('A' for Active; 'I' for Inactive)
REMARK    1  A    between atoms: C_2  and  C_4
REMARK    2  A    between atoms: N_8  and  C_9
REMARK    3  A    between atoms: C_9  and  C_10
REMARK    4  A    between atoms: C_10  and  C_13
REMARK    5  A    between atoms: C_18  and  O_19
REMARK    6  A    between atoms: O_19  and  C_20
REMARK                            x       y       z     vdW  Elec       q    Type
REMARK                         _______ _______ _______ _____ _____    ______ ____
ROOT
ATOM      1  C   UNL     1      43.387   5.509  12.203  0.00  0.00    +0.000 C 
ATOM      2  F   UNL     1      42.770   6.624  11.706  0.00  0.00    +0.000 F 
ATOM      3  F   UNL     1      42.669   5.164  13.312  0.00  0.00    +0.000 F 
ENDROOT
BRANCH   1   4
ATOM      4  C   UNL     1      44.848   5.772  12.545  0.00  0.00    +0.000 A 
ATOM      5  C   UNL     1      45.491   6.939  12.117  0.00  0.00    +0.000 A 
ATOM      6  C   UNL     1      46.814   7.188  12.495  0.00  0.00    +0.000 A 
ATOM      7  C   UNL     1      47.510   6.266  13.284  0.00  0.00    +0.000 A 
ATOM      8  F   UNL     1      48.754   6.579  13.672  0.00  0.00    +0.000 F 
ATOM      9  C   UNL     1      46.908   5.072  13.674  0.00  0.00    +0.000 A 
ATOM     10  C   UNL     1      45.573   4.840  13.314  0.00  0.00    +0.000 A 
BRANCH   9  11
ATOM     11  O   UNL     1      47.471   4.077  14.440  0.00  0.00    +0.000 OA
BRANCH  11  12
ATOM     12  C   UNL     1      47.361   4.129  15.884  0.00  0.00    +0.000 C 
ATOM     13  C   UNL     1      48.309   5.071  16.653  0.00  0.00    +0.000 C 
ATOM     14  N   UNL     1      48.736   3.966  17.525  0.00  0.00    +0.000 NA
ATOM     15  C   UNL     1      48.085   2.988  16.642  0.00  0.00    +0.000 C 
ATOM     16  H   UNL     1      48.344   4.000  18.465  0.00  0.00    +0.000 HD
ENDBRANCH  11  12
ENDBRANCH   9  11
ENDBRANCH   1   4
BRANCH   1  17
ATOM     17  C   UNL     1      43.267   4.378  11.153  0.00  0.00    +0.000 C 
BRANCH  17  22
ATOM     18  C   UNL     1      46.493   2.512   7.688  0.00  0.00    +0.000 A 
ATOM     19  C   UNL     1      45.668   1.858   8.592  0.00  0.00    +0.000 A 
ATOM     20  C   UNL     1      44.751   2.603   9.334  0.00  0.00    +0.000 A 
ATOM     21  C   UNL     1      44.679   3.979   9.172  0.00  0.00    +0.000 A 
ATOM     22  N   UNL     1      43.723   4.756   9.808  0.00  0.00    +0.000 N 
ATOM     23  N   UNL     1      45.500   4.634   8.327  0.00  0.00    +0.000 NA
ATOM     24  C   UNL     1      46.396   3.894   7.607  0.00  0.00    +0.000 A 
ATOM     25  H   UNL     1      43.924   5.743   9.654  0.00  0.00    +0.000 HD
BRANCH  18  27
ATOM     26  N   UNL     1      48.547   2.483   6.397  0.00  0.00    +0.000 N 
ATOM     27  C   UNL     1      47.450   1.785   6.830  0.00  0.00    +0.000 C 
ATOM     28  O   UNL     1      47.295   0.606   6.552  0.00  0.00    +0.000 OA
ATOM     29  H   UNL     1      49.253   1.953   5.900  0.00  0.00    +0.000 HD
ATOM     30  H   UNL     1      48.826   3.366   6.797  0.00  0.00    +0.000 HD
ENDBRANCH  18  27
ENDBRANCH  17  22
ENDBRANCH   1  17
TORSDOF 6
ENDMDL
MODEL 2
REMARK VINA RESULT:    -8.565      2.318      3.360
REMARK INTER + INTRA:         -12.494
REMARK INTER:                 -11.709
REMARK INTRA:                  -0.785
REMARK UNBOUND:                -0.925
REMARK  Name = 
REMARK  6 active torsions:
REMARK  status: ('A' for Active; 'I' for Inactive)
REMARK    1  A    between atoms: C_2  and  C_4
REMARK    2  A    between atoms: N_8  and  C_9
REMARK    3  A    between atoms: C_9  and  C_10
REMARK    4  A    between atoms: C_10  and  C_13
REMARK    5  A    between atoms: C_18  and  O_19
REMARK    6  A    between atoms: O_19  and  C_20
REMARK                            x       y       z     vdW  Elec       q    Type
REMARK                         _______ _______ _______ _____ _____    ______ ____
ROOT
ATOM      1  C   UNL     1      43.403   5.502  12.214  0.00  0.00    +0.000 C 
ATOM      2  F   UNL     1      42.794   6.605  11.682  0.00  0.00    +0.000 F 
ATOM      3  F   UNL     1      42.673   5.188  13.325  0.00  0.00    +0.000 F 
ENDROOT
BRANCH   1   4
ATOM      4  C   UNL     1      44.862   5.768  12.564  0.00  0.00    +0.000 A 
ATOM      5  C   UNL     1      45.550   4.945  13.463  0.00  0.00    +0.000 A 
ATOM      6  C   UNL     1      46.905   5.173  13.722  0.00  0.00    +0.000 A 
ATOM      7  C   UNL     1      47.576   6.232  13.102  0.00  0.00    +0.000 A 
ATOM      8  F   UNL     1      48.889   6.369  13.334  0.00  0.00    +0.000 F 
ATOM      9  C   UNL     1      46.896   7.096  12.247  0.00  0.00    +0.000 A 
ATOM     10  C   UNL     1      45.545   6.848  11.971  0.00  0.00    +0.000 A 
BRANCH   9  11
ATOM     11  O   UNL     1      47.425   8.176  11.577  0.00  0.00    +0.000 OA
BRANCH  11  12
ATOM     12  C   UNL     1      48.216   9.155  12.296  0.00  0.00    +0.000 C 
ATOM     13  C   UNL     1      47.732  10.618  12.304  0.00  0.00    +0.000 C 
ATOM     14  N   UNL     1      49.047  11.079  11.835  0.00  0.00    +0.000 NA
ATOM     15  C   UNL     1      49.447   9.698  11.530  0.00  0.00    +0.000 C 
ATOM     16  H   UNL     1      49.615  11.525  12.554  0.00  0.00    +0.000 HD
ENDBRANCH  11  12
ENDBRANCH   9  11
ENDBRANCH   1   4
BRANCH   1  17
ATOM     17  C   UNL     1      43.289   4.344  11.193  0.00  0.00    +0.000 C 
BRANCH  17  22
ATOM     18  C   UNL     1      46.461   2.471   7.681  0.00  0.00    +0.000 A 
ATOM     19  C   UNL     1      45.673   1.819   8.619  0.00  0.00    +0.000 A 
ATOM     20  C   UNL     1      44.761   2.562   9.371  0.00  0.00    +0.000 A 
ATOM     21  C   UNL     1      44.657   3.932   9.183  0.00  0.00    +0.000 A 
ATOM     22  N   UNL     1      43.702   4.703   9.829  0.00  0.00    +0.000 N 
ATOM     23  N   UNL     1      45.442   4.586   8.304  0.00  0.00    +0.000 NA
ATOM     24  C   UNL     1      46.333   3.849   7.576  0.00  0.00    +0.000 A 
ATOM     25  H   UNL     1      43.879   5.691   9.650  0.00  0.00    +0.000 HD
BRANCH  18  27
ATOM     26  N   UNL     1      48.531   2.425   6.418  0.00  0.00    +0.000 N 
ATOM     27  C   UNL     1      47.410   1.746   6.813  0.00  0.00    +0.000 C 
ATOM     28  O   UNL     1      47.225   0.581   6.493  0.00  0.00    +0.000 OA
ATOM     29  H   UNL     1      49.229   1.892   5.914  0.00  0.00    +0.000 HD
ATOM     30  H   UNL     1      48.830   3.286   6.852  0.00  0.00    +0.000 HD
ENDBRANCH  18  27
ENDBRANCH  17  22
ENDBRANCH   1  17
TORSDOF 6
ENDMDL
MODEL 3
REMARK VINA RESULT:    -8.341      1.712      2.103
REMARK INTER + INTRA:         -12.192
REMARK INTER:                 -11.777
REMARK INTRA:                  -0.414
REMARK UNBOUND:                -0.925
REMARK  Name = 
REMARK  6 active torsions:
REMARK  status: ('A' for Active; 'I' for Inactive)
REMARK    1  A    between atoms: C_2  and  C_4
REMARK    2  A    between atoms: N_8  and  C_9
REMARK    3  A    between atoms: C_9  and  C_10
REMARK    4  A    between atoms: C_10  and  C_13
REMARK    5  A    between atoms: C_18  and  O_19
REMARK    6  A    between atoms: O_19  and  C_20
REMARK                            x       y       z     vdW  Elec       q    Type
REMARK                         _______ _______ _______ _____ _____    ______ ____
ROOT
ATOM      1  C   UNL     1      44.249   4.451  12.337  0.00  0.00    +0.000 C 
ATOM      2  F   UNL     1      43.564   4.354  13.518  0.00  0.00    +0.000 F 
ATOM      3  F   UNL     1      45.079   3.369  12.312  0.00  0.00    +0.000 F 
ENDROOT
BRANCH   1   4
ATOM      4  C   UNL     1      45.030   5.755  12.238  0.00  0.00    +0.000 A 
ATOM      5  C   UNL     1      44.420   6.929  11.780  0.00  0.00    +0.000 A 
ATOM      6  C   UNL     1      45.140   8.128  11.755  0.00  0.00    +0.000 A 
ATOM      7  C   UNL     1      46.477   8.159  12.167  0.00  0.00    +0.000 A 
ATOM      8  F   UNL     1      47.104   9.343  12.184  0.00  0.00    +0.000 F 
ATOM      9  C   UNL     1      47.119   6.992  12.573  0.00  0.00    +0.000 A 
ATOM     10  C   UNL     1      46.385   5.799  12.620  0.00  0.00    +0.000 A 
BRANCH   9  11
ATOM     11  O   UNL     1      48.424   6.874  12.995  0.00  0.00    +0.000 OA
BRANCH  11  12
ATOM     12  C   UNL     1      48.799   7.334  14.317  0.00  0.00    +0.000 C 
ATOM     13  C   UNL     1      50.298   7.385  14.673  0.00  0.00    +0.000 C 
ATOM     14  N   UNL     1      50.059   6.593  15.889  0.00  0.00    +0.000 NA
ATOM     15  C   UNL     1      48.698   6.271  15.439  0.00  0.00    +0.000 C 
ATOM     16  H   UNL     1      50.092   7.134  16.752  0.00  0.00    +0.000 HD
ENDBRANCH  11  12
ENDBRANCH   9  11
ENDBRANCH   1   4
BRANCH   1  17
ATOM     17  C   UNL     1      43.232   4.334  11.176  0.00  0.00    +0.000 C 
BRANCH  17  22
ATOM     18  C   UNL     1      46.481   2.520   7.705  0.00  0.00    +0.000 A 
ATOM     19  C   UNL     1      45.592   1.855   8.537  0.00  0.00    +0.000 A 
ATOM     20  C   UNL     1      44.688   2.601   9.295  0.00  0.00    +0.000 A 
ATOM     21  C   UNL     1      44.692   3.986   9.220  0.00  0.00    +0.000 A 
ATOM     22  N   UNL     1      43.755   4.771   9.874  0.00  0.00    +0.000 N 
ATOM     23  N   UNL     1      45.575   4.648   8.446  0.00  0.00    +0.000 NA
ATOM     24  C   UNL     1      46.457   3.907   7.710  0.00  0.00    +0.000 A 
ATOM     25  H   UNL     1      44.011   5.754   9.790  0.00  0.00    +0.000 HD
BRANCH  18  27
ATOM     26  N   UNL     1      48.525   2.497   6.398  0.00  0.00    +0.000 N 
ATOM     27  C   UNL     1      47.430   1.799   6.833  0.00  0.00    +0.000 C 
ATOM     28  O   UNL     1      47.270   0.622   6.545  0.00  0.00    +0.000 OA
ATOM     29  H   UNL     1      49.226   1.970   5.892  0.00  0.00    +0.000 HD
ATOM     30  H   UNL     1      48.810   3.376   6.804  0.00  0.00    +0.000 HD
ENDBRANCH  18  27
ENDBRANCH  17  22
ENDBRANCH   1  17
TORSDOF 6
ENDMDL
MODEL 4
REMARK VINA RESULT:    -8.217      2.970      4.607
REMARK INTER + INTRA:         -12.025
REMARK INTER:                 -11.265
REMARK INTRA:                  -0.760
REMARK UNBOUND:                -0.925
REMARK  Name = 
REMARK  6 active torsions:
REMARK  status: ('A' for Active; 'I' for Inactive)
REMARK    1  A    between atoms: C_2  and  C_4
REMARK    2  A    between atoms: N_8  and  C_9
REMARK    3  A    between atoms: C_9  and  C_10
REMARK    4  A    between atoms: C_10  and  C_13
REMARK    5  A    between atoms: C_18  and  O_19
REMARK    6  A    between atoms: O_19  and  C_20
REMARK                            x       y       z     vdW  Elec       q    Type
REMARK                         _______ _______ _______ _____ _____    ______ ____
ROOT
ATOM      1  C   UNL     1      44.570   4.525  12.362  0.00  0.00    +0.000 C 
ATOM      2  F   UNL     1      43.902   4.393  13.549  0.00  0.00    +0.000 F 
ATOM      3  F   UNL     1      45.415   3.455  12.303  0.00  0.00    +0.000 F 
ENDROOT
BRANCH   1   4
ATOM      4  C   UNL     1      45.333   5.842  12.281  0.00  0.00    +0.000 A 
ATOM      5  C   UNL     1      46.731   5.870  12.329  0.00  0.00    +0.000 A 
ATOM      6  C   UNL     1      47.412   7.084  12.191  0.00  0.00    +0.000 A 
ATOM      7  C   UNL     1      46.702   8.278  12.025  0.00  0.00    +0.000 A 
ATOM      8  F   UNL     1      47.401   9.405  11.835  0.00  0.00    +0.000 F 
ATOM      9  C   UNL     1      45.309   8.279  12.031  0.00  0.00    +0.000 A 
ATOM     10  C   UNL     1      44.633   7.057  12.144  0.00  0.00    +0.000 A 
BRANCH   9  11
ATOM     11  O   UNL     1      44.487   9.373  11.885  0.00  0.00    +0.000 OA
BRANCH  11  12
ATOM     12  C   UNL     1      43.882   9.655  10.599  0.00  0.00    +0.000 C 
ATOM     13  C   UNL     1      44.062  11.065  10.003  0.00  0.00    +0.000 C 
ATOM     14  N   UNL     1      42.609  11.196   9.817  0.00  0.00    +0.000 NA
ATOM     15  C   UNL     1      42.373  10.002  10.641  0.00  0.00    +0.000 C 
ATOM     16  H   UNL     1      42.301  11.099   8.850  0.00  0.00    +0.000 HD
ENDBRANCH  11  12
ENDBRANCH   9  11
ENDBRANCH   1   4
BRANCH   1  17
ATOM     17  C   UNL     1      43.541   4.419  11.211  0.00  0.00    +0.000 C 
BRANCH  17  22
ATOM     18  C   UNL     1      46.625   2.825   7.491  0.00  0.00    +0.000 A 
ATOM     19  C   UNL     1      45.758   2.112   8.305  0.00  0.00    +0.000 A 
ATOM     20  C   UNL     1      44.896   2.811   9.152  0.00  0.00    +0.000 A 
ATOM     21  C   UNL     1      44.920   4.198   9.179  0.00  0.00    +0.000 A 
ATOM     22  N   UNL     1      44.021   4.945   9.925  0.00  0.00    +0.000 N 
ATOM     23  N   UNL     1      45.783   4.904   8.423  0.00  0.00    +0.000 NA
ATOM     24  C   UNL     1      46.625   4.209   7.600  0.00  0.00    +0.000 A 
ATOM     25  H   UNL     1      44.290   5.928   9.905  0.00  0.00    +0.000 HD
BRANCH  18  27
ATOM     26  N   UNL     1      47.924   2.888   5.442  0.00  0.00    +0.000 N 
ATOM     27  C   UNL     1      47.529   2.158   6.532  0.00  0.00    +0.000 C 
ATOM     28  O   UNL     1      47.939   1.023   6.720  0.00  0.00    +0.000 OA
ATOM     29  H   UNL     1      48.626   2.467   4.846  0.00  0.00    +0.000 HD
ATOM     30  H   UNL     1      47.803   3.888   5.381  0.00  0.00    +0.000 HD
ENDBRANCH  18  27
ENDBRANCH  17  22
ENDBRANCH   1  17
TORSDOF 6
ENDMDL
MODEL 5
REMARK VINA RESULT:    -7.901      2.361      7.756
REMARK INTER + INTRA:         -11.598
REMARK INTER:                 -10.779
REMARK INTRA:                  -0.819
REMARK UNBOUND:                -0.925
REMARK  Name = 
REMARK  6 active torsions:
REMARK  status: ('A' for Active; 'I' for Inactive)
REMARK    1  A    between atoms: C_2  and  C_4
REMARK    2  A    between atoms: N_8  and  C_9
REMARK    3  A    between atoms: C_9  and  C_10
REMARK    4  A    between atoms: C_10  and  C_13
REMARK    5  A    between atoms: C_18  and  O_19
REMARK    6  A    between atoms: O_19  and  C_20
REMARK                            x       y       z     vdW  Elec       q    Type
REMARK                         _______ _______ _______ _____ _____    ______ ____
ROOT
ATOM      1  C   UNL     1      45.795   6.275  11.359  0.00  0.00    +0.000 C 
ATOM      2  F   UNL     1      44.954   7.302  11.030  0.00  0.00    +0.000 F 
ATOM      3  F   UNL     1      47.037   6.687  10.969  0.00  0.00    +0.000 F 
ENDROOT
BRANCH   1   4
ATOM      4  C   UNL     1      45.400   4.973  10.673  0.00  0.00    +0.000 A 
ATOM      5  C   UNL     1      44.773   3.944  11.385  0.00  0.00    +0.000 A 
ATOM      6  C   UNL     1      44.363   2.783  10.722  0.00  0.00    +0.000 A 
ATOM      7  C   UNL     1      44.594   2.633   9.350  0.00  0.00    +0.000 A 
ATOM      8  F   UNL     1      44.127   1.530   8.749  0.00  0.00    +0.000 F 
ATOM      9  C   UNL     1      45.266   3.621   8.634  0.00  0.00    +0.000 A 
ATOM     10  C   UNL     1      45.651   4.793   9.299  0.00  0.00    +0.000 A 
BRANCH   9  11
ATOM     11  O   UNL     1      45.566   3.604   7.291  0.00  0.00    +0.000 OA
BRANCH  11  12
ATOM     12  C   UNL     1      46.935   3.407   6.859  0.00  0.00    +0.000 C 
ATOM     13  C   UNL     1      47.184   2.987   5.396  0.00  0.00    +0.000 C 
ATOM     14  N   UNL     1      48.002   1.849   5.839  0.00  0.00    +0.000 NA
ATOM     15  C   UNL     1      47.551   2.034   7.225  0.00  0.00    +0.000 C 
ATOM     16  H   UNL     1      49.004   1.980   5.709  0.00  0.00    +0.000 HD
ENDBRANCH  11  12
ENDBRANCH   9  11
ENDBRANCH   1   4
BRANCH   1  17
ATOM     17  C   UNL     1      45.780   6.107  12.898  0.00  0.00    +0.000 C 
BRANCH  17  22
ATOM     18  C   UNL     1      48.383   3.931  16.691  0.00  0.00    +0.000 A 
ATOM     19  C   UNL     1      47.508   3.376  15.768  0.00  0.00    +0.000 A 
ATOM     20  C   UNL     1      47.041   4.168  14.717  0.00  0.00    +0.000 A 
ATOM     21  C   UNL     1      47.443   5.492  14.610  0.00  0.00    +0.000 A 
ATOM     22  N   UNL     1      47.091   6.294  13.536  0.00  0.00    +0.000 N 
ATOM     23  N   UNL     1      48.262   6.056  15.520  0.00  0.00    +0.000 NA
ATOM     24  C   UNL     1      48.710   5.272  16.546  0.00  0.00    +0.000 A 
ATOM     25  H   UNL     1      47.380   7.255  13.715  0.00  0.00    +0.000 HD
BRANCH  18  27
ATOM     26  N   UNL     1      48.312   3.200  19.003  0.00  0.00    +0.000 N 
ATOM     27  C   UNL     1      48.960   3.143  17.798  0.00  0.00    +0.000 C 
ATOM     28  O   UNL     1      49.947   2.439  17.638  0.00  0.00    +0.000 OA
ATOM     29  H   UNL     1      48.647   2.577  19.727  0.00  0.00    +0.000 HD
ATOM     30  H   UNL     1      47.378   3.569  19.105  0.00  0.00    +0.000 HD
ENDBRANCH  18  27
ENDBRANCH  17  22
ENDBRANCH   1  17
TORSDOF 6
ENDMDL
MODEL 6
REMARK VINA RESULT:    -7.198      3.366      7.025
REMARK INTER + INTRA:         -10.648
REMARK INTER:                 -10.085
REMARK INTRA:                  -0.563
REMARK UNBOUND:                -0.925
REMARK  Name = 
REMARK  6 active torsions:
REMARK  status: ('A' for Active; 'I' for Inactive)
REMARK    1  A    between atoms: C_2  and  C_4
REMARK    2  A    between atoms: N_8  and  C_9
REMARK    3  A    between atoms: C_9  and  C_10
REMARK    4  A    between atoms: C_10  and  C_13
REMARK    5  A    between atoms: C_18  and  O_19
REMARK    6  A    between atoms: O_19  and  C_20
REMARK                            x       y       z     vdW  Elec       q    Type
REMARK                         _______ _______ _______ _____ _____    ______ ____
ROOT
ATOM      1  C   UNL     1      43.331   5.675  11.393  0.00  0.00    +0.000 C 
ATOM      2  F   UNL     1      42.005   5.508  11.688  0.00  0.00    +0.000 F 
ATOM      3  F   UNL     1      43.389   6.800  10.621  0.00  0.00    +0.000 F 
ENDROOT
BRANCH   1   4
ATOM      4  C   UNL     1      43.909   4.469  10.664  0.00  0.00    +0.000 A 
ATOM      5  C   UNL     1      43.663   3.167  11.115  0.00  0.00    +0.000 A 
ATOM      6  C   UNL     1      44.153   2.073  10.395  0.00  0.00    +0.000 A 
ATOM      7  C   UNL     1      44.906   2.270   9.233  0.00  0.00    +0.000 A 
ATOM      8  F   UNL     1      45.298   1.189   8.544  0.00  0.00    +0.000 F 
ATOM      9  C   UNL     1      45.209   3.558   8.796  0.00  0.00    +0.000 A 
ATOM     10  C   UNL     1      44.694   4.650   9.508  0.00  0.00    +0.000 A 
BRANCH   9  11
ATOM     11  O   UNL     1      45.939   3.899   7.681  0.00  0.00    +0.000 OA
BRANCH  11  12
ATOM     12  C   UNL     1      46.431   2.863   6.795  0.00  0.00    +0.000 C 
ATOM     13  C   UNL     1      47.912   2.452   6.906  0.00  0.00    +0.000 C 
ATOM     14  N   UNL     1      48.101   2.661   5.463  0.00  0.00    +0.000 NA
ATOM     15  C   UNL     1      46.799   3.335   5.368  0.00  0.00    +0.000 C 
ATOM     16  H   UNL     1      48.162   1.800   4.921  0.00  0.00    +0.000 HD
ENDBRANCH  11  12
ENDBRANCH   9  11
ENDBRANCH   1   4
BRANCH   1  17
ATOM     17  C   UNL     1      44.094   5.931  12.715  0.00  0.00    +0.000 C 
BRANCH  17  22
ATOM     18  C   UNL     1      48.646   8.171  12.303  0.00  0.00    +0.000 A 
ATOM     19  C   UNL     1      48.105   7.101  11.605  0.00  0.00    +0.000 A 
ATOM     20  C   UNL     1      46.761   6.775  11.800  0.00  0.00    +0.000 A 
ATOM     21  C   UNL     1      45.988   7.510  12.687  0.00  0.00    +0.000 A 
ATOM     22  N   UNL     1      44.628   7.294  12.846  0.00  0.00    +0.000 N 
ATOM     23  N   UNL     1      46.509   8.527  13.402  0.00  0.00    +0.000 NA
ATOM     24  C   UNL     1      47.826   8.835  13.205  0.00  0.00    +0.000 A 
ATOM     25  H   UNL     1      44.281   7.847  13.629  0.00  0.00    +0.000 HD
BRANCH  18  27
ATOM     26  N   UNL     1      51.002   7.952  12.835  0.00  0.00    +0.000 N 
ATOM     27  C   UNL     1      50.043   8.608  12.111  0.00  0.00    +0.000 C 
ATOM     28  O   UNL     1      50.337   9.486  11.314  0.00  0.00    +0.000 OA
ATOM     29  H   UNL     1      51.966   8.180  12.622  0.00  0.00    +0.000 HD
ATOM     30  H   UNL     1      50.828   7.078  13.310  0.00  0.00    +0.000 HD
ENDBRANCH  18  27
ENDBRANCH  17  22
ENDBRANCH   1  17
TORSDOF 6
ENDMDL
MODEL 7
REMARK VINA RESULT:    -6.919      3.062      7.445
REMARK INTER + INTRA:         -10.271
REMARK INTER:                  -9.227
REMARK INTRA:                  -1.044
REMARK UNBOUND:                -0.925
REMARK  Name = 
REMARK  6 active torsions:
REMARK  status: ('A' for Active; 'I' for Inactive)
REMARK    1  A    between atoms: C_2  and  C_4
REMARK    2  A    between atoms: N_8  and  C_9
REMARK    3  A    between atoms: C_9  and  C_10
REMARK    4  A    between atoms: C_10  and  C_13
REMARK    5  A    between atoms: C_18  and  O_19
REMARK    6  A    between atoms: O_19  and  C_20
REMARK                            x       y       z     vdW  Elec       q    Type
REMARK                         _______ _______ _______ _____ _____    ______ ____
ROOT
ATOM      1  C   UNL     1      48.790   7.822  12.315  0.00  0.00    +0.000 C 
ATOM      2  F   UNL     1      49.389   8.714  11.468  0.00  0.00    +0.000 F 
ATOM      3  F   UNL     1      49.431   6.636  12.103  0.00  0.00    +0.000 F 
ENDROOT
BRANCH   1   4
ATOM      4  C   UNL     1      47.294   7.702  12.051  0.00  0.00    +0.000 A 
ATOM      5  C   UNL     1      46.412   8.726  12.416  0.00  0.00    +0.000 A 
ATOM      6  C   UNL     1      45.052   8.621  12.108  0.00  0.00    +0.000 A 
ATOM      7  C   UNL     1      44.561   7.486  11.453  0.00  0.00    +0.000 A 
ATOM      8  F   UNL     1      43.262   7.461  11.124  0.00  0.00    +0.000 F 
ATOM      9  C   UNL     1      45.412   6.432  11.131  0.00  0.00    +0.000 A 
ATOM     10  C   UNL     1      46.778   6.554  11.419  0.00  0.00    +0.000 A 
BRANCH   9  11
ATOM     11  O   UNL     1      45.067   5.260  10.496  0.00  0.00    +0.000 OA
BRANCH  11  12
ATOM     12  C   UNL     1      44.739   4.085  11.277  0.00  0.00    +0.000 C 
ATOM     13  C   UNL     1      44.164   2.858  10.542  0.00  0.00    +0.000 C 
ATOM     14  N   UNL     1      43.022   2.810  11.467  0.00  0.00    +0.000 NA
ATOM     15  C   UNL     1      43.371   4.135  12.001  0.00  0.00    +0.000 C 
ATOM     16  H   UNL     1      43.074   2.061  12.156  0.00  0.00    +0.000 HD
ENDBRANCH  11  12
ENDBRANCH   9  11
ENDBRANCH   1   4
BRANCH   1  17
ATOM     17  C   UNL     1      49.051   8.284  13.770  0.00  0.00    +0.000 C 
BRANCH  17  22
ATOM     18  C   UNL     1      48.113   4.422  16.949  0.00  0.00    +0.000 A 
ATOM     19  C   UNL     1      47.431   4.838  15.815  0.00  0.00    +0.000 A 
ATOM     20  C   UNL     1      47.988   5.840  15.019  0.00  0.00    +0.000 A 
ATOM     21  C   UNL     1      49.202   6.413  15.369  0.00  0.00    +0.000 A 
ATOM     22  N   UNL     1      49.849   7.339  14.565  0.00  0.00    +0.000 N 
ATOM     23  N   UNL     1      49.858   6.047  16.488  0.00  0.00    +0.000 NA
ATOM     24  C   UNL     1      49.302   5.067  17.261  0.00  0.00    +0.000 A 
ATOM     25  H   UNL     1      50.652   7.724  15.061  0.00  0.00    +0.000 HD
BRANCH  18  27
ATOM     26  N   UNL     1      48.321   3.073  18.955  0.00  0.00    +0.000 N 
ATOM     27  C   UNL     1      47.614   3.332  17.811  0.00  0.00    +0.000 C 
ATOM     28  O   UNL     1      46.594   2.716  17.540  0.00  0.00    +0.000 OA
ATOM     29  H   UNL     1      47.916   2.401  19.595  0.00  0.00    +0.000 HD
ATOM     30  H   UNL     1      49.012   3.708  19.326  0.00  0.00    +0.000 HD
ENDBRANCH  18  27
ENDBRANCH  17  22
ENDBRANCH   1  17
TORSDOF 6
ENDMDL
MODEL 8
REMARK VINA RESULT:    -6.722      3.547      5.265
REMARK INTER + INTRA:         -10.005
REMARK INTER:                  -8.864
REMARK INTRA:                  -1.141
REMARK UNBOUND:                -0.925
REMARK  Name = 
REMARK  6 active torsions:
REMARK  status: ('A' for Active; 'I' for Inactive)
REMARK    1  A    between atoms: C_2  and  C_4
REMARK    2  A    between atoms: N_8  and  C_9
REMARK    3  A    between atoms: C_9  and  C_10
REMARK    4  A    between atoms: C_10  and  C_13
REMARK    5  A    between atoms: C_18  and  O_19
REMARK    6  A    between atoms: O_19  and  C_20
REMARK                            x       y       z     vdW  Elec       q    Type
REMARK                         _______ _______ _______ _____ _____    ______ ____
ROOT
ATOM      1  C   UNL     1      49.008   8.516  14.237  0.00  0.00    +0.000 C 
ATOM      2  F   UNL     1      50.144   9.262  14.082  0.00  0.00    +0.000 F 
ATOM      3  F   UNL     1      47.975   9.391  14.055  0.00  0.00    +0.000 F 
ENDROOT
BRANCH   1   4
ATOM      4  C   UNL     1      48.942   7.855  15.607  0.00  0.00    +0.000 A 
ATOM      5  C   UNL     1      48.514   8.568  16.733  0.00  0.00    +0.000 A 
ATOM      6  C   UNL     1      48.404   7.923  17.970  0.00  0.00    +0.000 A 
ATOM      7  C   UNL     1      48.738   6.571  18.094  0.00  0.00    +0.000 A 
ATOM      8  F   UNL     1      48.556   5.983  19.285  0.00  0.00    +0.000 F 
ATOM      9  C   UNL     1      49.219   5.857  16.999  0.00  0.00    +0.000 A 
ATOM     10  C   UNL     1      49.303   6.501  15.757  0.00  0.00    +0.000 A 
BRANCH   9  11
ATOM     11  O   UNL     1      49.590   4.531  16.978  0.00  0.00    +0.000 OA
BRANCH  11  12
ATOM     12  C   UNL     1      48.584   3.504  16.801  0.00  0.00    +0.000 C 
ATOM     13  C   UNL     1      47.135   3.944  16.516  0.00  0.00    +0.000 C 
ATOM     14  N   UNL     1      46.640   3.115  17.624  0.00  0.00    +0.000 NA
ATOM     15  C   UNL     1      48.011   2.908  18.111  0.00  0.00    +0.000 C 
ATOM     16  H   UNL     1      46.173   2.258  17.329  0.00  0.00    +0.000 HD
ENDBRANCH  11  12
ENDBRANCH   9  11
ENDBRANCH   1   4
BRANCH   1  17
ATOM     17  C   UNL     1      48.969   7.451  13.114  0.00  0.00    +0.000 C 
BRANCH  17  22
ATOM     18  C   UNL     1      45.004   4.495  11.916  0.00  0.00    +0.000 A 
ATOM     19  C   UNL     1      45.684   4.643  13.116  0.00  0.00    +0.000 A 
ATOM     20  C   UNL     1      46.647   5.647  13.229  0.00  0.00    +0.000 A 
ATOM     21  C   UNL     1      46.921   6.473  12.149  0.00  0.00    +0.000 A 
ATOM     22  N   UNL     1      47.795   7.547  12.235  0.00  0.00    +0.000 N 
ATOM     23  N   UNL     1      46.298   6.317  10.965  0.00  0.00    +0.000 NA
ATOM     24  C   UNL     1      45.358   5.330  10.865  0.00  0.00    +0.000 A 
ATOM     25  H   UNL     1      47.949   7.940  11.307  0.00  0.00    +0.000 HD
BRANCH  18  27
ATOM     26  N   UNL     1      43.890   2.466  12.643  0.00  0.00    +0.000 N 
ATOM     27  C   UNL     1      43.935   3.492  11.736  0.00  0.00    +0.000 C 
ATOM     28  O   UNL     1      43.105   3.591  10.845  0.00  0.00    +0.000 OA
ATOM     29  H   UNL     1      43.094   1.843  12.582  0.00  0.00    +0.000 HD
ATOM     30  H   UNL     1      44.397   2.485  13.516  0.00  0.00    +0.000 HD
ENDBRANCH  18  27
ENDBRANCH  17  22
ENDBRANCH   1  17
TORSDOF 6
ENDMDL
