MODEL 1
REMARK VINA RESULT:    -9.122      0.000      0.000
REMARK INTER + INTRA:         -13.384
REMARK INTER:                 -12.321
REMARK INTRA:                  -1.063
REMARK UNBOUND:                -1.063
REMARK  Name = 
REMARK  6 active torsions:
REMARK  status: ('A' for Active; 'I' for Inactive)
REMARK    1  A    between atoms: C_2  and  C_4
REMARK    2  A    between atoms: C_7  and  O_8
REMARK    3  A    between atoms: O_8  and  C_9
REMARK    4  A    between atoms: C_9  and  C_10
REMARK    5  A    between atoms: C_15  and  C_16
REMARK    6  A    between atoms: C_20  and  C_21
REMARK                            x       y       z     vdW  Elec       q    Type
REMARK                         _______ _______ _______ _____ _____    ______ ____
ROOT
ATOM      1  C   UNL     1      44.858   4.744  11.959  0.00  0.00    +0.000 A 
ATOM      2  C   UNL     1      45.423   3.872  12.893  0.00  0.00    +0.000 A 
ATOM      3  C   UNL     1      46.610   4.220  13.524  0.00  0.00    +0.000 A 
ATOM      4  F   UNL     1      47.153   3.377  14.413  0.00  0.00    +0.000 F 
ATOM      5  C   UNL     1      47.248   5.427  13.252  0.00  0.00    +0.000 A 
ATOM      6  C   UNL     1      46.697   6.340  12.339  0.00  0.00    +0.000 A 
ATOM      7  C   UNL     1      45.495   5.970  11.701  0.00  0.00    +0.000 A 
ENDROOT
BRANCH   6   8
ATOM      8  C   UNL     1      47.318   7.660  12.086  0.00  0.00    +0.000 A 
ATOM      9  C   UNL     1      46.597   8.858  12.235  0.00  0.00    +0.000 A 
ATOM     10  C   UNL     1      47.210  10.104  12.079  0.00  0.00    +0.000 A 
ATOM     11  C   UNL     1      48.566  10.180  11.772  0.00  0.00    +0.000 A 
ATOM     12  C   UNL     1      49.317   9.011  11.609  0.00  0.00    +0.000 A 
ATOM     13  C   UNL     1      48.679   7.766  11.747  0.00  0.00    +0.000 A 
BRANCH  12  14
ATOM     14  C   UNL     1      50.799   9.059  11.339  0.00  0.00    +0.000 C 
ATOM     15  F   UNL     1      51.545   9.363  12.437  0.00  0.00    +0.000 F 
ATOM     16  F   UNL     1      51.278   7.865  10.885  0.00  0.00    +0.000 F 
ATOM     17  F   UNL     1      51.133   9.978  10.392  0.00  0.00    +0.000 F 
ENDBRANCH  12  14
ENDBRANCH   6   8
BRANCH   1  18
ATOM     18  C   UNL     1      43.597   4.376  11.215  0.00  0.00    +0.000 C 
BRANCH  18  19
ATOM     19  O   UNL     1      43.692   4.750   9.836  0.00  0.00    +0.000 OA
BRANCH  19  23
ATOM     20  C   UNL     1      46.283   2.250   7.817  0.00  0.00    +0.000 A 
ATOM     21  C   UNL     1      45.400   1.711   8.755  0.00  0.00    +0.000 A 
ATOM     22  C   UNL     1      44.519   2.560   9.436  0.00  0.00    +0.000 A 
ATOM     23  C   UNL     1      44.559   3.917   9.149  0.00  0.00    +0.000 A 
ATOM     24  N   UNL     1      45.400   4.460   8.244  0.00  0.00    +0.000 NA
ATOM     25  C   UNL     1      46.250   3.622   7.607  0.00  0.00    +0.000 A 
BRANCH  20  27
ATOM     26  N   UNL     1      48.370   2.128   6.571  0.00  0.00    +0.000 N 
ATOM     27  C   UNL     1      47.279   1.465   7.065  0.00  0.00    +0.000 C 
ATOM     28  O   UNL     1      47.163   0.255   6.920  0.00  0.00    +0.000 OA
ATOM     29  H   UNL     1      49.092   1.551   6.159  0.00  0.00    +0.000 HD
ATOM     30  H   UNL     1      48.630   3.050   6.885  0.00  0.00    +0.000 HD
ENDBRANCH  20  27
ENDBRANCH  19  23
ENDBRANCH  18  19
ENDBRANCH   1  18
TORSDOF 6
ENDMDL
MODEL 2
REMARK VINA RESULT:    -9.100      2.878      4.793
REMARK INTER + INTRA:         -13.354
REMARK INTER:                 -12.341
REMARK INTRA:                  -1.013
REMARK UNBOUND:                -1.063
REMARK  Name = 
REMARK  6 active torsions:
REMARK  status: ('A' for Active; 'I' for Inactive)
REMARK    1  A    between atoms: C_2  and  C_4
REMARK    2  A    between atoms: C_7  and  O_8
REMARK    3  A    between atoms: O_8  and  C_9
REMARK    4  A    between atoms: C_9  and  C_10
REMARK    5  A    between atoms: C_15  and  C_16
REMARK    6  A    between atoms: C_20  and  C_21
REMARK                            x       y       z     vdW  Elec       q    Type
REMARK                         _______ _______ _______ _____ _____    ______ ____
ROOT
ATOM      1  C   UNL     1      44.767   4.779  11.961  0.00  0.00    +0.000 A 
ATOM      2  C   UNL     1      44.612   6.038  11.375  0.00  0.00    +0.000 A 
ATOM      3  C   UNL     1      45.317   7.121  11.885  0.00  0.00    +0.000 A 
ATOM      4  F   UNL     1      45.161   8.329  11.326  0.00  0.00    +0.000 F 
ATOM      5  C   UNL     1      46.183   6.978  12.965  0.00  0.00    +0.000 A 
ATOM      6  C   UNL     1      46.384   5.724  13.563  0.00  0.00    +0.000 A 
ATOM      7  C   UNL     1      45.657   4.635  13.039  0.00  0.00    +0.000 A 
ENDROOT
BRANCH   6   8
ATOM      8  C   UNL     1      47.353   5.532  14.666  0.00  0.00    +0.000 A 
ATOM      9  C   UNL     1      48.273   6.531  15.025  0.00  0.00    +0.000 A 
ATOM     10  C   UNL     1      49.126   6.379  16.122  0.00  0.00    +0.000 A 
ATOM     11  C   UNL     1      49.075   5.219  16.889  0.00  0.00    +0.000 A 
ATOM     12  C   UNL     1      48.177   4.198  16.561  0.00  0.00    +0.000 A 
ATOM     13  C   UNL     1      47.342   4.357  15.440  0.00  0.00    +0.000 A 
BRANCH  12  14
ATOM     14  C   UNL     1      48.052   2.956  17.407  0.00  0.00    +0.000 C 
ATOM     15  F   UNL     1      46.763   2.575  17.630  0.00  0.00    +0.000 F 
ATOM     16  F   UNL     1      48.662   1.879  16.835  0.00  0.00    +0.000 F 
ATOM     17  F   UNL     1      48.619   3.097  18.636  0.00  0.00    +0.000 F 
ENDBRANCH  12  14
ENDBRANCH   6   8
BRANCH   1  18
ATOM     18  C   UNL     1      43.977   3.591  11.467  0.00  0.00    +0.000 C 
BRANCH  18  19
ATOM     19  O   UNL     1      43.551   3.789  10.114  0.00  0.00    +0.000 OA
BRANCH  19  23
ATOM     20  C   UNL     1      46.469   2.552   7.468  0.00  0.00    +0.000 A 
ATOM     21  C   UNL     1      45.976   1.653   8.416  0.00  0.00    +0.000 A 
ATOM     22  C   UNL     1      44.984   2.073   9.310  0.00  0.00    +0.000 A 
ATOM     23  C   UNL     1      44.525   3.379   9.218  0.00  0.00    +0.000 A 
ATOM     24  N   UNL     1      44.983   4.264   8.308  0.00  0.00    +0.000 NA
ATOM     25  C   UNL     1      45.949   3.839   7.462  0.00  0.00    +0.000 A 
BRANCH  20  27
ATOM     26  N   UNL     1      47.573   2.964   5.340  0.00  0.00    +0.000 N 
ATOM     27  C   UNL     1      47.535   2.238   6.500  0.00  0.00    +0.000 C 
ATOM     28  O   UNL     1      48.385   1.390   6.736  0.00  0.00    +0.000 OA
ATOM     29  H   UNL     1      48.378   2.809   4.744  0.00  0.00    +0.000 HD
ATOM     30  H   UNL     1      47.066   3.828   5.225  0.00  0.00    +0.000 HD
ENDBRANCH  20  27
ENDBRANCH  19  23
ENDBRANCH  18  19
ENDBRANCH   1  18
TORSDOF 6
ENDMDL
MODEL 3
REMARK VINA RESULT:    -8.592      2.905      4.658
REMARK INTER + INTRA:         -12.668
REMARK INTER:                 -11.688
REMARK INTRA:                  -0.980
REMARK UNBOUND:                -1.063
REMARK  Name = 
REMARK  6 active torsions:
REMARK  status: ('A' for Active; 'I' for Inactive)
REMARK    1  A    between atoms: C_2  and  C_4
REMARK    2  A    between atoms: C_7  and  O_8
REMARK    3  A    between atoms: O_8  and  C_9
REMARK    4  A    between atoms: C_9  and  C_10
REMARK    5  A    between atoms: C_15  and  C_16
REMARK    6  A    between atoms: C_20  and  C_21
REMARK                            x       y       z     vdW  Elec       q    Type
REMARK                         _______ _______ _______ _____ _____    ______ ____
ROOT
ATOM      1  C   UNL     1      45.458   5.100  12.197  0.00  0.00    +0.000 A 
ATOM      2  C   UNL     1      46.019   6.247  11.630  0.00  0.00    +0.000 A 
ATOM      3  C   UNL     1      47.054   6.900  12.286  0.00  0.00    +0.000 A 
ATOM      4  F   UNL     1      47.583   8.005  11.744  0.00  0.00    +0.000 F 
ATOM      5  C   UNL     1      47.554   6.430  13.498  0.00  0.00    +0.000 A 
ATOM      6  C   UNL     1      47.034   5.266  14.085  0.00  0.00    +0.000 A 
ATOM      7  C   UNL     1      45.979   4.618  13.411  0.00  0.00    +0.000 A 
ENDROOT
BRANCH   6   8
ATOM      8  C   UNL     1      47.595   4.706  15.336  0.00  0.00    +0.000 A 
ATOM      9  C   UNL     1      47.548   3.329  15.617  0.00  0.00    +0.000 A 
ATOM     10  C   UNL     1      48.155   2.795  16.756  0.00  0.00    +0.000 A 
ATOM     11  C   UNL     1      48.830   3.629  17.643  0.00  0.00    +0.000 A 
ATOM     12  C   UNL     1      48.895   5.006  17.402  0.00  0.00    +0.000 A 
ATOM     13  C   UNL     1      48.258   5.530  16.263  0.00  0.00    +0.000 A 
BRANCH  12  14
ATOM     14  C   UNL     1      49.671   5.928  18.308  0.00  0.00    +0.000 C 
ATOM     15  F   UNL     1      48.894   6.847  18.946  0.00  0.00    +0.000 F 
ATOM     16  F   UNL     1      50.327   5.250  19.293  0.00  0.00    +0.000 F 
ATOM     17  F   UNL     1      50.624   6.638  17.645  0.00  0.00    +0.000 F 
ENDBRANCH  12  14
ENDBRANCH   6   8
BRANCH   1  18
ATOM     18  C   UNL     1      44.297   4.395  11.539  0.00  0.00    +0.000 C 
BRANCH  18  19
ATOM     19  O   UNL     1      44.155   4.813  10.176  0.00  0.00    +0.000 OA
BRANCH  19  23
ATOM     20  C   UNL     1      46.455   2.462   7.680  0.00  0.00    +0.000 A 
ATOM     21  C   UNL     1      45.656   1.855   8.652  0.00  0.00    +0.000 A 
ATOM     22  C   UNL     1      44.874   2.654   9.495  0.00  0.00    +0.000 A 
ATOM     23  C   UNL     1      44.923   4.031   9.330  0.00  0.00    +0.000 A 
ATOM     24  N   UNL     1      45.683   4.639   8.395  0.00  0.00    +0.000 NA
ATOM     25  C   UNL     1      46.439   3.848   7.600  0.00  0.00    +0.000 A 
BRANCH  20  27
ATOM     26  N   UNL     1      48.400   2.417   6.219  0.00  0.00    +0.000 N 
ATOM     27  C   UNL     1      47.345   1.732   6.760  0.00  0.00    +0.000 C 
ATOM     28  O   UNL     1      47.179   0.544   6.517  0.00  0.00    +0.000 OA
ATOM     29  H   UNL     1      49.060   1.866   5.683  0.00  0.00    +0.000 HD
ATOM     30  H   UNL     1      48.718   3.300   6.589  0.00  0.00    +0.000 HD
ENDBRANCH  20  27
ENDBRANCH  19  23
ENDBRANCH  18  19
ENDBRANCH   1  18
TORSDOF 6
ENDMDL
MODEL 4
REMARK VINA RESULT:    -8.322      1.964      2.562
REMARK INTER + INTRA:         -12.303
REMARK INTER:                 -11.282
REMARK INTRA:                  -1.021
REMARK UNBOUND:                -1.063
REMARK  Name = 
REMARK  6 active torsions:
REMARK  status: ('A' for Active; 'I' for Inactive)
REMARK    1  A    between atoms: C_2  and  C_4
REMARK    2  A    between atoms: C_7  and  O_8
REMARK    3  A    between atoms: O_8  and  C_9
REMARK    4  A    between atoms: C_9  and  C_10
REMARK    5  A    between atoms: C_15  and  C_16
REMARK    6  A    between atoms: C_20  and  C_21
REMARK                            x       y       z     vdW  Elec       q    Type
REMARK                         _______ _______ _______ _____ _____    ______ ____
ROOT
ATOM      1  C   UNL     1      44.489   4.505  11.507  0.00  0.00    +0.000 A 
ATOM      2  C   UNL     1      43.469   5.395  11.165  0.00  0.00    +0.000 A 
ATOM      3  C   UNL     1      43.642   6.754  11.391  0.00  0.00    +0.000 A 
ATOM      4  F   UNL     1      42.657   7.605  11.069  0.00  0.00    +0.000 F 
ATOM      5  C   UNL     1      44.817   7.252  11.946  0.00  0.00    +0.000 A 
ATOM      6  C   UNL     1      45.874   6.391  12.280  0.00  0.00    +0.000 A 
ATOM      7  C   UNL     1      45.682   5.014  12.050  0.00  0.00    +0.000 A 
ENDROOT
BRANCH   6   8
ATOM      8  C   UNL     1      47.161   6.903  12.805  0.00  0.00    +0.000 A 
ATOM      9  C   UNL     1      47.725   6.406  13.992  0.00  0.00    +0.000 A 
ATOM     10  C   UNL     1      48.980   6.829  14.437  0.00  0.00    +0.000 A 
ATOM     11  C   UNL     1      49.704   7.761  13.699  0.00  0.00    +0.000 A 
ATOM     12  C   UNL     1      49.175   8.285  12.515  0.00  0.00    +0.000 A 
ATOM     13  C   UNL     1      47.900   7.865  12.094  0.00  0.00    +0.000 A 
BRANCH  12  14
ATOM     14  C   UNL     1      49.958   9.247  11.659  0.00  0.00    +0.000 C 
ATOM     15  F   UNL     1      50.760  10.085  12.374  0.00  0.00    +0.000 F 
ATOM     16  F   UNL     1      50.782   8.604  10.783  0.00  0.00    +0.000 F 
ATOM     17  F   UNL     1      49.161  10.047  10.901  0.00  0.00    +0.000 F 
ENDBRANCH  12  14
ENDBRANCH   6   8
BRANCH   1  18
ATOM     18  C   UNL     1      44.315   3.016  11.324  0.00  0.00    +0.000 C 
BRANCH  18  19
ATOM     19  O   UNL     1      43.749   2.724  10.042  0.00  0.00    +0.000 OA
BRANCH  19  23
ATOM     20  C   UNL     1      46.654   2.490   7.118  0.00  0.00    +0.000 A 
ATOM     21  C   UNL     1      45.971   3.692   7.313  0.00  0.00    +0.000 A 
ATOM     22  C   UNL     1      44.989   3.771   8.307  0.00  0.00    +0.000 A 
ATOM     23  C   UNL     1      44.730   2.639   9.068  0.00  0.00    +0.000 A 
ATOM     24  N   UNL     1      45.380   1.468   8.901  0.00  0.00    +0.000 NA
ATOM     25  C   UNL     1      46.316   1.413   7.927  0.00  0.00    +0.000 A 
BRANCH  20  27
ATOM     26  N   UNL     1      47.728   3.162   5.041  0.00  0.00    +0.000 N 
ATOM     27  C   UNL     1      47.681   2.275   6.083  0.00  0.00    +0.000 C 
ATOM     28  O   UNL     1      48.495   1.365   6.167  0.00  0.00    +0.000 OA
ATOM     29  H   UNL     1      48.510   3.061   4.406  0.00  0.00    +0.000 HD
ATOM     30  H   UNL     1      47.260   4.055   5.069  0.00  0.00    +0.000 HD
ENDBRANCH  20  27
ENDBRANCH  19  23
ENDBRANCH  18  19
ENDBRANCH   1  18
TORSDOF 6
ENDMDL
MODEL 5
REMARK VINA RESULT:    -8.285      2.756      3.941
REMARK INTER + INTRA:         -12.254
REMARK INTER:                 -11.208
REMARK INTRA:                  -1.046
REMARK UNBOUND:                -1.063
REMARK  Name = 
REMARK  6 active torsions:
REMARK  status: ('A' for Active; 'I' for Inactive)
REMARK    1  A    between atoms: C_2  and  C_4
REMARK    2  A    between atoms: C_7  and  O_8
REMARK    3  A    between atoms: O_8  and  C_9
REMARK    4  A    between atoms: C_9  and  C_10
REMARK    5  A    between atoms: C_15  and  C_16
REMARK    6  A    between atoms: C_20  and  C_21
REMARK                            x       y       z     vdW  Elec       q    Type
REMARK                         _______ _______ _______ _____ _____    ______ ____
ROOT
ATOM      1  C   UNL     1      44.996   5.390  11.874  0.00  0.00    +0.000 A 
ATOM      2  C   UNL     1      44.411   6.560  11.382  0.00  0.00    +0.000 A 
ATOM      3  C   UNL     1      44.958   7.791  11.718  0.00  0.00    +0.000 A 
ATOM      4  F   UNL     1      44.390   8.912  11.251  0.00  0.00    +0.000 F 
ATOM      5  C   UNL     1      46.085   7.887  12.529  0.00  0.00    +0.000 A 
ATOM      6  C   UNL     1      46.715   6.733  13.021  0.00  0.00    +0.000 A 
ATOM      7  C   UNL     1      46.145   5.490  12.677  0.00  0.00    +0.000 A 
ENDROOT
BRANCH   6   8
ATOM      8  C   UNL     1      47.955   6.804  13.826  0.00  0.00    +0.000 A 
ATOM      9  C   UNL     1      49.046   7.600  13.436  0.00  0.00    +0.000 A 
ATOM     10  C   UNL     1      50.180   7.731  14.243  0.00  0.00    +0.000 A 
ATOM     11  C   UNL     1      50.246   7.069  15.466  0.00  0.00    +0.000 A 
ATOM     12  C   UNL     1      49.184   6.262  15.887  0.00  0.00    +0.000 A 
ATOM     13  C   UNL     1      48.061   6.122  15.053  0.00  0.00    +0.000 A 
BRANCH  12  14
ATOM     14  C   UNL     1      49.197   5.582  17.233  0.00  0.00    +0.000 C 
ATOM     15  F   UNL     1      49.864   6.282  18.192  0.00  0.00    +0.000 F 
ATOM     16  F   UNL     1      47.939   5.388  17.723  0.00  0.00    +0.000 F 
ATOM     17  F   UNL     1      49.776   4.352  17.195  0.00  0.00    +0.000 F 
ENDBRANCH  12  14
ENDBRANCH   6   8
BRANCH   1  18
ATOM     18  C   UNL     1      44.398   4.037  11.573  0.00  0.00    +0.000 C 
BRANCH  18  19
ATOM     19  O   UNL     1      43.806   4.020  10.269  0.00  0.00    +0.000 OA
BRANCH  19  23
ATOM     20  C   UNL     1      46.494   2.630   7.460  0.00  0.00    +0.000 A 
ATOM     21  C   UNL     1      45.932   1.736   8.374  0.00  0.00    +0.000 A 
ATOM     22  C   UNL     1      45.018   2.209   9.324  0.00  0.00    +0.000 A 
ATOM     23  C   UNL     1      44.703   3.560   9.319  0.00  0.00    +0.000 A 
ATOM     24  N   UNL     1      45.229   4.442   8.443  0.00  0.00    +0.000 NA
ATOM     25  C   UNL     1      46.118   3.964   7.542  0.00  0.00    +0.000 A 
BRANCH  20  27
ATOM     26  N   UNL     1      47.526   2.999   5.288  0.00  0.00    +0.000 N 
ATOM     27  C   UNL     1      47.491   2.259   6.439  0.00  0.00    +0.000 C 
ATOM     28  O   UNL     1      48.290   1.352   6.626  0.00  0.00    +0.000 OA
ATOM     29  H   UNL     1      48.290   2.799   4.654  0.00  0.00    +0.000 HD
ATOM     30  H   UNL     1      47.074   3.897   5.208  0.00  0.00    +0.000 HD
ENDBRANCH  20  27
ENDBRANCH  19  23
ENDBRANCH  18  19
ENDBRANCH   1  18
TORSDOF 6
ENDMDL
MODEL 6
REMARK VINA RESULT:    -7.760      5.393      8.151
REMARK INTER + INTRA:         -11.544
REMARK INTER:                 -10.505
REMARK INTRA:                  -1.040
REMARK UNBOUND:                -1.063
REMARK  Name = 
REMARK  6 active torsions:
REMARK  status: ('A' for Active; 'I' for Inactive)
REMARK    1  A    between atoms: C_2  and  C_4
REMARK    2  A    between atoms: C_7  and  O_8
REMARK    3  A    between atoms: O_8  and  C_9
REMARK    4  A    between atoms: C_9  and  C_10
REMARK    5  A    between atoms: C_15  and  C_16
REMARK    6  A    between atoms: C_20  and  C_21
REMARK                            x       y       z     vdW  Elec       q    Type
REMARK                         _______ _______ _______ _____ _____    ______ ____
ROOT
ATOM      1  C   UNL     1      48.133   6.560  14.417  0.00  0.00    +0.000 A 
ATOM      2  C   UNL     1      48.582   7.542  13.531  0.00  0.00    +0.000 A 
ATOM      3  C   UNL     1      48.086   7.572  12.235  0.00  0.00    +0.000 A 
ATOM      4  F   UNL     1      48.525   8.511  11.385  0.00  0.00    +0.000 F 
ATOM      5  C   UNL     1      47.140   6.648  11.799  0.00  0.00    +0.000 A 
ATOM      6  C   UNL     1      46.646   5.663  12.668  0.00  0.00    +0.000 A 
ATOM      7  C   UNL     1      47.164   5.640  13.979  0.00  0.00    +0.000 A 
ENDROOT
BRANCH   6   8
ATOM      8  C   UNL     1      45.589   4.714  12.251  0.00  0.00    +0.000 A 
ATOM      9  C   UNL     1      44.408   4.549  12.994  0.00  0.00    +0.000 A 
ATOM     10  C   UNL     1      43.376   3.716  12.551  0.00  0.00    +0.000 A 
ATOM     11  C   UNL     1      43.503   3.030  11.346  0.00  0.00    +0.000 A 
ATOM     12  C   UNL     1      44.665   3.163  10.580  0.00  0.00    +0.000 A 
ATOM     13  C   UNL     1      45.703   3.986  11.052  0.00  0.00    +0.000 A 
BRANCH  12  14
ATOM     14  C   UNL     1      44.809   2.484   9.242  0.00  0.00    +0.000 C 
ATOM     15  F   UNL     1      46.101   2.345   8.835  0.00  0.00    +0.000 F 
ATOM     16  F   UNL     1      44.285   1.225   9.245  0.00  0.00    +0.000 F 
ATOM     17  F   UNL     1      44.171   3.150   8.242  0.00  0.00    +0.000 F 
ENDBRANCH  12  14
ENDBRANCH   6   8
BRANCH   1  18
ATOM     18  C   UNL     1      48.689   6.463  15.817  0.00  0.00    +0.000 C 
BRANCH  18  19
ATOM     19  O   UNL     1      48.106   5.361  16.522  0.00  0.00    +0.000 OA
BRANCH  19  23
ATOM     20  C   UNL     1      50.910   2.464  17.410  0.00  0.00    +0.000 A 
ATOM     21  C   UNL     1      49.626   2.080  17.017  0.00  0.00    +0.000 A 
ATOM     22  C   UNL     1      48.678   3.063  16.713  0.00  0.00    +0.000 A 
ATOM     23  C   UNL     1      49.054   4.395  16.814  0.00  0.00    +0.000 A 
ATOM     24  N   UNL     1      50.290   4.790  17.187  0.00  0.00    +0.000 NA
ATOM     25  C   UNL     1      51.185   3.823  17.488  0.00  0.00    +0.000 A 
BRANCH  20  27
ATOM     26  N   UNL     1      51.618   0.239  18.095  0.00  0.00    +0.000 N 
ATOM     27  C   UNL     1      51.980   1.524  17.789  0.00  0.00    +0.000 C 
ATOM     28  O   UNL     1      53.157   1.860  17.789  0.00  0.00    +0.000 OA
ATOM     29  H   UNL     1      52.378  -0.414  18.240  0.00  0.00    +0.000 HD
ATOM     30  H   UNL     1      50.714  -0.139  17.857  0.00  0.00    +0.000 HD
ENDBRANCH  20  27
ENDBRANCH  19  23
ENDBRANCH  18  19
ENDBRANCH   1  18
TORSDOF 6
ENDMDL
MODEL 7
REMARK VINA RESULT:    -7.545      5.299      8.394
REMARK INTER + INTRA:         -11.255
REMARK INTER:                 -10.177
REMARK INTRA:                  -1.078
REMARK UNBOUND:                -1.063
REMARK  Name = 
REMARK  6 active torsions:
REMARK  status: ('A' for Active; 'I' for Inactive)
REMARK    1  A    between atoms: C_2  and  C_4
REMARK    2  A    between atoms: C_7  and  O_8
REMARK    3  A    between atoms: O_8  and  C_9
REMARK    4  A    between atoms: C_9  and  C_10
REMARK    5  A    between atoms: C_15  and  C_16
REMARK    6  A    between atoms: C_20  and  C_21
REMARK                            x       y       z     vdW  Elec       q    Type
REMARK                         _______ _______ _______ _____ _____    ______ ____
ROOT
ATOM      1  C   UNL     1      47.236   7.672  13.401  0.00  0.00    +0.000 A 
ATOM      2  C   UNL     1      46.497   8.851  13.278  0.00  0.00    +0.000 A 
ATOM      3  C   UNL     1      45.355   8.864  12.487  0.00  0.00    +0.000 A 
ATOM      4  F   UNL     1      44.653   9.999  12.365  0.00  0.00    +0.000 F 
ATOM      5  C   UNL     1      44.924   7.722  11.818  0.00  0.00    +0.000 A 
ATOM      6  C   UNL     1      45.626   6.512  11.938  0.00  0.00    +0.000 A 
ATOM      7  C   UNL     1      46.786   6.516  12.739  0.00  0.00    +0.000 A 
ENDROOT
BRANCH   6   8
ATOM      8  C   UNL     1      45.149   5.267  11.295  0.00  0.00    +0.000 A 
ATOM      9  C   UNL     1      44.144   4.473  11.875  0.00  0.00    +0.000 A 
ATOM     10  C   UNL     1      43.637   3.345  11.222  0.00  0.00    +0.000 A 
ATOM     11  C   UNL     1      44.124   2.988   9.968  0.00  0.00    +0.000 A 
ATOM     12  C   UNL     1      45.128   3.748   9.361  0.00  0.00    +0.000 A 
ATOM     13  C   UNL     1      45.643   4.866  10.041  0.00  0.00    +0.000 A 
BRANCH  12  14
ATOM     14  C   UNL     1      45.632   3.425   7.977  0.00  0.00    +0.000 C 
ATOM     15  F   UNL     1      46.548   4.318   7.507  0.00  0.00    +0.000 F 
ATOM     16  F   UNL     1      46.242   2.206   7.923  0.00  0.00    +0.000 F 
ATOM     17  F   UNL     1      44.637   3.386   7.050  0.00  0.00    +0.000 F 
ENDBRANCH  12  14
ENDBRANCH   6   8
BRANCH   1  18
ATOM     18  C   UNL     1      48.510   7.634  14.209  0.00  0.00    +0.000 C 
BRANCH  18  19
ATOM     19  O   UNL     1      48.871   6.285  14.528  0.00  0.00    +0.000 OA
BRANCH  19  23
ATOM     20  C   UNL     1      48.372   5.532  18.557  0.00  0.00    +0.000 A 
ATOM     21  C   UNL     1      48.678   6.827  18.133  0.00  0.00    +0.000 A 
ATOM     22  C   UNL     1      48.843   7.081  16.766  0.00  0.00    +0.000 A 
ATOM     23  C   UNL     1      48.694   6.026  15.878  0.00  0.00    +0.000 A 
ATOM     24  N   UNL     1      48.395   4.768  16.263  0.00  0.00    +0.000 NA
ATOM     25  C   UNL     1      48.251   4.544  17.589  0.00  0.00    +0.000 A 
BRANCH  20  27
ATOM     26  N   UNL     1      48.521   3.845  20.304  0.00  0.00    +0.000 N 
ATOM     27  C   UNL     1      48.209   5.135  19.967  0.00  0.00    +0.000 C 
ATOM     28  O   UNL     1      47.851   5.936  20.820  0.00  0.00    +0.000 OA
ATOM     29  H   UNL     1      48.510   3.629  21.293  0.00  0.00    +0.000 HD
ATOM     30  H   UNL     1      49.057   3.242  19.698  0.00  0.00    +0.000 HD
ENDBRANCH  20  27
ENDBRANCH  19  23
ENDBRANCH  18  19
ENDBRANCH   1  18
TORSDOF 6
ENDMDL
MODEL 8
REMARK VINA RESULT:    -7.505      1.604      2.115
REMARK INTER + INTRA:         -11.200
REMARK INTER:                 -10.142
REMARK INTRA:                  -1.058
REMARK UNBOUND:                -1.063
REMARK  Name = 
REMARK  6 active torsions:
REMARK  status: ('A' for Active; 'I' for Inactive)
REMARK    1  A    between atoms: C_2  and  C_4
REMARK    2  A    between atoms: C_7  and  O_8
REMARK    3  A    between atoms: O_8  and  C_9
REMARK    4  A    between atoms: C_9  and  C_10
REMARK    5  A    between atoms: C_15  and  C_16
REMARK    6  A    between atoms: C_20  and  C_21
REMARK                            x       y       z     vdW  Elec       q    Type
REMARK                         _______ _______ _______ _____ _____    ______ ____
ROOT
ATOM      1  C   UNL     1      45.435   5.398  12.087  0.00  0.00    +0.000 A 
ATOM      2  C   UNL     1      45.452   4.609  13.239  0.00  0.00    +0.000 A 
ATOM      3  C   UNL     1      46.487   4.753  14.153  0.00  0.00    +0.000 A 
ATOM      4  F   UNL     1      46.505   3.988  15.253  0.00  0.00    +0.000 F 
ATOM      5  C   UNL     1      47.509   5.677  13.950  0.00  0.00    +0.000 A 
ATOM      6  C   UNL     1      47.511   6.506  12.817  0.00  0.00    +0.000 A 
ATOM      7  C   UNL     1      46.458   6.344  11.895  0.00  0.00    +0.000 A 
ENDROOT
BRANCH   6   8
ATOM      8  C   UNL     1      48.546   7.546  12.614  0.00  0.00    +0.000 A 
ATOM      9  C   UNL     1      48.406   8.549  11.639  0.00  0.00    +0.000 A 
ATOM     10  C   UNL     1      49.344   9.577  11.509  0.00  0.00    +0.000 A 
ATOM     11  C   UNL     1      50.445   9.628  12.358  0.00  0.00    +0.000 A 
ATOM     12  C   UNL     1      50.624   8.645  13.337  0.00  0.00    +0.000 A 
ATOM     13  C   UNL     1      49.684   7.604  13.439  0.00  0.00    +0.000 A 
BRANCH  12  14
ATOM     14  C   UNL     1      51.772   8.705  14.313  0.00  0.00    +0.000 C 
ATOM     15  F   UNL     1      52.158   7.484  14.778  0.00  0.00    +0.000 F 
ATOM     16  F   UNL     1      52.888   9.262  13.762  0.00  0.00    +0.000 F 
ATOM     17  F   UNL     1      51.488   9.452  15.415  0.00  0.00    +0.000 F 
ENDBRANCH  12  14
ENDBRANCH   6   8
BRANCH   1  18
ATOM     18  C   UNL     1      44.354   5.231  11.046  0.00  0.00    +0.000 C 
BRANCH  18  19
ATOM     19  O   UNL     1      44.202   3.853  10.686  0.00  0.00    +0.000 OA
BRANCH  19  23
ATOM     20  C   UNL     1      46.521   2.921   7.400  0.00  0.00    +0.000 A 
ATOM     21  C   UNL     1      46.238   4.259   7.684  0.00  0.00    +0.000 A 
ATOM     22  C   UNL     1      45.454   4.573   8.801  0.00  0.00    +0.000 A 
ATOM     23  C   UNL     1      44.986   3.533   9.590  0.00  0.00    +0.000 A 
ATOM     24  N   UNL     1      45.249   2.233   9.338  0.00  0.00    +0.000 NA
ATOM     25  C   UNL     1      45.998   1.954   8.247  0.00  0.00    +0.000 A 
BRANCH  20  27
ATOM     26  N   UNL     1      48.552   1.957   6.470  0.00  0.00    +0.000 N 
ATOM     27  C   UNL     1      47.302   2.465   6.236  0.00  0.00    +0.000 C 
ATOM     28  O   UNL     1      46.841   2.496   5.103  0.00  0.00    +0.000 OA
ATOM     29  H   UNL     1      49.022   1.548   5.673  0.00  0.00    +0.000 HD
ATOM     30  H   UNL     1      48.859   1.677   7.390  0.00  0.00    +0.000 HD
ENDBRANCH  20  27
ENDBRANCH  19  23
ENDBRANCH  18  19
ENDBRANCH   1  18
TORSDOF 6
ENDMDL
MODEL 9
REMARK VINA RESULT:    -7.472      4.432      7.554
REMARK INTER + INTRA:         -11.156
REMARK INTER:                 -10.537
REMARK INTRA:                  -0.619
REMARK UNBOUND:                -1.063
REMARK  Name = 
REMARK  6 active torsions:
REMARK  status: ('A' for Active; 'I' for Inactive)
REMARK    1  A    between atoms: C_2  and  C_4
REMARK    2  A    between atoms: C_7  and  O_8
REMARK    3  A    between atoms: O_8  and  C_9
REMARK    4  A    between atoms: C_9  and  C_10
REMARK    5  A    between atoms: C_15  and  C_16
REMARK    6  A    between atoms: C_20  and  C_21
REMARK                            x       y       z     vdW  Elec       q    Type
REMARK                         _______ _______ _______ _____ _____    ______ ____
ROOT
ATOM      1  C   UNL     1      45.481   6.560  11.714  0.00  0.00    +0.000 A 
ATOM      2  C   UNL     1      44.134   6.772  12.017  0.00  0.00    +0.000 A 
ATOM      3  C   UNL     1      43.165   5.969  11.430  0.00  0.00    +0.000 A 
ATOM      4  F   UNL     1      41.874   6.180  11.716  0.00  0.00    +0.000 F 
ATOM      5  C   UNL     1      43.508   4.947  10.549  0.00  0.00    +0.000 A 
ATOM      6  C   UNL     1      44.853   4.687  10.240  0.00  0.00    +0.000 A 
ATOM      7  C   UNL     1      45.824   5.515  10.839  0.00  0.00    +0.000 A 
ENDROOT
BRANCH   6   8
ATOM      8  C   UNL     1      45.248   3.562   9.363  0.00  0.00    +0.000 A 
ATOM      9  C   UNL     1      44.867   2.238   9.640  0.00  0.00    +0.000 A 
ATOM     10  C   UNL     1      45.169   1.192   8.763  0.00  0.00    +0.000 A 
ATOM     11  C   UNL     1      45.859   1.449   7.582  0.00  0.00    +0.000 A 
ATOM     12  C   UNL     1      46.262   2.752   7.273  0.00  0.00    +0.000 A 
ATOM     13  C   UNL     1      45.970   3.789   8.177  0.00  0.00    +0.000 A 
BRANCH  12  14
ATOM     14  C   UNL     1      46.955   3.075   5.974  0.00  0.00    +0.000 C 
ATOM     15  F   UNL     1      46.376   2.493   4.887  0.00  0.00    +0.000 F 
ATOM     16  F   UNL     1      46.966   4.414   5.715  0.00  0.00    +0.000 F 
ATOM     17  F   UNL     1      48.258   2.682   5.960  0.00  0.00    +0.000 F 
ENDBRANCH  12  14
ENDBRANCH   6   8
BRANCH   1  18
ATOM     18  C   UNL     1      46.557   7.447  12.293  0.00  0.00    +0.000 C 
BRANCH  18  19
ATOM     19  O   UNL     1      47.764   6.707  12.510  0.00  0.00    +0.000 OA
BRANCH  19  23
ATOM     20  C   UNL     1      47.677   4.683  16.107  0.00  0.00    +0.000 A 
ATOM     21  C   UNL     1      48.328   5.916  16.028  0.00  0.00    +0.000 A 
ATOM     22  C   UNL     1      48.354   6.602  14.808  0.00  0.00    +0.000 A 
ATOM     23  C   UNL     1      47.724   6.026  13.715  0.00  0.00    +0.000 A 
ATOM     24  N   UNL     1      47.084   4.838  13.768  0.00  0.00    +0.000 NA
ATOM     25  C   UNL     1      47.083   4.188  14.954  0.00  0.00    +0.000 A 
BRANCH  20  27
ATOM     26  N   UNL     1      48.489   4.139  18.335  0.00  0.00    +0.000 N 
ATOM     27  C   UNL     1      47.613   3.852  17.323  0.00  0.00    +0.000 C 
ATOM     28  O   UNL     1      46.780   2.964  17.448  0.00  0.00    +0.000 OA
ATOM     29  H   UNL     1      48.351   3.632  19.200  0.00  0.00    +0.000 HD
ATOM     30  H   UNL     1      49.000   5.008  18.378  0.00  0.00    +0.000 HD
ENDBRANCH  20  27
ENDBRANCH  19  23
ENDBRANCH  18  19
ENDBRANCH   1  18
TORSDOF 6
ENDMDL
