MODEL 1
REMARK VINA RESULT:    -9.251      0.000      0.000
REMARK INTER + INTRA:         -12.298
REMARK INTER:                 -11.414
REMARK INTRA:                  -0.884
REMARK UNBOUND:                -0.884
REMARK  Name = 
REMARK  4 active torsions:
REMARK  status: ('A' for Active; 'I' for Inactive)
REMARK    1  A    between atoms: C_2  and  C_4
REMARK    2  A    between atoms: N_8  and  C_9
REMARK    3  A    between atoms: C_9  and  C_10
REMARK    4  A    between atoms: C_15  and  C_16
REMARK                            x       y       z     vdW  Elec       q    Type
REMARK                         _______ _______ _______ _____ _____    ______ ____
ROOT
ATOM      1  C   UNL     1      43.448   4.845  11.026  0.00  0.00    +0.000 C 
ENDROOT
BRANCH   1   6
ATOM      2  C   UNL     1      46.400   2.278   7.702  0.00  0.00    +0.000 A 
ATOM      3  C   UNL     1      45.634   1.781   8.751  0.00  0.00    +0.000 A 
ATOM      4  C   UNL     1      44.764   2.638   9.427  0.00  0.00    +0.000 A 
ATOM      5  C   UNL     1      44.689   3.977   9.061  0.00  0.00    +0.000 A 
ATOM      6  N   UNL     1      43.796   4.868   9.617  0.00  0.00    +0.000 N 
ATOM      7  N   UNL     1      45.438   4.471   8.053  0.00  0.00    +0.000 NA
ATOM      8  C   UNL     1      46.279   3.623   7.401  0.00  0.00    +0.000 A 
ATOM      9  H   UNL     1      44.012   5.787   9.241  0.00  0.00    +0.000 HD
BRANCH   2  11
ATOM     10  N   UNL     1      48.372   2.050   6.300  0.00  0.00    +0.000 N 
ATOM     11  C   UNL     1      47.321   1.432   6.917  0.00  0.00    +0.000 C 
ATOM     12  O   UNL     1      47.169   0.219   6.844  0.00  0.00    +0.000 OA
ATOM     13  H   UNL     1      49.049   1.446   5.851  0.00  0.00    +0.000 HD
ATOM     14  H   UNL     1      48.676   2.981   6.548  0.00  0.00    +0.000 HD
ENDBRANCH   2  11
ENDBRANCH   1   6
BRANCH   1  15
ATOM     15  C   UNL     1      44.626   5.182  11.910  0.00  0.00    +0.000 A 
ATOM     16  C   UNL     1      45.019   4.311  12.928  0.00  0.00    +0.000 A 
ATOM     17  C   UNL     1      46.103   4.633  13.740  0.00  0.00    +0.000 A 
ATOM     18  C   UNL     1      46.818   5.826  13.550  0.00  0.00    +0.000 A 
ATOM     19 CL   UNL     1      48.070   6.127  14.713  0.00  0.00    +0.000 Cl
ATOM     20  C   UNL     1      46.483   6.718  12.508  0.00  0.00    +0.000 A 
ATOM     21  C   UNL     1      45.369   6.360  11.705  0.00  0.00    +0.000 A 
BRANCH  20  22
ATOM     22  C   UNL     1      47.230   7.969  12.212  0.00  0.00    +0.000 A 
ATOM     23  C   UNL     1      48.567   7.976  11.801  0.00  0.00    +0.000 A 
ATOM     24  C   UNL     1      49.217   9.191  11.574  0.00  0.00    +0.000 A 
ATOM     25  C   UNL     1      48.516  10.376  11.734  0.00  0.00    +0.000 A 
ATOM     26  C   UNL     1      47.199  10.297  12.139  0.00  0.00    +0.000 A 
ATOM     27  N   UNL     1      46.564   9.133  12.405  0.00  0.00    +0.000 NA
ENDBRANCH  20  22
ENDBRANCH   1  15
TORSDOF 4
ENDMDL
MODEL 2
REMARK VINA RESULT:    -9.200      2.235      3.935
REMARK INTER + INTRA:         -12.236
REMARK INTER:                 -11.399
REMARK INTRA:                  -0.836
REMARK UNBOUND:                -0.884
REMARK  Name = 
REMARK  4 active torsions:
REMARK  status: ('A' for Active; 'I' for Inactive)
REMARK    1  A    between atoms: C_2  and  C_4
REMARK    2  A    between atoms: N_8  and  C_9
REMARK    3  A    between atoms: C_9  and  C_10
REMARK    4  A    between atoms: C_15  and  C_16
REMARK                            x       y       z     vdW  Elec       q    Type
REMARK                         _______ _______ _______ _____ _____    ______ ____
ROOT
ATOM      1  C   UNL     1      44.083   4.893  11.431  0.00  0.00    +0.000 C 
ENDROOT
BRANCH   1   6
ATOM      2  C   UNL     1      46.510   2.488   7.601  0.00  0.00    +0.000 A 
ATOM      3  C   UNL     1      45.848   1.938   8.693  0.00  0.00    +0.000 A 
ATOM      4  C   UNL     1      45.102   2.771   9.530  0.00  0.00    +0.000 A 
ATOM      5  C   UNL     1      45.048   4.137   9.275  0.00  0.00    +0.000 A 
ATOM      6  N   UNL     1      44.267   5.014   9.997  0.00  0.00    +0.000 N 
ATOM      7  N   UNL     1      45.696   4.680   8.224  0.00  0.00    +0.000 NA
ATOM      8  C   UNL     1      46.416   3.856   7.416  0.00  0.00    +0.000 A 
ATOM      9  H   UNL     1      44.480   5.951   9.667  0.00  0.00    +0.000 HD
BRANCH   2  11
ATOM     10  N   UNL     1      48.276   2.304   5.942  0.00  0.00    +0.000 N 
ATOM     11  C   UNL     1      47.294   1.673   6.651  0.00  0.00    +0.000 C 
ATOM     12  O   UNL     1      47.094   0.471   6.524  0.00  0.00    +0.000 OA
ATOM     13  H   UNL     1      48.869   1.715   5.371  0.00  0.00    +0.000 HD
ATOM     14  H   UNL     1      48.640   3.209   6.205  0.00  0.00    +0.000 HD
ENDBRANCH   2  11
ENDBRANCH   1   6
BRANCH   1  15
ATOM     15  C   UNL     1      45.290   5.372  12.203  0.00  0.00    +0.000 A 
ATOM     16  C   UNL     1      45.968   6.528  11.813  0.00  0.00    +0.000 A 
ATOM     17  C   UNL     1      47.083   6.959  12.528  0.00  0.00    +0.000 A 
ATOM     18  C   UNL     1      47.539   6.247  13.649  0.00  0.00    +0.000 A 
ATOM     19 CL   UNL     1      49.000   6.853  14.362  0.00  0.00    +0.000 Cl
ATOM     20  C   UNL     1      46.862   5.095  14.106  0.00  0.00    +0.000 A 
ATOM     21  C   UNL     1      45.735   4.683  13.348  0.00  0.00    +0.000 A 
BRANCH  20  22
ATOM     22  C   UNL     1      47.254   4.325  15.317  0.00  0.00    +0.000 A 
ATOM     23  C   UNL     1      47.107   4.825  16.614  0.00  0.00    +0.000 A 
ATOM     24  C   UNL     1      47.529   4.061  17.704  0.00  0.00    +0.000 A 
ATOM     25  C   UNL     1      48.065   2.801  17.484  0.00  0.00    +0.000 A 
ATOM     26  C   UNL     1      48.180   2.369  16.178  0.00  0.00    +0.000 A 
ATOM     27  N   UNL     1      47.816   3.110  15.107  0.00  0.00    +0.000 NA
ENDBRANCH  20  22
ENDBRANCH   1  15
TORSDOF 4
ENDMDL
MODEL 3
REMARK VINA RESULT:    -7.706      2.517      3.366
REMARK INTER + INTRA:         -10.393
REMARK INTER:                 -10.071
REMARK INTRA:                  -0.322
REMARK UNBOUND:                -0.884
REMARK  Name = 
REMARK  4 active torsions:
REMARK  status: ('A' for Active; 'I' for Inactive)
REMARK    1  A    between atoms: C_2  and  C_4
REMARK    2  A    between atoms: N_8  and  C_9
REMARK    3  A    between atoms: C_9  and  C_10
REMARK    4  A    between atoms: C_15  and  C_16
REMARK                            x       y       z     vdW  Elec       q    Type
REMARK                         _______ _______ _______ _____ _____    ______ ____
ROOT
ATOM      1  C   UNL     1      43.584   3.386  11.000  0.00  0.00    +0.000 C 
ENDROOT
BRANCH   1   6
ATOM      2  C   UNL     1      46.774   2.433   7.093  0.00  0.00    +0.000 A 
ATOM      3  C   UNL     1      46.438   3.655   7.665  0.00  0.00    +0.000 A 
ATOM      4  C   UNL     1      45.682   3.676   8.838  0.00  0.00    +0.000 A 
ATOM      5  C   UNL     1      45.255   2.481   9.407  0.00  0.00    +0.000 A 
ATOM      6  N   UNL     1      44.581   2.408  10.607  0.00  0.00    +0.000 N 
ATOM      7  N   UNL     1      45.567   1.291   8.852  0.00  0.00    +0.000 NA
ATOM      8  C   UNL     1      46.307   1.286   7.711  0.00  0.00    +0.000 A 
ATOM      9  H   UNL     1      44.312   1.438  10.745  0.00  0.00    +0.000 HD
BRANCH   2  11
ATOM     10  N   UNL     1      47.329   3.194   4.853  0.00  0.00    +0.000 N 
ATOM     11  C   UNL     1      47.596   2.323   5.871  0.00  0.00    +0.000 C 
ATOM     12  O   UNL     1      48.503   1.505   5.782  0.00  0.00    +0.000 OA
ATOM     13  H   UNL     1      47.964   3.174   4.065  0.00  0.00    +0.000 HD
ATOM     14  H   UNL     1      46.783   4.034   4.985  0.00  0.00    +0.000 HD
ENDBRANCH   2  11
ENDBRANCH   1   6
BRANCH   1  15
ATOM     15  C   UNL     1      44.206   4.625  11.602  0.00  0.00    +0.000 A 
ATOM     16  C   UNL     1      43.820   5.894  11.168  0.00  0.00    +0.000 A 
ATOM     17  C   UNL     1      44.402   7.030  11.725  0.00  0.00    +0.000 A 
ATOM     18  C   UNL     1      45.377   6.920  12.729  0.00  0.00    +0.000 A 
ATOM     19 CL   UNL     1      46.080   8.422  13.239  0.00  0.00    +0.000 Cl
ATOM     20  C   UNL     1      45.771   5.660  13.229  0.00  0.00    +0.000 A 
ATOM     21  C   UNL     1      45.160   4.526  12.632  0.00  0.00    +0.000 A 
BRANCH  20  22
ATOM     22  C   UNL     1      46.754   5.471  14.329  0.00  0.00    +0.000 A 
ATOM     23  C   UNL     1      47.834   6.334  14.538  0.00  0.00    +0.000 A 
ATOM     24  C   UNL     1      48.738   6.077  15.570  0.00  0.00    +0.000 A 
ATOM     25  C   UNL     1      48.536   4.978  16.392  0.00  0.00    +0.000 A 
ATOM     26  C   UNL     1      47.449   4.169  16.130  0.00  0.00    +0.000 A 
ATOM     27  N   UNL     1      46.586   4.377  15.111  0.00  0.00    +0.000 NA
ENDBRANCH  20  22
ENDBRANCH   1  15
TORSDOF 4
ENDMDL
MODEL 4
REMARK VINA RESULT:    -7.677      2.064      2.656
REMARK INTER + INTRA:         -10.357
REMARK INTER:                  -9.991
REMARK INTRA:                  -0.365
REMARK UNBOUND:                -0.884
REMARK  Name = 
REMARK  4 active torsions:
REMARK  status: ('A' for Active; 'I' for Inactive)
REMARK    1  A    between atoms: C_2  and  C_4
REMARK    2  A    between atoms: N_8  and  C_9
REMARK    3  A    between atoms: C_9  and  C_10
REMARK    4  A    between atoms: C_15  and  C_16
REMARK                            x       y       z     vdW  Elec       q    Type
REMARK                         _______ _______ _______ _____ _____    ______ ____
ROOT
ATOM      1  C   UNL     1      43.433   3.407  11.035  0.00  0.00    +0.000 C 
ENDROOT
BRANCH   1   6
ATOM      2  C   UNL     1      46.670   2.525   7.149  0.00  0.00    +0.000 A 
ATOM      3  C   UNL     1      46.135   3.735   7.580  0.00  0.00    +0.000 A 
ATOM      4  C   UNL     1      45.408   3.774   8.771  0.00  0.00    +0.000 A 
ATOM      5  C   UNL     1      45.209   2.606   9.498  0.00  0.00    +0.000 A 
ATOM      6  N   UNL     1      44.579   2.573  10.725  0.00  0.00    +0.000 N 
ATOM      7  N   UNL     1      45.714   1.427   9.082  0.00  0.00    +0.000 NA
ATOM      8  C   UNL     1      46.422   1.404   7.921  0.00  0.00    +0.000 A 
ATOM      9  H   UNL     1      44.487   1.597  10.990  0.00  0.00    +0.000 HD
BRANCH   2  11
ATOM     10  N   UNL     1      47.303   3.358   4.956  0.00  0.00    +0.000 N 
ATOM     11  C   UNL     1      47.477   2.404   5.918  0.00  0.00    +0.000 C 
ATOM     12  O   UNL     1      48.292   1.501   5.775  0.00  0.00    +0.000 OA
ATOM     13  H   UNL     1      47.933   3.319   4.164  0.00  0.00    +0.000 HD
ATOM     14  H   UNL     1      46.849   4.241   5.142  0.00  0.00    +0.000 HD
ENDBRANCH   2  11
ENDBRANCH   1   6
BRANCH   1  15
ATOM     15  C   UNL     1      43.826   4.843  11.295  0.00  0.00    +0.000 A 
ATOM     16  C   UNL     1      42.908   5.876  11.099  0.00  0.00    +0.000 A 
ATOM     17  C   UNL     1      43.282   7.196  11.336  0.00  0.00    +0.000 A 
ATOM     18  C   UNL     1      44.576   7.510  11.779  0.00  0.00    +0.000 A 
ATOM     19 CL   UNL     1      44.913   9.206  11.923  0.00  0.00    +0.000 Cl
ATOM     20  C   UNL     1      45.527   6.496  12.031  0.00  0.00    +0.000 A 
ATOM     21  C   UNL     1      45.112   5.164  11.771  0.00  0.00    +0.000 A 
BRANCH  20  22
ATOM     22  C   UNL     1      46.895   6.751  12.554  0.00  0.00    +0.000 A 
ATOM     23  C   UNL     1      47.921   7.287  11.770  0.00  0.00    +0.000 A 
ATOM     24  C   UNL     1      49.192   7.467  12.318  0.00  0.00    +0.000 A 
ATOM     25  C   UNL     1      49.413   7.134  13.646  0.00  0.00    +0.000 A 
ATOM     26  C   UNL     1      48.356   6.610  14.363  0.00  0.00    +0.000 A 
ATOM     27  N   UNL     1      47.129   6.390  13.839  0.00  0.00    +0.000 NA
ENDBRANCH  20  22
ENDBRANCH   1  15
TORSDOF 4
ENDMDL
MODEL 5
REMARK VINA RESULT:    -7.296      1.957      2.550
REMARK INTER + INTRA:          -9.886
REMARK INTER:                  -9.155
REMARK INTRA:                  -0.731
REMARK UNBOUND:                -0.884
REMARK  Name = 
REMARK  4 active torsions:
REMARK  status: ('A' for Active; 'I' for Inactive)
REMARK    1  A    between atoms: C_2  and  C_4
REMARK    2  A    between atoms: N_8  and  C_9
REMARK    3  A    between atoms: C_9  and  C_10
REMARK    4  A    between atoms: C_15  and  C_16
REMARK                            x       y       z     vdW  Elec       q    Type
REMARK                         _______ _______ _______ _____ _____    ______ ____
ROOT
ATOM      1  C   UNL     1      43.951   5.454  10.964  0.00  0.00    +0.000 C 
ENDROOT
BRANCH   1   6
ATOM      2  C   UNL     1      46.262   2.010   7.940  0.00  0.00    +0.000 A 
ATOM      3  C   UNL     1      45.645   1.813   9.171  0.00  0.00    +0.000 A 
ATOM      4  C   UNL     1      44.922   2.859   9.747  0.00  0.00    +0.000 A 
ATOM      5  C   UNL     1      44.845   4.086   9.098  0.00  0.00    +0.000 A 
ATOM      6  N   UNL     1      44.082   5.140   9.553  0.00  0.00    +0.000 N 
ATOM      7  N   UNL     1      45.450   4.289   7.909  0.00  0.00    +0.000 NA
ATOM      8  C   UNL     1      46.149   3.260   7.359  0.00  0.00    +0.000 A 
ATOM      9  H   UNL     1      44.274   5.935   8.950  0.00  0.00    +0.000 HD
BRANCH   2  11
ATOM     10  N   UNL     1      46.761  -0.346   7.610  0.00  0.00    +0.000 N 
ATOM     11  C   UNL     1      47.019   0.946   7.249  0.00  0.00    +0.000 C 
ATOM     12  O   UNL     1      47.826   1.207   6.366  0.00  0.00    +0.000 OA
ATOM     13  H   UNL     1      47.211  -1.066   7.060  0.00  0.00    +0.000 HD
ATOM     14  H   UNL     1      45.935  -0.610   8.129  0.00  0.00    +0.000 HD
ENDBRANCH   2  11
ENDBRANCH   1   6
BRANCH   1  15
ATOM     15  C   UNL     1      44.620   6.761  11.321  0.00  0.00    +0.000 A 
ATOM     16  C   UNL     1      43.946   7.972  11.153  0.00  0.00    +0.000 A 
ATOM     17  C   UNL     1      44.573   9.171  11.481  0.00  0.00    +0.000 A 
ATOM     18  C   UNL     1      45.882   9.185  11.988  0.00  0.00    +0.000 A 
ATOM     19 CL   UNL     1      46.556  10.763  12.243  0.00  0.00    +0.000 Cl
ATOM     20  C   UNL     1      46.589   7.983  12.214  0.00  0.00    +0.000 A 
ATOM     21  C   UNL     1      45.920   6.782  11.861  0.00  0.00    +0.000 A 
BRANCH  20  22
ATOM     22  C   UNL     1      47.954   7.919  12.800  0.00  0.00    +0.000 A 
ATOM     23  C   UNL     1      49.112   8.172  12.059  0.00  0.00    +0.000 A 
ATOM     24  C   UNL     1      50.364   8.059  12.666  0.00  0.00    +0.000 A 
ATOM     25  C   UNL     1      50.439   7.723  14.009  0.00  0.00    +0.000 A 
ATOM     26  C   UNL     1      49.257   7.488  14.682  0.00  0.00    +0.000 A 
ATOM     27  N   UNL     1      48.038   7.551  14.102  0.00  0.00    +0.000 NA
ENDBRANCH  20  22
ENDBRANCH   1  15
TORSDOF 4
ENDMDL
MODEL 6
REMARK VINA RESULT:    -7.205      2.739      3.304
REMARK INTER + INTRA:          -9.774
REMARK INTER:                  -9.247
REMARK INTRA:                  -0.527
REMARK UNBOUND:                -0.884
REMARK  Name = 
REMARK  4 active torsions:
REMARK  status: ('A' for Active; 'I' for Inactive)
REMARK    1  A    between atoms: C_2  and  C_4
REMARK    2  A    between atoms: N_8  and  C_9
REMARK    3  A    between atoms: C_9  and  C_10
REMARK    4  A    between atoms: C_15  and  C_16
REMARK                            x       y       z     vdW  Elec       q    Type
REMARK                         _______ _______ _______ _____ _____    ______ ____
ROOT
ATOM      1  C   UNL     1      43.395   4.095  10.996  0.00  0.00    +0.000 C 
ENDROOT
BRANCH   1   6
ATOM      2  C   UNL     1      46.613   2.580   7.296  0.00  0.00    +0.000 A 
ATOM      3  C   UNL     1      46.278   3.873   7.683  0.00  0.00    +0.000 A 
ATOM      4  C   UNL     1      45.512   4.064   8.834  0.00  0.00    +0.000 A 
ATOM      5  C   UNL     1      45.076   2.964   9.565  0.00  0.00    +0.000 A 
ATOM      6  N   UNL     1      44.391   3.068  10.757  0.00  0.00    +0.000 N 
ATOM      7  N   UNL     1      45.387   1.706   9.190  0.00  0.00    +0.000 NA
ATOM      8  C   UNL     1      46.137   1.536   8.068  0.00  0.00    +0.000 A 
ATOM      9  H   UNL     1      44.117   2.128  11.030  0.00  0.00    +0.000 HD
BRANCH   2  11
ATOM     10  N   UNL     1      47.322   3.130   5.037  0.00  0.00    +0.000 N 
ATOM     11  C   UNL     1      47.446   2.293   6.110  0.00  0.00    +0.000 C 
ATOM     12  O   UNL     1      48.240   1.360   6.096  0.00  0.00    +0.000 OA
ATOM     13  H   UNL     1      47.969   2.982   4.273  0.00  0.00    +0.000 HD
ATOM     14  H   UNL     1      46.888   4.040   5.106  0.00  0.00    +0.000 HD
ENDBRANCH   2  11
ENDBRANCH   1   6
BRANCH   1  15
ATOM     15  C   UNL     1      44.014   5.395  11.453  0.00  0.00    +0.000 A 
ATOM     16  C   UNL     1      45.107   5.394  12.320  0.00  0.00    +0.000 A 
ATOM     17  C   UNL     1      45.668   6.598  12.739  0.00  0.00    +0.000 A 
ATOM     18  C   UNL     1      45.152   7.826  12.295  0.00  0.00    +0.000 A 
ATOM     19 CL   UNL     1      45.892   9.231  12.993  0.00  0.00    +0.000 Cl
ATOM     20  C   UNL     1      44.073   7.877  11.385  0.00  0.00    +0.000 A 
ATOM     21  C   UNL     1      43.524   6.630  10.987  0.00  0.00    +0.000 A 
BRANCH  20  22
ATOM     22  C   UNL     1      43.513   9.138  10.830  0.00  0.00    +0.000 A 
ATOM     23  C   UNL     1      44.311  10.147  10.282  0.00  0.00    +0.000 A 
ATOM     24  C   UNL     1      43.720  11.320   9.810  0.00  0.00    +0.000 A 
ATOM     25  C   UNL     1      42.341  11.456   9.867  0.00  0.00    +0.000 A 
ATOM     26  C   UNL     1      41.613  10.421  10.419  0.00  0.00    +0.000 A 
ATOM     27  N   UNL     1      42.170   9.295  10.919  0.00  0.00    +0.000 NA
ENDBRANCH  20  22
ENDBRANCH   1  15
TORSDOF 4
ENDMDL
MODEL 7
REMARK VINA RESULT:    -6.922      3.529      7.296
REMARK INTER + INTRA:          -9.425
REMARK INTER:                  -9.076
REMARK INTRA:                  -0.349
REMARK UNBOUND:                -0.884
REMARK  Name = 
REMARK  4 active torsions:
REMARK  status: ('A' for Active; 'I' for Inactive)
REMARK    1  A    between atoms: C_2  and  C_4
REMARK    2  A    between atoms: N_8  and  C_9
REMARK    3  A    between atoms: C_9  and  C_10
REMARK    4  A    between atoms: C_15  and  C_16
REMARK                            x       y       z     vdW  Elec       q    Type
REMARK                         _______ _______ _______ _____ _____    ______ ____
ROOT
ATOM      1  C   UNL     1      45.253   6.711  11.187  0.00  0.00    +0.000 C 
ENDROOT
BRANCH   1   6
ATOM      2  C   UNL     1      47.865   5.463  15.426  0.00  0.00    +0.000 A 
ATOM      3  C   UNL     1      46.863   4.748  14.779  0.00  0.00    +0.000 A 
ATOM      4  C   UNL     1      46.404   5.189  13.536  0.00  0.00    +0.000 A 
ATOM      5  C   UNL     1      46.936   6.343  12.972  0.00  0.00    +0.000 A 
ATOM      6  N   UNL     1      46.602   6.797  11.714  0.00  0.00    +0.000 N 
ATOM      7  N   UNL     1      47.900   7.049  13.599  0.00  0.00    +0.000 NA
ATOM      8  C   UNL     1      48.339   6.606  14.808  0.00  0.00    +0.000 A 
ATOM      9  H   UNL     1      47.059   7.696  11.586  0.00  0.00    +0.000 HD
BRANCH   2  11
ATOM     10  N   UNL     1      47.704   5.343  17.848  0.00  0.00    +0.000 N 
ATOM     11  C   UNL     1      48.427   5.048  16.727  0.00  0.00    +0.000 C 
ATOM     12  O   UNL     1      49.485   4.435  16.800  0.00  0.00    +0.000 OA
ATOM     13  H   UNL     1      48.051   4.965  18.720  0.00  0.00    +0.000 HD
ATOM     14  H   UNL     1      46.728   5.602  17.812  0.00  0.00    +0.000 HD
ENDBRANCH   2  11
ENDBRANCH   1   6
BRANCH   1  15
ATOM     15  C   UNL     1      44.939   5.335  10.646  0.00  0.00    +0.000 A 
ATOM     16  C   UNL     1      43.926   4.564  11.217  0.00  0.00    +0.000 A 
ATOM     17  C   UNL     1      43.647   3.295  10.714  0.00  0.00    +0.000 A 
ATOM     18  C   UNL     1      44.371   2.775   9.629  0.00  0.00    +0.000 A 
ATOM     19 CL   UNL     1      43.974   1.143   9.194  0.00  0.00    +0.000 Cl
ATOM     20  C   UNL     1      45.377   3.535   8.993  0.00  0.00    +0.000 A 
ATOM     21  C   UNL     1      45.637   4.819   9.537  0.00  0.00    +0.000 A 
BRANCH  20  22
ATOM     22  C   UNL     1      46.143   3.072   7.805  0.00  0.00    +0.000 A 
ATOM     23  C   UNL     1      46.738   1.808   7.730  0.00  0.00    +0.000 A 
ATOM     24  C   UNL     1      47.472   1.453   6.598  0.00  0.00    +0.000 A 
ATOM     25  C   UNL     1      47.580   2.352   5.548  0.00  0.00    +0.000 A 
ATOM     26  C   UNL     1      46.967   3.581   5.687  0.00  0.00    +0.000 A 
ATOM     27  N   UNL     1      46.287   3.960   6.792  0.00  0.00    +0.000 NA
ENDBRANCH  20  22
ENDBRANCH   1  15
TORSDOF 4
ENDMDL
MODEL 8
REMARK VINA RESULT:    -6.535      3.352      6.939
REMARK INTER + INTRA:          -8.948
REMARK INTER:                  -8.597
REMARK INTRA:                  -0.351
REMARK UNBOUND:                -0.884
REMARK  Name = 
REMARK  4 active torsions:
REMARK  status: ('A' for Active; 'I' for Inactive)
REMARK    1  A    between atoms: C_2  and  C_4
REMARK    2  A    between atoms: N_8  and  C_9
REMARK    3  A    between atoms: C_9  and  C_10
REMARK    4  A    between atoms: C_15  and  C_16
REMARK                            x       y       z     vdW  Elec       q    Type
REMARK                         _______ _______ _______ _____ _____    ______ ____
ROOT
ATOM      1  C   UNL     1      45.016   7.924  12.207  0.00  0.00    +0.000 C 
ENDROOT
BRANCH   1   6
ATOM      2  C   UNL     1      50.111   8.197  12.775  0.00  0.00    +0.000 A 
ATOM      3  C   UNL     1      49.308   8.798  11.812  0.00  0.00    +0.000 A 
ATOM      4  C   UNL     1      47.920   8.735  11.942  0.00  0.00    +0.000 A 
ATOM      5  C   UNL     1      47.357   8.056  13.018  0.00  0.00    +0.000 A 
ATOM      6  N   UNL     1      46.002   8.021  13.268  0.00  0.00    +0.000 N 
ATOM      7  N   UNL     1      48.128   7.461  13.951  0.00  0.00    +0.000 NA
ATOM      8  C   UNL     1      49.479   7.533  13.812  0.00  0.00    +0.000 A 
ATOM      9  H   UNL     1      45.856   7.390  14.051  0.00  0.00    +0.000 HD
BRANCH   2  11
ATOM     10  N   UNL     1      52.190   7.870  11.561  0.00  0.00    +0.000 N 
ATOM     11  C   UNL     1      51.586   8.245  12.728  0.00  0.00    +0.000 C 
ATOM     12  O   UNL     1      52.244   8.634  13.684  0.00  0.00    +0.000 OA
ATOM     13  H   UNL     1      53.192   8.003  11.509  0.00  0.00    +0.000 HD
ATOM     14  H   UNL     1      51.687   7.800  10.687  0.00  0.00    +0.000 HD
ENDBRANCH   2  11
ENDBRANCH   1   6
BRANCH   1  15
ATOM     15  C   UNL     1      44.583   6.498  11.959  0.00  0.00    +0.000 A 
ATOM     16  C   UNL     1      43.637   5.891  12.787  0.00  0.00    +0.000 A 
ATOM     17  C   UNL     1      43.248   4.574  12.552  0.00  0.00    +0.000 A 
ATOM     18  C   UNL     1      43.791   3.841  11.486  0.00  0.00    +0.000 A 
ATOM     19 CL   UNL     1      43.283   2.185  11.397  0.00  0.00    +0.000 Cl
ATOM     20  C   UNL     1      44.721   4.426  10.598  0.00  0.00    +0.000 A 
ATOM     21  C   UNL     1      45.098   5.767  10.872  0.00  0.00    +0.000 A 
BRANCH  20  22
ATOM     22  C   UNL     1      45.293   3.729   9.415  0.00  0.00    +0.000 A 
ATOM     23  C   UNL     1      45.385   2.337   9.325  0.00  0.00    +0.000 A 
ATOM     24  C   UNL     1      45.966   1.751   8.199  0.00  0.00    +0.000 A 
ATOM     25  C   UNL     1      46.422   2.561   7.171  0.00  0.00    +0.000 A 
ATOM     26  C   UNL     1      46.299   3.928   7.324  0.00  0.00    +0.000 A 
ATOM     27  N   UNL     1      45.777   4.516   8.424  0.00  0.00    +0.000 NA
ENDBRANCH  20  22
ENDBRANCH   1  15
TORSDOF 4
ENDMDL
MODEL 9
REMARK VINA RESULT:    -6.453      4.106      6.348
REMARK INTER + INTRA:          -8.846
REMARK INTER:                  -8.113
REMARK INTRA:                  -0.733
REMARK UNBOUND:                -0.884
REMARK  Name = 
REMARK  4 active torsions:
REMARK  status: ('A' for Active; 'I' for Inactive)
REMARK    1  A    between atoms: C_2  and  C_4
REMARK    2  A    between atoms: N_8  and  C_9
REMARK    3  A    between atoms: C_9  and  C_10
REMARK    4  A    between atoms: C_15  and  C_16
REMARK                            x       y       z     vdW  Elec       q    Type
REMARK                         _______ _______ _______ _____ _____    ______ ____
ROOT
ATOM      1  C   UNL     1      47.977   8.343  13.818  0.00  0.00    +0.000 C 
ENDROOT
BRANCH   1   6
ATOM      2  C   UNL     1      44.597   5.400  11.316  0.00  0.00    +0.000 A 
ATOM      3  C   UNL     1      45.740   5.017  12.009  0.00  0.00    +0.000 A 
ATOM      4  C   UNL     1      46.428   5.964  12.769  0.00  0.00    +0.000 A 
ATOM      5  C   UNL     1      45.978   7.279  12.806  0.00  0.00    +0.000 A 
ATOM      6  N   UNL     1      46.546   8.255  13.598  0.00  0.00    +0.000 N 
ATOM      7  N   UNL     1      44.877   7.662  12.127  0.00  0.00    +0.000 NA
ATOM      8  C   UNL     1      44.215   6.727  11.394  0.00  0.00    +0.000 A 
ATOM      9  H   UNL     1      46.089   9.133  13.369  0.00  0.00    +0.000 HD
BRANCH   2  11
ATOM     10  N   UNL     1      43.971   4.468   9.160  0.00  0.00    +0.000 N 
ATOM     11  C   UNL     1      43.795   4.453  10.515  0.00  0.00    +0.000 C 
ATOM     12  O   UNL     1      43.024   3.662  11.044  0.00  0.00    +0.000 OA
ATOM     13  H   UNL     1      43.492   3.747   8.636  0.00  0.00    +0.000 HD
ATOM     14  H   UNL     1      44.769   4.906   8.721  0.00  0.00    +0.000 HD
ENDBRANCH   2  11
ENDBRANCH   1   6
BRANCH   1  15
ATOM     15  C   UNL     1      48.363   7.953  15.226  0.00  0.00    +0.000 A 
ATOM     16  C   UNL     1      48.248   8.869  16.272  0.00  0.00    +0.000 A 
ATOM     17  C   UNL     1      48.611   8.501  17.565  0.00  0.00    +0.000 A 
ATOM     18  C   UNL     1      49.090   7.211  17.839  0.00  0.00    +0.000 A 
ATOM     19 CL   UNL     1      49.600   6.947  19.477  0.00  0.00    +0.000 Cl
ATOM     20  C   UNL     1      49.186   6.236  16.821  0.00  0.00    +0.000 A 
ATOM     21  C   UNL     1      48.813   6.650  15.516  0.00  0.00    +0.000 A 
BRANCH  20  22
ATOM     22  C   UNL     1      49.630   4.836  17.049  0.00  0.00    +0.000 A 
ATOM     23  C   UNL     1      50.917   4.508  17.484  0.00  0.00    +0.000 A 
ATOM     24  C   UNL     1      51.277   3.169  17.644  0.00  0.00    +0.000 A 
ATOM     25  C   UNL     1      50.338   2.180  17.393  0.00  0.00    +0.000 A 
ATOM     26  C   UNL     1      49.085   2.573  16.968  0.00  0.00    +0.000 A 
ATOM     27  N   UNL     1      48.731   3.862  16.767  0.00  0.00    +0.000 NA
ENDBRANCH  20  22
ENDBRANCH   1  15
TORSDOF 4
ENDMDL
