MODEL 1
REMARK VINA RESULT:    -9.456      0.000      0.000
REMARK INTER + INTRA:         -13.736
REMARK INTER:                 -12.773
REMARK INTRA:                  -0.963
REMARK UNBOUND:                -0.963
REMARK  Name = 
REMARK  6 active torsions:
REMARK  status: ('A' for Active; 'I' for Inactive)
REMARK    1  A    between atoms: C_2  and  C_4
REMARK    2  A    between atoms: C_7  and  N_8
REMARK    3  A    between atoms: N_8  and  C_9
REMARK    4  A    between atoms: C_9  and  C_10
REMARK    5  A    between atoms: C_10  and  C_13
REMARK    6  A    between atoms: C_15  and  C_16
REMARK                            x       y       z     vdW  Elec       q    Type
REMARK                         _______ _______ _______ _____ _____    ______ ____
ROOT
ATOM      1  C   UNL     1      43.374   5.052  12.514  0.00  0.00    +0.000 C 
ATOM      2  F   UNL     1      42.796   6.256  12.215  0.00  0.00    +0.000 F 
ATOM      3  F   UNL     1      42.647   4.566  13.572  0.00  0.00    +0.000 F 
ENDROOT
BRANCH   1   4
ATOM      4  C   UNL     1      44.846   5.209  12.871  0.00  0.00    +0.000 A 
ATOM      5  C   UNL     1      45.547   6.312  12.375  0.00  0.00    +0.000 A 
ATOM      6  C   UNL     1      46.893   6.509  12.719  0.00  0.00    +0.000 A 
ATOM      7  C   UNL     1      47.485   5.543  13.543  0.00  0.00    +0.000 A 
ATOM      8  C   UNL     1      46.736   4.467  13.984  0.00  0.00    +0.000 A 
ATOM      9  N   UNL     1      45.440   4.285  13.674  0.00  0.00    +0.000 NA
BRANCH   6  10
ATOM     10  C   UNL     1      47.648   7.699  12.257  0.00  0.00    +0.000 A 
ATOM     11  C   UNL     1      47.046   8.971  12.205  0.00  0.00    +0.000 A 
ATOM     12  C   UNL     1      47.758  10.104  11.796  0.00  0.00    +0.000 A 
ATOM     13  C   UNL     1      49.099   9.993  11.443  0.00  0.00    +0.000 A 
ATOM     14  C   UNL     1      49.716   8.748  11.489  0.00  0.00    +0.000 A 
ATOM     15 CL   UNL     1      51.380   8.605  11.073  0.00  0.00    +0.000 Cl
ATOM     16  C   UNL     1      49.001   7.612  11.879  0.00  0.00    +0.000 A 
ENDBRANCH   6  10
ENDBRANCH   1   4
BRANCH   1  17
ATOM     17  C   UNL     1      43.187   4.086  11.322  0.00  0.00    +0.000 C 
BRANCH  17  18
ATOM     18  N   UNL     1      43.692   4.611  10.040  0.00  0.00    +0.000 N 
ATOM     19  H   UNL     1      42.978   5.032   9.448  0.00  0.00    +0.000 HD
BRANCH  18  23
ATOM     20  C   UNL     1      46.438   2.333   7.792  0.00  0.00    +0.000 A 
ATOM     21  C   UNL     1      46.414   3.719   7.640  0.00  0.00    +0.000 A 
ATOM     22  C   UNL     1      45.521   4.491   8.392  0.00  0.00    +0.000 A 
ATOM     23  C   UNL     1      44.660   3.903   9.329  0.00  0.00    +0.000 A 
ATOM     24  C   UNL     1      44.684   2.508   9.452  0.00  0.00    +0.000 A 
ATOM     25  C   UNL     1      45.557   1.725   8.690  0.00  0.00    +0.000 A 
BRANCH  20  27
ATOM     26  N   UNL     1      48.487   2.064   6.509  0.00  0.00    +0.000 N 
ATOM     27  C   UNL     1      47.350   1.477   6.994  0.00  0.00    +0.000 C 
ATOM     28  O   UNL     1      47.123   0.288   6.804  0.00  0.00    +0.000 OA
ATOM     29  H   UNL     1      49.154   1.444   6.066  0.00  0.00    +0.000 HD
ATOM     30  H   UNL     1      48.826   2.947   6.856  0.00  0.00    +0.000 HD
ENDBRANCH  20  27
ENDBRANCH  18  23
ENDBRANCH  17  18
ENDBRANCH   1  17
TORSDOF 6
ENDMDL
MODEL 2
REMARK VINA RESULT:    -9.352      1.022      1.378
REMARK INTER + INTRA:         -13.595
REMARK INTER:                 -12.554
REMARK INTRA:                  -1.042
REMARK UNBOUND:                -0.963
REMARK  Name = 
REMARK  6 active torsions:
REMARK  status: ('A' for Active; 'I' for Inactive)
REMARK    1  A    between atoms: C_2  and  C_4
REMARK    2  A    between atoms: C_7  and  N_8
REMARK    3  A    between atoms: N_8  and  C_9
REMARK    4  A    between atoms: C_9  and  C_10
REMARK    5  A    between atoms: C_10  and  C_13
REMARK    6  A    between atoms: C_15  and  C_16
REMARK                            x       y       z     vdW  Elec       q    Type
REMARK                         _______ _______ _______ _____ _____    ______ ____
ROOT
ATOM      1  C   UNL     1      43.470   5.007  12.528  0.00  0.00    +0.000 C 
ATOM      2  F   UNL     1      42.939   6.193  12.101  0.00  0.00    +0.000 F 
ATOM      3  F   UNL     1      42.702   4.645  13.607  0.00  0.00    +0.000 F 
ENDROOT
BRANCH   1   4
ATOM      4  C   UNL     1      44.938   5.153  12.909  0.00  0.00    +0.000 A 
ATOM      5  C   UNL     1      45.653   6.255  12.431  0.00  0.00    +0.000 A 
ATOM      6  C   UNL     1      46.994   6.443  12.797  0.00  0.00    +0.000 A 
ATOM      7  C   UNL     1      47.567   5.468  13.625  0.00  0.00    +0.000 A 
ATOM      8  C   UNL     1      46.805   4.394  14.047  0.00  0.00    +0.000 A 
ATOM      9  N   UNL     1      45.513   4.221  13.716  0.00  0.00    +0.000 NA
BRANCH   6  10
ATOM     10  C   UNL     1      47.763   7.630  12.354  0.00  0.00    +0.000 A 
ATOM     11  C   UNL     1      49.127   7.534  12.018  0.00  0.00    +0.000 A 
ATOM     12  C   UNL     1      49.854   8.642  11.572  0.00  0.00    +0.000 A 
ATOM     13  C   UNL     1      49.227   9.876  11.437  0.00  0.00    +0.000 A 
ATOM     14  C   UNL     1      47.880   9.997  11.761  0.00  0.00    +0.000 A 
ATOM     15 CL   UNL     1      47.091  11.516  11.577  0.00  0.00    +0.000 Cl
ATOM     16  C   UNL     1      47.157   8.894  12.223  0.00  0.00    +0.000 A 
ENDBRANCH   6  10
ENDBRANCH   1   4
BRANCH   1  17
ATOM     17  C   UNL     1      43.281   3.937  11.428  0.00  0.00    +0.000 C 
BRANCH  17  18
ATOM     18  N   UNL     1      43.573   4.421  10.066  0.00  0.00    +0.000 N 
ATOM     19  H   UNL     1      42.746   4.647   9.514  0.00  0.00    +0.000 HD
BRANCH  18  23
ATOM     20  C   UNL     1      46.501   2.510   7.708  0.00  0.00    +0.000 A 
ATOM     21  C   UNL     1      46.370   3.898   7.643  0.00  0.00    +0.000 A 
ATOM     22  C   UNL     1      45.415   4.548   8.433  0.00  0.00    +0.000 A 
ATOM     23  C   UNL     1      44.597   3.837   9.322  0.00  0.00    +0.000 A 
ATOM     24  C   UNL     1      44.729   2.443   9.357  0.00  0.00    +0.000 A 
ATOM     25  C   UNL     1      45.665   1.780   8.557  0.00  0.00    +0.000 A 
BRANCH  20  27
ATOM     26  N   UNL     1      48.622   2.451   6.518  0.00  0.00    +0.000 N 
ATOM     27  C   UNL     1      47.482   1.780   6.868  0.00  0.00    +0.000 C 
ATOM     28  O   UNL     1      47.306   0.616   6.529  0.00  0.00    +0.000 OA
ATOM     29  H   UNL     1      49.331   1.907   6.043  0.00  0.00    +0.000 HD
ATOM     30  H   UNL     1      48.911   3.296   6.983  0.00  0.00    +0.000 HD
ENDBRANCH  20  27
ENDBRANCH  18  23
ENDBRANCH  17  18
ENDBRANCH   1  17
TORSDOF 6
ENDMDL
MODEL 3
REMARK VINA RESULT:    -9.195      2.439      3.541
REMARK INTER + INTRA:         -13.383
REMARK INTER:                 -12.276
REMARK INTRA:                  -1.107
REMARK UNBOUND:                -0.963
REMARK  Name = 
REMARK  6 active torsions:
REMARK  status: ('A' for Active; 'I' for Inactive)
REMARK    1  A    between atoms: C_2  and  C_4
REMARK    2  A    between atoms: C_7  and  N_8
REMARK    3  A    between atoms: N_8  and  C_9
REMARK    4  A    between atoms: C_9  and  C_10
REMARK    5  A    between atoms: C_10  and  C_13
REMARK    6  A    between atoms: C_15  and  C_16
REMARK                            x       y       z     vdW  Elec       q    Type
REMARK                         _______ _______ _______ _____ _____    ______ ____
ROOT
ATOM      1  C   UNL     1      43.438   5.644  12.013  0.00  0.00    +0.000 C 
ATOM      2  F   UNL     1      42.734   6.706  11.516  0.00  0.00    +0.000 F 
ATOM      3  F   UNL     1      42.841   5.357  13.216  0.00  0.00    +0.000 F 
ENDROOT
BRANCH   1   4
ATOM      4  C   UNL     1      44.914   5.979  12.186  0.00  0.00    +0.000 A 
ATOM      5  C   UNL     1      45.543   5.657  13.392  0.00  0.00    +0.000 A 
ATOM      6  C   UNL     1      46.911   5.912  13.568  0.00  0.00    +0.000 A 
ATOM      7  C   UNL     1      47.584   6.522  12.501  0.00  0.00    +0.000 A 
ATOM      8  C   UNL     1      46.895   6.829  11.342  0.00  0.00    +0.000 A 
ATOM      9  N   UNL     1      45.589   6.566  11.161  0.00  0.00    +0.000 NA
BRANCH   6  10
ATOM     10  C   UNL     1      47.620   5.531  14.813  0.00  0.00    +0.000 A 
ATOM     11  C   UNL     1      48.667   6.320  15.329  0.00  0.00    +0.000 A 
ATOM     12  C   UNL     1      49.323   5.984  16.517  0.00  0.00    +0.000 A 
ATOM     13  C   UNL     1      48.937   4.853  17.229  0.00  0.00    +0.000 A 
ATOM     14  C   UNL     1      47.905   4.059  16.741  0.00  0.00    +0.000 A 
ATOM     15 CL   UNL     1      47.406   2.669  17.627  0.00  0.00    +0.000 Cl
ATOM     16  C   UNL     1      47.260   4.384  15.545  0.00  0.00    +0.000 A 
ENDBRANCH   6  10
ENDBRANCH   1   4
BRANCH   1  17
ATOM     17  C   UNL     1      43.247   4.424  11.083  0.00  0.00    +0.000 C 
BRANCH  17  18
ATOM     18  N   UNL     1      43.614   4.679   9.678  0.00  0.00    +0.000 N 
ATOM     19  H   UNL     1      42.823   4.876   9.066  0.00  0.00    +0.000 HD
BRANCH  18  23
ATOM     20  C   UNL     1      46.462   2.254   7.730  0.00  0.00    +0.000 A 
ATOM     21  C   UNL     1      46.488   3.635   7.529  0.00  0.00    +0.000 A 
ATOM     22  C   UNL     1      45.561   4.454   8.183  0.00  0.00    +0.000 A 
ATOM     23  C   UNL     1      44.614   3.922   9.069  0.00  0.00    +0.000 A 
ATOM     24  C   UNL     1      44.590   2.533   9.240  0.00  0.00    +0.000 A 
ATOM     25  C   UNL     1      45.499   1.702   8.576  0.00  0.00    +0.000 A 
BRANCH  20  27
ATOM     26  N   UNL     1      48.478   1.929   6.406  0.00  0.00    +0.000 N 
ATOM     27  C   UNL     1      47.410   1.348   7.035  0.00  0.00    +0.000 C 
ATOM     28  O   UNL     1      47.272   0.131   7.051  0.00  0.00    +0.000 OA
ATOM     29  H   UNL     1      49.174   1.296   6.035  0.00  0.00    +0.000 HD
ATOM     30  H   UNL     1      48.756   2.880   6.589  0.00  0.00    +0.000 HD
ENDBRANCH  20  27
ENDBRANCH  18  23
ENDBRANCH  17  18
ENDBRANCH   1  17
TORSDOF 6
ENDMDL
MODEL 4
REMARK VINA RESULT:    -8.857      2.392      3.830
REMARK INTER + INTRA:         -12.926
REMARK INTER:                 -11.955
REMARK INTRA:                  -0.970
REMARK UNBOUND:                -0.963
REMARK  Name = 
REMARK  6 active torsions:
REMARK  status: ('A' for Active; 'I' for Inactive)
REMARK    1  A    between atoms: C_2  and  C_4
REMARK    2  A    between atoms: C_7  and  N_8
REMARK    3  A    between atoms: N_8  and  C_9
REMARK    4  A    between atoms: C_9  and  C_10
REMARK    5  A    between atoms: C_10  and  C_13
REMARK    6  A    between atoms: C_15  and  C_16
REMARK                            x       y       z     vdW  Elec       q    Type
REMARK                         _______ _______ _______ _____ _____    ______ ____
ROOT
ATOM      1  C   UNL     1      43.775   4.643  12.446  0.00  0.00    +0.000 C 
ATOM      2  F   UNL     1      42.823   5.232  13.232  0.00  0.00    +0.000 F 
ATOM      3  F   UNL     1      43.653   3.298  12.693  0.00  0.00    +0.000 F 
ENDROOT
BRANCH   1   4
ATOM      4  C   UNL     1      45.172   5.150  12.780  0.00  0.00    +0.000 A 
ATOM      5  C   UNL     1      45.768   4.746  13.978  0.00  0.00    +0.000 A 
ATOM      6  C   UNL     1      47.071   5.160  14.296  0.00  0.00    +0.000 A 
ATOM      7  C   UNL     1      47.709   6.005  13.379  0.00  0.00    +0.000 A 
ATOM      8  C   UNL     1      47.053   6.378  12.220  0.00  0.00    +0.000 A 
ATOM      9  N   UNL     1      45.813   5.967  11.901  0.00  0.00    +0.000 NA
BRANCH   6  10
ATOM     10  C   UNL     1      47.752   4.703  15.531  0.00  0.00    +0.000 A 
ATOM     11  C   UNL     1      47.661   3.366  15.965  0.00  0.00    +0.000 A 
ATOM     12  C   UNL     1      48.323   2.919  17.113  0.00  0.00    +0.000 A 
ATOM     13  C   UNL     1      49.108   3.799  17.850  0.00  0.00    +0.000 A 
ATOM     14  C   UNL     1      49.216   5.124  17.441  0.00  0.00    +0.000 A 
ATOM     15 CL   UNL     1      50.202   6.215  18.336  0.00  0.00    +0.000 Cl
ATOM     16  C   UNL     1      48.540   5.576  16.305  0.00  0.00    +0.000 A 
ENDBRANCH   6  10
ENDBRANCH   1   4
BRANCH   1  17
ATOM     17  C   UNL     1      43.433   4.888  10.959  0.00  0.00    +0.000 C 
BRANCH  17  18
ATOM     18  N   UNL     1      43.441   3.665  10.133  0.00  0.00    +0.000 N 
ATOM     19  H   UNL     1      43.063   2.841  10.599  0.00  0.00    +0.000 HD
BRANCH  18  23
ATOM     20  C   UNL     1      46.590   2.676   7.507  0.00  0.00    +0.000 A 
ATOM     21  C   UNL     1      46.215   4.012   7.653  0.00  0.00    +0.000 A 
ATOM     22  C   UNL     1      45.184   4.358   8.535  0.00  0.00    +0.000 A 
ATOM     23  C   UNL     1      44.530   3.389   9.307  0.00  0.00    +0.000 A 
ATOM     24  C   UNL     1      44.905   2.051   9.131  0.00  0.00    +0.000 A 
ATOM     25  C   UNL     1      45.920   1.692   8.238  0.00  0.00    +0.000 A 
BRANCH  20  27
ATOM     26  N   UNL     1      47.794   3.002   5.419  0.00  0.00    +0.000 N 
ATOM     27  C   UNL     1      47.659   2.265   6.564  0.00  0.00    +0.000 C 
ATOM     28  O   UNL     1      48.415   1.333   6.809  0.00  0.00    +0.000 OA
ATOM     29  H   UNL     1      48.596   2.783   4.841  0.00  0.00    +0.000 HD
ATOM     30  H   UNL     1      47.371   3.909   5.312  0.00  0.00    +0.000 HD
ENDBRANCH  20  27
ENDBRANCH  18  23
ENDBRANCH  17  18
ENDBRANCH   1  17
TORSDOF 6
ENDMDL
MODEL 5
REMARK VINA RESULT:    -8.852      1.661      2.180
REMARK INTER + INTRA:         -12.919
REMARK INTER:                 -11.673
REMARK INTRA:                  -1.246
REMARK UNBOUND:                -0.963
REMARK  Name = 
REMARK  6 active torsions:
REMARK  status: ('A' for Active; 'I' for Inactive)
REMARK    1  A    between atoms: C_2  and  C_4
REMARK    2  A    between atoms: C_7  and  N_8
REMARK    3  A    between atoms: N_8  and  C_9
REMARK    4  A    between atoms: C_9  and  C_10
REMARK    5  A    between atoms: C_10  and  C_13
REMARK    6  A    between atoms: C_15  and  C_16
REMARK                            x       y       z     vdW  Elec       q    Type
REMARK                         _______ _______ _______ _____ _____    ______ ____
ROOT
ATOM      1  C   UNL     1      44.320   3.846  12.475  0.00  0.00    +0.000 C 
ATOM      2  F   UNL     1      43.641   3.690  13.652  0.00  0.00    +0.000 F 
ATOM      3  F   UNL     1      45.390   2.990  12.569  0.00  0.00    +0.000 F 
ENDROOT
BRANCH   1   4
ATOM      4  C   UNL     1      44.772   5.287  12.273  0.00  0.00    +0.000 A 
ATOM      5  C   UNL     1      46.106   5.618  12.525  0.00  0.00    +0.000 A 
ATOM      6  C   UNL     1      46.565   6.926  12.307  0.00  0.00    +0.000 A 
ATOM      7  C   UNL     1      45.622   7.862  11.864  0.00  0.00    +0.000 A 
ATOM      8  C   UNL     1      44.314   7.469  11.652  0.00  0.00    +0.000 A 
ATOM      9  N   UNL     1      43.874   6.212  11.837  0.00  0.00    +0.000 NA
BRANCH   6  10
ATOM     10  C   UNL     1      47.986   7.295  12.510  0.00  0.00    +0.000 A 
ATOM     11  C   UNL     1      48.758   7.835  11.462  0.00  0.00    +0.000 A 
ATOM     12  C   UNL     1      50.091   8.213  11.650  0.00  0.00    +0.000 A 
ATOM     13  C   UNL     1      50.683   8.073  12.901  0.00  0.00    +0.000 A 
ATOM     14  C   UNL     1      49.942   7.545  13.952  0.00  0.00    +0.000 A 
ATOM     15 CL   UNL     1      50.661   7.387  15.508  0.00  0.00    +0.000 Cl
ATOM     16  C   UNL     1      48.615   7.150  13.761  0.00  0.00    +0.000 A 
ENDBRANCH   6  10
ENDBRANCH   1   4
BRANCH   1  17
ATOM     17  C   UNL     1      43.430   3.370  11.304  0.00  0.00    +0.000 C 
BRANCH  17  18
ATOM     18  N   UNL     1      43.696   4.062  10.029  0.00  0.00    +0.000 N 
ATOM     19  H   UNL     1      42.860   4.322   9.509  0.00  0.00    +0.000 HD
BRANCH  18  23
ATOM     20  C   UNL     1      46.726   2.659   7.452  0.00  0.00    +0.000 A 
ATOM     21  C   UNL     1      46.475   4.029   7.531  0.00  0.00    +0.000 A 
ATOM     22  C   UNL     1      45.486   4.511   8.395  0.00  0.00    +0.000 A 
ATOM     23  C   UNL     1      44.750   3.646   9.217  0.00  0.00    +0.000 A 
ATOM     24  C   UNL     1      45.001   2.273   9.108  0.00  0.00    +0.000 A 
ATOM     25  C   UNL     1      45.974   1.778   8.233  0.00  0.00    +0.000 A 
BRANCH  20  27
ATOM     26  N   UNL     1      48.060   2.852   5.427  0.00  0.00    +0.000 N 
ATOM     27  C   UNL     1      47.747   2.104   6.529  0.00  0.00    +0.000 C 
ATOM     28  O   UNL     1      48.317   1.044   6.756  0.00  0.00    +0.000 OA
ATOM     29  H   UNL     1      48.835   2.519   4.869  0.00  0.00    +0.000 HD
ATOM     30  H   UNL     1      47.807   3.824   5.348  0.00  0.00    +0.000 HD
ENDBRANCH  20  27
ENDBRANCH  18  23
ENDBRANCH  17  18
ENDBRANCH   1  17
TORSDOF 6
ENDMDL
MODEL 6
REMARK VINA RESULT:    -8.780      1.359      2.203
REMARK INTER + INTRA:         -12.822
REMARK INTER:                 -11.527
REMARK INTRA:                  -1.295
REMARK UNBOUND:                -0.963
REMARK  Name = 
REMARK  6 active torsions:
REMARK  status: ('A' for Active; 'I' for Inactive)
REMARK    1  A    between atoms: C_2  and  C_4
REMARK    2  A    between atoms: C_7  and  N_8
REMARK    3  A    between atoms: N_8  and  C_9
REMARK    4  A    between atoms: C_9  and  C_10
REMARK    5  A    between atoms: C_10  and  C_13
REMARK    6  A    between atoms: C_15  and  C_16
REMARK                            x       y       z     vdW  Elec       q    Type
REMARK                         _______ _______ _______ _____ _____    ______ ____
ROOT
ATOM      1  C   UNL     1      44.534   4.724  12.339  0.00  0.00    +0.000 C 
ATOM      2  F   UNL     1      44.065   4.516  13.608  0.00  0.00    +0.000 F 
ATOM      3  F   UNL     1      45.516   3.779  12.167  0.00  0.00    +0.000 F 
ENDROOT
BRANCH   1   4
ATOM      4  C   UNL     1      45.078   6.136  12.165  0.00  0.00    +0.000 A 
ATOM      5  C   UNL     1      46.428   6.378  12.435  0.00  0.00    +0.000 A 
ATOM      6  C   UNL     1      46.970   7.657  12.243  0.00  0.00    +0.000 A 
ATOM      7  C   UNL     1      46.094   8.658  11.805  0.00  0.00    +0.000 A 
ATOM      8  C   UNL     1      44.765   8.352  11.573  0.00  0.00    +0.000 A 
ATOM      9  N   UNL     1      44.245   7.122  11.735  0.00  0.00    +0.000 NA
BRANCH   6  10
ATOM     10  C   UNL     1      48.410   7.933  12.465  0.00  0.00    +0.000 A 
ATOM     11  C   UNL     1      48.881   8.402  13.707  0.00  0.00    +0.000 A 
ATOM     12  C   UNL     1      50.240   8.639  13.936  0.00  0.00    +0.000 A 
ATOM     13  C   UNL     1      51.167   8.396  12.928  0.00  0.00    +0.000 A 
ATOM     14  C   UNL     1      50.727   7.930  11.694  0.00  0.00    +0.000 A 
ATOM     15 CL   UNL     1      51.870   7.608  10.447  0.00  0.00    +0.000 Cl
ATOM     16  C   UNL     1      49.368   7.711  11.458  0.00  0.00    +0.000 A 
ENDBRANCH   6  10
ENDBRANCH   1   4
BRANCH   1  17
ATOM     17  C   UNL     1      43.406   4.429  11.324  0.00  0.00    +0.000 C 
BRANCH  17  18
ATOM     18  N   UNL     1      43.752   4.767   9.930  0.00  0.00    +0.000 N 
ATOM     19  H   UNL     1      42.993   5.192   9.400  0.00  0.00    +0.000 HD
BRANCH  18  23
ATOM     20  C   UNL     1      46.335   2.249   7.746  0.00  0.00    +0.000 A 
ATOM     21  C   UNL     1      45.396   1.682   8.608  0.00  0.00    +0.000 A 
ATOM     22  C   UNL     1      44.520   2.505   9.326  0.00  0.00    +0.000 A 
ATOM     23  C   UNL     1      44.540   3.898   9.177  0.00  0.00    +0.000 A 
ATOM     24  C   UNL     1      45.503   4.449   8.323  0.00  0.00    +0.000 A 
ATOM     25  C   UNL     1      46.398   3.638   7.616  0.00  0.00    +0.000 A 
BRANCH  20  27
ATOM     26  N   UNL     1      48.427   2.036   6.523  0.00  0.00    +0.000 N 
ATOM     27  C   UNL     1      47.300   1.415   6.987  0.00  0.00    +0.000 C 
ATOM     28  O   UNL     1      47.122   0.216   6.812  0.00  0.00    +0.000 OA
ATOM     29  H   UNL     1      49.128   1.435   6.108  0.00  0.00    +0.000 HD
ATOM     30  H   UNL     1      48.723   2.936   6.863  0.00  0.00    +0.000 HD
ENDBRANCH  20  27
ENDBRANCH  18  23
ENDBRANCH  17  18
ENDBRANCH   1  17
TORSDOF 6
ENDMDL
MODEL 7
REMARK VINA RESULT:    -8.110      3.712      7.062
REMARK INTER + INTRA:         -11.918
REMARK INTER:                 -11.144
REMARK INTRA:                  -0.773
REMARK UNBOUND:                -0.963
REMARK  Name = 
REMARK  6 active torsions:
REMARK  status: ('A' for Active; 'I' for Inactive)
REMARK    1  A    between atoms: C_2  and  C_4
REMARK    2  A    between atoms: C_7  and  N_8
REMARK    3  A    between atoms: N_8  and  C_9
REMARK    4  A    between atoms: C_9  and  C_10
REMARK    5  A    between atoms: C_10  and  C_13
REMARK    6  A    between atoms: C_15  and  C_16
REMARK                            x       y       z     vdW  Elec       q    Type
REMARK                         _______ _______ _______ _____ _____    ______ ____
ROOT
ATOM      1  C   UNL     1      45.234   7.045  11.818  0.00  0.00    +0.000 C 
ATOM      2  F   UNL     1      44.721   7.344  13.051  0.00  0.00    +0.000 F 
ATOM      3  F   UNL     1      44.857   8.092  11.015  0.00  0.00    +0.000 F 
ENDROOT
BRANCH   1   4
ATOM      4  C   UNL     1      44.700   5.717  11.295  0.00  0.00    +0.000 A 
ATOM      5  C   UNL     1      45.343   5.111  10.212  0.00  0.00    +0.000 A 
ATOM      6  C   UNL     1      44.904   3.868   9.733  0.00  0.00    +0.000 A 
ATOM      7  C   UNL     1      43.792   3.300  10.369  0.00  0.00    +0.000 A 
ATOM      8  C   UNL     1      43.195   3.964  11.425  0.00  0.00    +0.000 A 
ATOM      9  N   UNL     1      43.626   5.145  11.902  0.00  0.00    +0.000 NA
BRANCH   6  10
ATOM     10  C   UNL     1      45.599   3.172   8.623  0.00  0.00    +0.000 A 
ATOM     11  C   UNL     1      46.119   3.885   7.525  0.00  0.00    +0.000 A 
ATOM     12  C   UNL     1      46.800   3.241   6.487  0.00  0.00    +0.000 A 
ATOM     13  C   UNL     1      46.992   1.864   6.531  0.00  0.00    +0.000 A 
ATOM     14  C   UNL     1      46.491   1.138   7.606  0.00  0.00    +0.000 A 
ATOM     15 CL   UNL     1      46.742  -0.563   7.677  0.00  0.00    +0.000 Cl
ATOM     16  C   UNL     1      45.794   1.778   8.634  0.00  0.00    +0.000 A 
ENDBRANCH   6  10
ENDBRANCH   1   4
BRANCH   1  17
ATOM     17  C   UNL     1      46.778   7.035  11.896  0.00  0.00    +0.000 C 
BRANCH  17  18
ATOM     18  N   UNL     1      47.312   7.363  13.231  0.00  0.00    +0.000 N 
ATOM     19  H   UNL     1      48.065   8.050  13.225  0.00  0.00    +0.000 HD
BRANCH  18  23
ATOM     20  C   UNL     1      47.922   4.177  15.926  0.00  0.00    +0.000 A 
ATOM     21  C   UNL     1      48.507   5.416  16.189  0.00  0.00    +0.000 A 
ATOM     22  C   UNL     1      48.299   6.488  15.313  0.00  0.00    +0.000 A 
ATOM     23  C   UNL     1      47.483   6.357  14.181  0.00  0.00    +0.000 A 
ATOM     24  C   UNL     1      46.922   5.100  13.923  0.00  0.00    +0.000 A 
ATOM     25  C   UNL     1      47.140   4.016  14.780  0.00  0.00    +0.000 A 
BRANCH  20  27
ATOM     26  N   UNL     1      47.293   2.873  17.881  0.00  0.00    +0.000 N 
ATOM     27  C   UNL     1      48.139   3.008  16.814  0.00  0.00    +0.000 C 
ATOM     28  O   UNL     1      49.010   2.177  16.589  0.00  0.00    +0.000 OA
ATOM     29  H   UNL     1      47.379   2.015  18.411  0.00  0.00    +0.000 HD
ATOM     30  H   UNL     1      46.426   3.381  17.946  0.00  0.00    +0.000 HD
ENDBRANCH  20  27
ENDBRANCH  18  23
ENDBRANCH  17  18
ENDBRANCH   1  17
TORSDOF 6
ENDMDL
MODEL 8
REMARK VINA RESULT:    -7.846      2.207      2.789
REMARK INTER + INTRA:         -11.561
REMARK INTER:                 -10.754
REMARK INTRA:                  -0.807
REMARK UNBOUND:                -0.963
REMARK  Name = 
REMARK  6 active torsions:
REMARK  status: ('A' for Active; 'I' for Inactive)
REMARK    1  A    between atoms: C_2  and  C_4
REMARK    2  A    between atoms: C_7  and  N_8
REMARK    3  A    between atoms: N_8  and  C_9
REMARK    4  A    between atoms: C_9  and  C_10
REMARK    5  A    between atoms: C_10  and  C_13
REMARK    6  A    between atoms: C_15  and  C_16
REMARK                            x       y       z     vdW  Elec       q    Type
REMARK                         _______ _______ _______ _____ _____    ______ ____
ROOT
ATOM      1  C   UNL     1      45.376   6.383  11.527  0.00  0.00    +0.000 C 
ATOM      2  F   UNL     1      46.149   6.519  10.407  0.00  0.00    +0.000 F 
ATOM      3  F   UNL     1      44.783   7.609  11.699  0.00  0.00    +0.000 F 
ENDROOT
BRANCH   1   4
ATOM      4  C   UNL     1      46.209   5.988  12.740  0.00  0.00    +0.000 A 
ATOM      5  C   UNL     1      47.310   6.775  13.088  0.00  0.00    +0.000 A 
ATOM      6  C   UNL     1      48.073   6.465  14.224  0.00  0.00    +0.000 A 
ATOM      7  C   UNL     1      47.692   5.330  14.952  0.00  0.00    +0.000 A 
ATOM      8  C   UNL     1      46.601   4.587  14.541  0.00  0.00    +0.000 A 
ATOM      9  N   UNL     1      45.854   4.893  13.465  0.00  0.00    +0.000 NA
BRANCH   6  10
ATOM     10  C   UNL     1      49.212   7.312  14.652  0.00  0.00    +0.000 A 
ATOM     11  C   UNL     1      50.102   6.887  15.657  0.00  0.00    +0.000 A 
ATOM     12  C   UNL     1      51.196   7.666  16.048  0.00  0.00    +0.000 A 
ATOM     13  C   UNL     1      51.434   8.889  15.430  0.00  0.00    +0.000 A 
ATOM     14  C   UNL     1      50.571   9.330  14.433  0.00  0.00    +0.000 A 
ATOM     15 CL   UNL     1      50.870  10.833  13.649  0.00  0.00    +0.000 Cl
ATOM     16  C   UNL     1      49.468   8.561  14.054  0.00  0.00    +0.000 A 
ENDBRANCH   6  10
ENDBRANCH   1   4
BRANCH   1  17
ATOM     17  C   UNL     1      44.260   5.348  11.255  0.00  0.00    +0.000 C 
BRANCH  17  18
ATOM     18  N   UNL     1      44.018   5.092   9.822  0.00  0.00    +0.000 N 
ATOM     19  H   UNL     1      43.049   5.211   9.532  0.00  0.00    +0.000 HD
BRANCH  18  23
ATOM     20  C   UNL     1      46.189   1.991   7.962  0.00  0.00    +0.000 A 
ATOM     21  C   UNL     1      45.231   1.673   8.925  0.00  0.00    +0.000 A 
ATOM     22  C   UNL     1      44.490   2.689   9.538  0.00  0.00    +0.000 A 
ATOM     23  C   UNL     1      44.665   4.035   9.184  0.00  0.00    +0.000 A 
ATOM     24  C   UNL     1      45.646   4.336   8.231  0.00  0.00    +0.000 A 
ATOM     25  C   UNL     1      46.407   3.329   7.627  0.00  0.00    +0.000 A 
BRANCH  20  27
ATOM     26  N   UNL     1      46.743  -0.355   7.635  0.00  0.00    +0.000 N 
ATOM     27  C   UNL     1      47.014   0.946   7.308  0.00  0.00    +0.000 C 
ATOM     28  O   UNL     1      47.876   1.223   6.483  0.00  0.00    +0.000 OA
ATOM     29  H   UNL     1      47.233  -1.060   7.100  0.00  0.00    +0.000 HD
ATOM     30  H   UNL     1      45.891  -0.625   8.099  0.00  0.00    +0.000 HD
ENDBRANCH  20  27
ENDBRANCH  18  23
ENDBRANCH  17  18
ENDBRANCH   1  17
TORSDOF 6
ENDMDL
MODEL 9
REMARK VINA RESULT:    -7.658      3.871      7.044
REMARK INTER + INTRA:         -11.306
REMARK INTER:                 -10.144
REMARK INTRA:                  -1.163
REMARK UNBOUND:                -0.963
REMARK  Name = 
REMARK  6 active torsions:
REMARK  status: ('A' for Active; 'I' for Inactive)
REMARK    1  A    between atoms: C_2  and  C_4
REMARK    2  A    between atoms: C_7  and  N_8
REMARK    3  A    between atoms: N_8  and  C_9
REMARK    4  A    between atoms: C_9  and  C_10
REMARK    5  A    between atoms: C_10  and  C_13
REMARK    6  A    between atoms: C_15  and  C_16
REMARK                            x       y       z     vdW  Elec       q    Type
REMARK                         _______ _______ _______ _____ _____    ______ ____
ROOT
ATOM      1  C   UNL     1      44.436   6.856  11.487  0.00  0.00    +0.000 C 
ATOM      2  F   UNL     1      43.252   7.533  11.383  0.00  0.00    +0.000 F 
ATOM      3  F   UNL     1      45.277   7.478  10.596  0.00  0.00    +0.000 F 
ENDROOT
BRANCH   1   4
ATOM      4  C   UNL     1      44.270   5.378  11.161  0.00  0.00    +0.000 A 
ATOM      5  C   UNL     1      44.954   4.846  10.064  0.00  0.00    +0.000 A 
ATOM      6  C   UNL     1      44.857   3.480   9.763  0.00  0.00    +0.000 A 
ATOM      7  C   UNL     1      44.030   2.706  10.587  0.00  0.00    +0.000 A 
ATOM      8  C   UNL     1      43.369   3.301  11.646  0.00  0.00    +0.000 A 
ATOM      9  N   UNL     1      43.476   4.606  11.952  0.00  0.00    +0.000 NA
BRANCH   6  10
ATOM     10  C   UNL     1      45.614   2.875   8.641  0.00  0.00    +0.000 A 
ATOM     11  C   UNL     1      46.230   3.675   7.659  0.00  0.00    +0.000 A 
ATOM     12  C   UNL     1      46.971   3.116   6.613  0.00  0.00    +0.000 A 
ATOM     13  C   UNL     1      47.125   1.736   6.532  0.00  0.00    +0.000 A 
ATOM     14  C   UNL     1      46.529   0.924   7.490  0.00  0.00    +0.000 A 
ATOM     15 CL   UNL     1      46.733  -0.783   7.409  0.00  0.00    +0.000 Cl
ATOM     16  C   UNL     1      45.774   1.481   8.525  0.00  0.00    +0.000 A 
ENDBRANCH   6  10
ENDBRANCH   1   4
BRANCH   1  17
ATOM     17  C   UNL     1      45.015   7.055  12.906  0.00  0.00    +0.000 C 
BRANCH  17  18
ATOM     18  N   UNL     1      46.117   6.132  13.238  0.00  0.00    +0.000 N 
ATOM     19  H   UNL     1      45.899   5.464  13.975  0.00  0.00    +0.000 HD
BRANCH  18  23
ATOM     20  C   UNL     1      50.010   7.757  13.258  0.00  0.00    +0.000 A 
ATOM     21  C   UNL     1      49.421   7.378  14.465  0.00  0.00    +0.000 A 
ATOM     22  C   UNL     1      48.137   6.821  14.472  0.00  0.00    +0.000 A 
ATOM     23  C   UNL     1      47.430   6.602  13.282  0.00  0.00    +0.000 A 
ATOM     24  C   UNL     1      48.029   7.007  12.083  0.00  0.00    +0.000 A 
ATOM     25  C   UNL     1      49.303   7.585  12.066  0.00  0.00    +0.000 A 
BRANCH  20  27
ATOM     26  N   UNL     1      52.142   8.071  12.130  0.00  0.00    +0.000 N 
ATOM     27  C   UNL     1      51.357   8.376  13.209  0.00  0.00    +0.000 C 
ATOM     28  O   UNL     1      51.744   9.155  14.071  0.00  0.00    +0.000 OA
ATOM     29  H   UNL     1      53.010   8.585  12.051  0.00  0.00    +0.000 HD
ATOM     30  H   UNL     1      51.766   7.651  11.295  0.00  0.00    +0.000 HD
ENDBRANCH  20  27
ENDBRANCH  18  23
ENDBRANCH  17  18
ENDBRANCH   1  17
TORSDOF 6
ENDMDL
