MODEL 1
REMARK VINA RESULT:    -8.736      0.000      0.000
REMARK INTER + INTRA:         -12.827
REMARK INTER:                 -11.800
REMARK INTRA:                  -1.027
REMARK UNBOUND:                -1.027
REMARK  Name = 
REMARK  6 active torsions:
REMARK  status: ('A' for Active; 'I' for Inactive)
REMARK    1  A    between atoms: C_2  and  C_3
REMARK    2  A    between atoms: C_6  and  C_7
REMARK    3  A    between atoms: C_11  and  C_12
REMARK    4  A    between atoms: C_12  and  N_13
REMARK    5  A    between atoms: N_13  and  C_14
REMARK    6  A    between atoms: C_17  and  C_18
REMARK                            x       y       z     vdW  Elec       q    Type
REMARK                         _______ _______ _______ _____ _____    ______ ____
ROOT
ATOM      1  C   UNL     1      43.942   5.540  11.251  0.00  0.00    +0.000 C 
ATOM      2  C   UNL     1      43.385   6.953  11.213  0.00  0.00    +0.000 C 
ATOM      3  C   UNL     1      42.692   5.937  12.044  0.00  0.00    +0.000 C 
ATOM      4  F   UNL     1      41.473   5.460  11.590  0.00  0.00    +0.000 F 
ENDROOT
BRANCH   1   9
ATOM      5  C   UNL     1      47.413   5.906  12.891  0.00  0.00    +0.000 A 
ATOM      6  C   UNL     1      47.348   4.771  13.704  0.00  0.00    +0.000 A 
ATOM      7  N   UNL     1      46.332   3.880  13.716  0.00  0.00    +0.000 NA
ATOM      8  C   UNL     1      45.294   4.144  12.894  0.00  0.00    +0.000 A 
ATOM      9  C   UNL     1      45.187   5.268  12.079  0.00  0.00    +0.000 A 
ATOM     10  C   UNL     1      46.297   6.127  12.072  0.00  0.00    +0.000 A 
BRANCH   5  14
ATOM     11  C   UNL     1      50.852   8.515  12.893  0.00  0.00    +0.000 A 
ATOM     12  C   UNL     1      50.380   7.971  14.087  0.00  0.00    +0.000 A 
ATOM     13  C   UNL     1      49.264   7.127  14.082  0.00  0.00    +0.000 A 
ATOM     14  C   UNL     1      48.585   6.811  12.892  0.00  0.00    +0.000 A 
ATOM     15  C   UNL     1      49.072   7.383  11.701  0.00  0.00    +0.000 A 
ATOM     16  C   UNL     1      50.196   8.218  11.697  0.00  0.00    +0.000 A 
BRANCH  11  18
ATOM     17  N   UNL     1      52.933  10.060  12.893  0.00  0.00    +0.000 NA
ATOM     18  C   UNL     1      52.000   9.367  12.893  0.00  0.00    +0.000 C 
ENDBRANCH  11  18
ENDBRANCH   5  14
ENDBRANCH   1   9
BRANCH   1  19
ATOM     19  N   UNL     1      43.724   4.559  10.180  0.00  0.00    +0.000 N 
ATOM     20  H   UNL     1      42.760   4.413   9.893  0.00  0.00    +0.000 HD
BRANCH  19  21
ATOM     21  C   UNL     1      44.671   3.933   9.357  0.00  0.00    +0.000 A 
ATOM     22  C   UNL     1      45.561   4.595   8.509  0.00  0.00    +0.000 A 
ATOM     23  C   UNL     1      46.462   3.869   7.709  0.00  0.00    +0.000 A 
ATOM     24  C   UNL     1      46.503   2.470   7.767  0.00  0.00    +0.000 A 
ATOM     25  C   UNL     1      45.645   1.801   8.639  0.00  0.00    +0.000 A 
ATOM     26  C   UNL     1      44.749   2.530   9.424  0.00  0.00    +0.000 A 
BRANCH  24  27
ATOM     27  C   UNL     1      47.413   1.726   6.854  0.00  0.00    +0.000 C 
ATOM     28  N   UNL     1      48.505   2.392   6.366  0.00  0.00    +0.000 N 
ATOM     29  O   UNL     1      47.194   0.564   6.539  0.00  0.00    +0.000 OA
ATOM     30  H   UNL     1      48.623   3.391   6.435  0.00  0.00    +0.000 HD
ATOM     31  H   UNL     1      49.087   1.892   5.707  0.00  0.00    +0.000 HD
ENDBRANCH  24  27
ENDBRANCH  19  21
ENDBRANCH   1  19
TORSDOF 6
ENDMDL
MODEL 2
REMARK VINA RESULT:    -8.666      2.369      3.595
REMARK INTER + INTRA:         -12.734
REMARK INTER:                 -12.511
REMARK INTRA:                  -0.223
REMARK UNBOUND:                -1.027
REMARK  Name = 
REMARK  6 active torsions:
REMARK  status: ('A' for Active; 'I' for Inactive)
REMARK    1  A    between atoms: C_2  and  C_3
REMARK    2  A    between atoms: C_6  and  C_7
REMARK    3  A    between atoms: C_11  and  C_12
REMARK    4  A    between atoms: C_12  and  N_13
REMARK    5  A    between atoms: N_13  and  C_14
REMARK    6  A    between atoms: C_17  and  C_18
REMARK                            x       y       z     vdW  Elec       q    Type
REMARK                         _______ _______ _______ _____ _____    ______ ____
ROOT
ATOM      1  C   UNL     1      43.950   4.976  11.571  0.00  0.00    +0.000 C 
ATOM      2  C   UNL     1      42.721   5.162  12.443  0.00  0.00    +0.000 C 
ATOM      3  C   UNL     1      43.412   3.849  12.460  0.00  0.00    +0.000 C 
ATOM      4  F   UNL     1      42.787   2.786  11.829  0.00  0.00    +0.000 F 
ENDROOT
BRANCH   1   9
ATOM      5  C   UNL     1      47.082   5.843  13.648  0.00  0.00    +0.000 A 
ATOM      6  C   UNL     1      47.704   6.663  12.702  0.00  0.00    +0.000 A 
ATOM      7  N   UNL     1      47.177   7.008  11.506  0.00  0.00    +0.000 NA
ATOM      8  C   UNL     1      45.970   6.481  11.209  0.00  0.00    +0.000 A 
ATOM      9  C   UNL     1      45.263   5.597  12.020  0.00  0.00    +0.000 A 
ATOM     10  C   UNL     1      45.837   5.320  13.270  0.00  0.00    +0.000 A 
BRANCH   5  14
ATOM     11  C   UNL     1      48.847   5.014  17.499  0.00  0.00    +0.000 A 
ATOM     12  C   UNL     1      49.277   6.108  16.748  0.00  0.00    +0.000 A 
ATOM     13  C   UNL     1      48.703   6.372  15.500  0.00  0.00    +0.000 A 
ATOM     14  C   UNL     1      47.695   5.550  14.963  0.00  0.00    +0.000 A 
ATOM     15  C   UNL     1      47.288   4.445  15.735  0.00  0.00    +0.000 A 
ATOM     16  C   UNL     1      47.849   4.182  16.990  0.00  0.00    +0.000 A 
BRANCH  11  18
ATOM     17  N   UNL     1      49.890   4.537  19.824  0.00  0.00    +0.000 NA
ATOM     18  C   UNL     1      49.422   4.750  18.781  0.00  0.00    +0.000 C 
ENDBRANCH  11  18
ENDBRANCH   5  14
ENDBRANCH   1   9
BRANCH   1  19
ATOM     19  N   UNL     1      43.883   4.725  10.126  0.00  0.00    +0.000 N 
ATOM     20  H   UNL     1      43.248   5.315   9.596  0.00  0.00    +0.000 HD
BRANCH  19  21
ATOM     21  C   UNL     1      44.713   3.916   9.336  0.00  0.00    +0.000 A 
ATOM     22  C   UNL     1      44.767   2.522   9.394  0.00  0.00    +0.000 A 
ATOM     23  C   UNL     1      45.650   1.805   8.567  0.00  0.00    +0.000 A 
ATOM     24  C   UNL     1      46.473   2.472   7.650  0.00  0.00    +0.000 A 
ATOM     25  C   UNL     1      46.399   3.862   7.557  0.00  0.00    +0.000 A 
ATOM     26  C   UNL     1      45.524   4.566   8.388  0.00  0.00    +0.000 A 
BRANCH  24  27
ATOM     27  C   UNL     1      47.451   1.694   6.843  0.00  0.00    +0.000 C 
ATOM     28  N   UNL     1      48.560   2.351   6.385  0.00  0.00    +0.000 N 
ATOM     29  O   UNL     1      47.272   0.511   6.586  0.00  0.00    +0.000 OA
ATOM     30  H   UNL     1      48.657   3.356   6.400  0.00  0.00    +0.000 HD
ATOM     31  H   UNL     1      49.192   1.825   5.795  0.00  0.00    +0.000 HD
ENDBRANCH  24  27
ENDBRANCH  19  21
ENDBRANCH   1  19
TORSDOF 6
ENDMDL
MODEL 3
REMARK VINA RESULT:    -7.671      1.518      2.093
REMARK INTER + INTRA:         -11.389
REMARK INTER:                 -11.046
REMARK INTRA:                  -0.342
REMARK UNBOUND:                -1.027
REMARK  Name = 
REMARK  6 active torsions:
REMARK  status: ('A' for Active; 'I' for Inactive)
REMARK    1  A    between atoms: C_2  and  C_3
REMARK    2  A    between atoms: C_6  and  C_7
REMARK    3  A    between atoms: C_11  and  C_12
REMARK    4  A    between atoms: C_12  and  N_13
REMARK    5  A    between atoms: N_13  and  C_14
REMARK    6  A    between atoms: C_17  and  C_18
REMARK                            x       y       z     vdW  Elec       q    Type
REMARK                         _______ _______ _______ _____ _____    ______ ____
ROOT
ATOM      1  C   UNL     1      43.893   5.064  11.718  0.00  0.00    +0.000 C 
ATOM      2  C   UNL     1      43.017   4.691  12.901  0.00  0.00    +0.000 C 
ATOM      3  C   UNL     1      44.352   4.056  12.777  0.00  0.00    +0.000 C 
ATOM      4  F   UNL     1      44.396   2.721  12.407  0.00  0.00    +0.000 F 
ENDROOT
BRANCH   1   9
ATOM      5  C   UNL     1      46.615   7.770  12.097  0.00  0.00    +0.000 A 
ATOM      6  C   UNL     1      45.868   8.846  11.611  0.00  0.00    +0.000 A 
ATOM      7  N   UNL     1      44.568   8.788  11.245  0.00  0.00    +0.000 NA
ATOM      8  C   UNL     1      43.974   7.578  11.334  0.00  0.00    +0.000 A 
ATOM      9  C   UNL     1      44.608   6.405  11.734  0.00  0.00    +0.000 A 
ATOM     10  C   UNL     1      45.941   6.541  12.151  0.00  0.00    +0.000 A 
BRANCH   5  14
ATOM     11  C   UNL     1      50.724   8.167  13.358  0.00  0.00    +0.000 A 
ATOM     12  C   UNL     1      49.749   7.740  14.259  0.00  0.00    +0.000 A 
ATOM     13  C   UNL     1      48.418   7.614  13.846  0.00  0.00    +0.000 A 
ATOM     14  C   UNL     1      48.022   7.919  12.532  0.00  0.00    +0.000 A 
ATOM     15  C   UNL     1      49.022   8.361  11.644  0.00  0.00    +0.000 A 
ATOM     16  C   UNL     1      50.358   8.477  12.047  0.00  0.00    +0.000 A 
BRANCH  11  18
ATOM     17  N   UNL     1      53.196   8.377  14.110  0.00  0.00    +0.000 NA
ATOM     18  C   UNL     1      52.087   8.284  13.773  0.00  0.00    +0.000 C 
ENDBRANCH  11  18
ENDBRANCH   5  14
ENDBRANCH   1   9
BRANCH   1  19
ATOM     19  N   UNL     1      43.700   4.517  10.369  0.00  0.00    +0.000 N 
ATOM     20  H   UNL     1      42.803   4.705   9.932  0.00  0.00    +0.000 HD
BRANCH  19  21
ATOM     21  C   UNL     1      44.648   3.937   9.513  0.00  0.00    +0.000 A 
ATOM     22  C   UNL     1      45.526   4.644   8.691  0.00  0.00    +0.000 A 
ATOM     23  C   UNL     1      46.429   3.962   7.854  0.00  0.00    +0.000 A 
ATOM     24  C   UNL     1      46.483   2.563   7.850  0.00  0.00    +0.000 A 
ATOM     25  C   UNL     1      45.636   1.848   8.696  0.00  0.00    +0.000 A 
ATOM     26  C   UNL     1      44.738   2.533   9.518  0.00  0.00    +0.000 A 
BRANCH  24  27
ATOM     27  C   UNL     1      47.394   1.868   6.900  0.00  0.00    +0.000 C 
ATOM     28  N   UNL     1      48.432   2.589   6.375  0.00  0.00    +0.000 N 
ATOM     29  O   UNL     1      47.222   0.698   6.587  0.00  0.00    +0.000 OA
ATOM     30  H   UNL     1      48.503   3.593   6.445  0.00  0.00    +0.000 HD
ATOM     31  H   UNL     1      49.014   2.121   5.692  0.00  0.00    +0.000 HD
ENDBRANCH  24  27
ENDBRANCH  19  21
ENDBRANCH   1  19
TORSDOF 6
ENDMDL
MODEL 4
REMARK VINA RESULT:    -6.410      4.207      5.988
REMARK INTER + INTRA:          -9.685
REMARK INTER:                  -8.885
REMARK INTRA:                  -0.801
REMARK UNBOUND:                -1.027
REMARK  Name = 
REMARK  6 active torsions:
REMARK  status: ('A' for Active; 'I' for Inactive)
REMARK    1  A    between atoms: C_2  and  C_3
REMARK    2  A    between atoms: C_6  and  C_7
REMARK    3  A    between atoms: C_11  and  C_12
REMARK    4  A    between atoms: C_12  and  N_13
REMARK    5  A    between atoms: N_13  and  C_14
REMARK    6  A    between atoms: C_17  and  C_18
REMARK                            x       y       z     vdW  Elec       q    Type
REMARK                         _______ _______ _______ _____ _____    ______ ____
ROOT
ATOM      1  C   UNL     1      48.066   7.784  13.431  0.00  0.00    +0.000 C 
ATOM      2  C   UNL     1      49.017   7.630  12.258  0.00  0.00    +0.000 C 
ATOM      3  C   UNL     1      48.497   8.982  12.578  0.00  0.00    +0.000 C 
ATOM      4  F   UNL     1      47.553   9.526  11.723  0.00  0.00    +0.000 F 
ENDROOT
BRANCH   1   9
ATOM      5  C   UNL     1      49.982   6.668  16.587  0.00  0.00    +0.000 A 
ATOM      6  C   UNL     1      49.729   7.804  17.361  0.00  0.00    +0.000 A 
ATOM      7  N   UNL     1      48.953   8.844  16.986  0.00  0.00    +0.000 NA
ATOM      8  C   UNL     1      48.416   8.775  15.749  0.00  0.00    +0.000 A 
ATOM      9  C   UNL     1      48.634   7.742  14.841  0.00  0.00    +0.000 A 
ATOM     10  C   UNL     1      49.405   6.667  15.309  0.00  0.00    +0.000 A 
BRANCH   5  14
ATOM     11  C   UNL     1      52.371   3.365  18.004  0.00  0.00    +0.000 A 
ATOM     12  C   UNL     1      50.996   3.216  17.831  0.00  0.00    +0.000 A 
ATOM     13  C   UNL     1      50.225   4.289  17.372  0.00  0.00    +0.000 A 
ATOM     14  C   UNL     1      50.801   5.540  17.085  0.00  0.00    +0.000 A 
ATOM     15  C   UNL     1      52.190   5.670  17.281  0.00  0.00    +0.000 A 
ATOM     16  C   UNL     1      52.969   4.595  17.727  0.00  0.00    +0.000 A 
BRANCH  11  18
ATOM     17  N   UNL     1      53.809   1.372  18.829  0.00  0.00    +0.000 NA
ATOM     18  C   UNL     1      53.164   2.265  18.459  0.00  0.00    +0.000 C 
ENDBRANCH  11  18
ENDBRANCH   5  14
ENDBRANCH   1   9
BRANCH   1  19
ATOM     19  N   UNL     1      46.640   7.442  13.363  0.00  0.00    +0.000 N 
ATOM     20  H   UNL     1      45.993   8.140  13.717  0.00  0.00    +0.000 HD
BRANCH  19  21
ATOM     21  C   UNL     1      46.024   6.371  12.699  0.00  0.00    +0.000 A 
ATOM     22  C   UNL     1      45.491   6.424  11.410  0.00  0.00    +0.000 A 
ATOM     23  C   UNL     1      44.878   5.293  10.841  0.00  0.00    +0.000 A 
ATOM     24  C   UNL     1      44.814   4.084  11.546  0.00  0.00    +0.000 A 
ATOM     25  C   UNL     1      45.378   4.009  12.819  0.00  0.00    +0.000 A 
ATOM     26  C   UNL     1      45.978   5.140  13.378  0.00  0.00    +0.000 A 
BRANCH  24  27
ATOM     27  C   UNL     1      44.092   2.927  10.950  0.00  0.00    +0.000 C 
ATOM     28  N   UNL     1      44.689   2.279   9.903  0.00  0.00    +0.000 N 
ATOM     29  O   UNL     1      43.000   2.568  11.370  0.00  0.00    +0.000 OA
ATOM     30  H   UNL     1      45.481   2.648   9.399  0.00  0.00    +0.000 HD
ATOM     31  H   UNL     1      44.166   1.526   9.474  0.00  0.00    +0.000 HD
ENDBRANCH  24  27
ENDBRANCH  19  21
ENDBRANCH   1  19
TORSDOF 6
ENDMDL
MODEL 5
REMARK VINA RESULT:    -6.189      5.495      8.966
REMARK INTER + INTRA:          -9.387
REMARK INTER:                  -8.472
REMARK INTRA:                  -0.915
REMARK UNBOUND:                -1.027
REMARK  Name = 
REMARK  6 active torsions:
REMARK  status: ('A' for Active; 'I' for Inactive)
REMARK    1  A    between atoms: C_2  and  C_3
REMARK    2  A    between atoms: C_6  and  C_7
REMARK    3  A    between atoms: C_11  and  C_12
REMARK    4  A    between atoms: C_12  and  N_13
REMARK    5  A    between atoms: N_13  and  C_14
REMARK    6  A    between atoms: C_17  and  C_18
REMARK                            x       y       z     vdW  Elec       q    Type
REMARK                         _______ _______ _______ _____ _____    ______ ____
ROOT
ATOM      1  C   UNL     1      49.295   5.760  18.053  0.00  0.00    +0.000 C 
ATOM      2  C   UNL     1      47.978   5.351  18.688  0.00  0.00    +0.000 C 
ATOM      3  C   UNL     1      48.564   6.665  19.051  0.00  0.00    +0.000 C 
ATOM      4  F   UNL     1      49.117   6.793  20.315  0.00  0.00    +0.000 F 
ENDROOT
BRANCH   1   9
ATOM      5  C   UNL     1      48.288   6.320  14.372  0.00  0.00    +0.000 A 
ATOM      6  C   UNL     1      49.284   7.247  14.053  0.00  0.00    +0.000 A 
ATOM      7  N   UNL     1      50.272   7.645  14.884  0.00  0.00    +0.000 NA
ATOM      8  C   UNL     1      50.258   7.117  16.127  0.00  0.00    +0.000 A 
ATOM      9  C   UNL     1      49.292   6.238  16.610  0.00  0.00    +0.000 A 
ATOM     10  C   UNL     1      48.324   5.822  15.683  0.00  0.00    +0.000 A 
BRANCH   5  14
ATOM     11  C   UNL     1      45.284   5.082  11.532  0.00  0.00    +0.000 A 
ATOM     12  C   UNL     1      45.495   4.348  12.698  0.00  0.00    +0.000 A 
ATOM     13  C   UNL     1      46.470   4.753  13.616  0.00  0.00    +0.000 A 
ATOM     14  C   UNL     1      47.267   5.890  13.391  0.00  0.00    +0.000 A 
ATOM     15  C   UNL     1      47.045   6.606  12.199  0.00  0.00    +0.000 A 
ATOM     16  C   UNL     1      46.061   6.214  11.283  0.00  0.00    +0.000 A 
BRANCH  11  18
ATOM     17  N   UNL     1      43.461   4.350   9.841  0.00  0.00    +0.000 NA
ATOM     18  C   UNL     1      44.278   4.679  10.599  0.00  0.00    +0.000 C 
ENDBRANCH  11  18
ENDBRANCH   5  14
ENDBRANCH   1   9
BRANCH   1  19
ATOM     19  N   UNL     1      50.598   5.251  18.500  0.00  0.00    +0.000 N 
ATOM     20  H   UNL     1      51.071   5.794  19.217  0.00  0.00    +0.000 HD
BRANCH  19  21
ATOM     21  C   UNL     1      51.199   4.015  18.223  0.00  0.00    +0.000 A 
ATOM     22  C   UNL     1      50.592   2.963  17.536  0.00  0.00    +0.000 A 
ATOM     23  C   UNL     1      51.280   1.754  17.325  0.00  0.00    +0.000 A 
ATOM     24  C   UNL     1      52.596   1.591  17.777  0.00  0.00    +0.000 A 
ATOM     25  C   UNL     1      53.225   2.650  18.431  0.00  0.00    +0.000 A 
ATOM     26  C   UNL     1      52.532   3.844  18.642  0.00  0.00    +0.000 A 
BRANCH  24  27
ATOM     27  C   UNL     1      53.271   0.276  17.608  0.00  0.00    +0.000 C 
ATOM     28  N   UNL     1      53.004  -0.697  18.532  0.00  0.00    +0.000 N 
ATOM     29  O   UNL     1      54.045   0.068  16.684  0.00  0.00    +0.000 OA
ATOM     30  H   UNL     1      52.536  -0.519  19.408  0.00  0.00    +0.000 HD
ATOM     31  H   UNL     1      53.508  -1.570  18.435  0.00  0.00    +0.000 HD
ENDBRANCH  24  27
ENDBRANCH  19  21
ENDBRANCH   1  19
TORSDOF 6
ENDMDL
MODEL 6
REMARK VINA RESULT:    -6.185      4.472      8.475
REMARK INTER + INTRA:          -9.382
REMARK INTER:                  -8.558
REMARK INTRA:                  -0.824
REMARK UNBOUND:                -1.027
REMARK  Name = 
REMARK  6 active torsions:
REMARK  status: ('A' for Active; 'I' for Inactive)
REMARK    1  A    between atoms: C_2  and  C_3
REMARK    2  A    between atoms: C_6  and  C_7
REMARK    3  A    between atoms: C_11  and  C_12
REMARK    4  A    between atoms: C_12  and  N_13
REMARK    5  A    between atoms: N_13  and  C_14
REMARK    6  A    between atoms: C_17  and  C_18
REMARK                            x       y       z     vdW  Elec       q    Type
REMARK                         _______ _______ _______ _____ _____    ______ ____
ROOT
ATOM      1  C   UNL     1      49.298   8.536  17.052  0.00  0.00    +0.000 C 
ATOM      2  C   UNL     1      48.298   9.609  17.445  0.00  0.00    +0.000 C 
ATOM      3  C   UNL     1      49.727   9.985  17.310  0.00  0.00    +0.000 C 
ATOM      4  F   UNL     1      50.437  10.241  18.472  0.00  0.00    +0.000 F 
ENDROOT
BRANCH   1   9
ATOM      5  C   UNL     1      48.374   6.921  13.674  0.00  0.00    +0.000 A 
ATOM      6  C   UNL     1      49.453   7.416  12.937  0.00  0.00    +0.000 A 
ATOM      7  N   UNL     1      50.468   8.152  13.442  0.00  0.00    +0.000 NA
ATOM      8  C   UNL     1      50.396   8.448  14.757  0.00  0.00    +0.000 A 
ATOM      9  C   UNL     1      49.350   8.084  15.601  0.00  0.00    +0.000 A 
ATOM     10  C   UNL     1      48.354   7.277  15.030  0.00  0.00    +0.000 A 
BRANCH   5  14
ATOM     11  C   UNL     1      45.289   4.464  11.921  0.00  0.00    +0.000 A 
ATOM     12  C   UNL     1      45.976   4.030  13.054  0.00  0.00    +0.000 A 
ATOM     13  C   UNL     1      46.976   4.829  13.618  0.00  0.00    +0.000 A 
ATOM     14  C   UNL     1      47.324   6.074  13.064  0.00  0.00    +0.000 A 
ATOM     15  C   UNL     1      46.626   6.484  11.912  0.00  0.00    +0.000 A 
ATOM     16  C   UNL     1      45.615   5.695  11.350  0.00  0.00    +0.000 A 
BRANCH  11  18
ATOM     17  N   UNL     1      43.419   2.997  10.885  0.00  0.00    +0.000 NA
ATOM     18  C   UNL     1      44.256   3.655  11.350  0.00  0.00    +0.000 C 
ENDBRANCH  11  18
ENDBRANCH   5  14
ENDBRANCH   1   9
BRANCH   1  19
ATOM     19  N   UNL     1      49.829   7.545  17.995  0.00  0.00    +0.000 N 
ATOM     20  H   UNL     1      49.903   7.840  18.964  0.00  0.00    +0.000 HD
BRANCH  19  21
ATOM     21  C   UNL     1      50.069   6.178  17.790  0.00  0.00    +0.000 A 
ATOM     22  C   UNL     1      51.328   5.603  17.607  0.00  0.00    +0.000 A 
ATOM     23  C   UNL     1      51.457   4.219  17.391  0.00  0.00    +0.000 A 
ATOM     24  C   UNL     1      50.330   3.387  17.381  0.00  0.00    +0.000 A 
ATOM     25  C   UNL     1      49.072   3.947  17.601  0.00  0.00    +0.000 A 
ATOM     26  C   UNL     1      48.952   5.323  17.808  0.00  0.00    +0.000 A 
BRANCH  24  27
ATOM     27  C   UNL     1      50.490   1.940  17.074  0.00  0.00    +0.000 C 
ATOM     28  N   UNL     1      51.297   1.203  17.898  0.00  0.00    +0.000 N 
ATOM     29  O   UNL     1      49.931   1.423  16.116  0.00  0.00    +0.000 OA
ATOM     30  H   UNL     1      51.926   1.612  18.572  0.00  0.00    +0.000 HD
ATOM     31  H   UNL     1      51.438   0.232  17.649  0.00  0.00    +0.000 HD
ENDBRANCH  24  27
ENDBRANCH  19  21
ENDBRANCH   1  19
TORSDOF 6
ENDMDL
MODEL 7
REMARK VINA RESULT:    -6.071      2.716      6.818
REMARK INTER + INTRA:          -9.228
REMARK INTER:                  -8.535
REMARK INTRA:                  -0.693
REMARK UNBOUND:                -1.027
REMARK  Name = 
REMARK  6 active torsions:
REMARK  status: ('A' for Active; 'I' for Inactive)
REMARK    1  A    between atoms: C_2  and  C_3
REMARK    2  A    between atoms: C_6  and  C_7
REMARK    3  A    between atoms: C_11  and  C_12
REMARK    4  A    between atoms: C_12  and  N_13
REMARK    5  A    between atoms: N_13  and  C_14
REMARK    6  A    between atoms: C_17  and  C_18
REMARK                            x       y       z     vdW  Elec       q    Type
REMARK                         _______ _______ _______ _____ _____    ______ ____
ROOT
ATOM      1  C   UNL     1      43.717   8.419  11.525  0.00  0.00    +0.000 C 
ATOM      2  C   UNL     1      42.537   9.315  11.191  0.00  0.00    +0.000 C 
ATOM      3  C   UNL     1      43.694   9.286  10.262  0.00  0.00    +0.000 C 
ATOM      4  F   UNL     1      44.525  10.395  10.237  0.00  0.00    +0.000 F 
ENDROOT
BRANCH   1   9
ATOM      5  C   UNL     1      44.301   4.837  10.218  0.00  0.00    +0.000 A 
ATOM      6  C   UNL     1      43.367   4.194  11.034  0.00  0.00    +0.000 A 
ATOM      7  N   UNL     1      42.534   4.812  11.900  0.00  0.00    +0.000 NA
ATOM      8  C   UNL     1      42.654   6.154  11.992  0.00  0.00    +0.000 A 
ATOM      9  C   UNL     1      43.584   6.921  11.296  0.00  0.00    +0.000 A 
ATOM     10  C   UNL     1      44.383   6.228  10.374  0.00  0.00    +0.000 A 
BRANCH   5  14
ATOM     11  C   UNL     1      46.791   2.690   7.421  0.00  0.00    +0.000 A 
ATOM     12  C   UNL     1      46.788   4.084   7.435  0.00  0.00    +0.000 A 
ATOM     13  C   UNL     1      45.979   4.776   8.343  0.00  0.00    +0.000 A 
ATOM     14  C   UNL     1      45.145   4.100   9.251  0.00  0.00    +0.000 A 
ATOM     15  C   UNL     1      45.155   2.692   9.208  0.00  0.00    +0.000 A 
ATOM     16  C   UNL     1      45.972   1.993   8.311  0.00  0.00    +0.000 A 
BRANCH  11  18
ATOM     17  N   UNL     1      48.309   1.404   5.759  0.00  0.00    +0.000 NA
ATOM     18  C   UNL     1      47.627   1.980   6.504  0.00  0.00    +0.000 C 
ENDBRANCH  11  18
ENDBRANCH   5  14
ENDBRANCH   1   9
BRANCH   1  19
ATOM     19  N   UNL     1      44.743   8.772  12.514  0.00  0.00    +0.000 N 
ATOM     20  H   UNL     1      44.409   9.006  13.444  0.00  0.00    +0.000 HD
BRANCH  19  21
ATOM     21  C   UNL     1      46.136   8.647  12.416  0.00  0.00    +0.000 A 
ATOM     22  C   UNL     1      47.011   9.670  12.045  0.00  0.00    +0.000 A 
ATOM     23  C   UNL     1      48.395   9.433  11.962  0.00  0.00    +0.000 A 
ATOM     24  C   UNL     1      48.926   8.175  12.274  0.00  0.00    +0.000 A 
ATOM     25  C   UNL     1      48.065   7.157  12.684  0.00  0.00    +0.000 A 
ATOM     26  C   UNL     1      46.691   7.400  12.757  0.00  0.00    +0.000 A 
BRANCH  24  27
ATOM     27  C   UNL     1      50.384   7.933  12.103  0.00  0.00    +0.000 C 
ATOM     28  N   UNL     1      51.152   7.867  13.234  0.00  0.00    +0.000 N 
ATOM     29  O   UNL     1      50.887   7.805  10.995  0.00  0.00    +0.000 OA
ATOM     30  H   UNL     1      50.828   8.157  14.144  0.00  0.00    +0.000 HD
ATOM     31  H   UNL     1      52.149   7.753  13.103  0.00  0.00    +0.000 HD
ENDBRANCH  24  27
ENDBRANCH  19  21
ENDBRANCH   1  19
TORSDOF 6
ENDMDL
MODEL 8
REMARK VINA RESULT:    -5.953      3.967      6.671
REMARK INTER + INTRA:          -9.069
REMARK INTER:                  -8.254
REMARK INTRA:                  -0.815
REMARK UNBOUND:                -1.027
REMARK  Name = 
REMARK  6 active torsions:
REMARK  status: ('A' for Active; 'I' for Inactive)
REMARK    1  A    between atoms: C_2  and  C_3
REMARK    2  A    between atoms: C_6  and  C_7
REMARK    3  A    between atoms: C_11  and  C_12
REMARK    4  A    between atoms: C_12  and  N_13
REMARK    5  A    between atoms: N_13  and  C_14
REMARK    6  A    between atoms: C_17  and  C_18
REMARK                            x       y       z     vdW  Elec       q    Type
REMARK                         _______ _______ _______ _____ _____    ______ ____
ROOT
ATOM      1  C   UNL     1      49.085   7.966  13.031  0.00  0.00    +0.000 C 
ATOM      2  C   UNL     1      48.298   9.019  13.792  0.00  0.00    +0.000 C 
ATOM      3  C   UNL     1      49.356   8.266  14.509  0.00  0.00    +0.000 C 
ATOM      4  F   UNL     1      48.953   7.316  15.434  0.00  0.00    +0.000 F 
ENDROOT
BRANCH   1   9
ATOM      5  C   UNL     1      51.824   7.956  10.315  0.00  0.00    +0.000 A 
ATOM      6  C   UNL     1      52.007   9.339  10.239  0.00  0.00    +0.000 A 
ATOM      7  N   UNL     1      51.386  10.250  11.021  0.00  0.00    +0.000 NA
ATOM      8  C   UNL     1      50.499   9.765  11.917  0.00  0.00    +0.000 A 
ATOM      9  C   UNL     1      50.163   8.422  12.060  0.00  0.00    +0.000 A 
ATOM     10  C   UNL     1      50.880   7.522  11.257  0.00  0.00    +0.000 A 
BRANCH   5  14
ATOM     11  C   UNL     1      54.051   5.231   7.816  0.00  0.00    +0.000 A 
ATOM     12  C   UNL     1      53.069   6.052   7.263  0.00  0.00    +0.000 A 
ATOM     13  C   UNL     1      52.349   6.933   8.076  0.00  0.00    +0.000 A 
ATOM     14  C   UNL     1      52.580   7.012   9.461  0.00  0.00    +0.000 A 
ATOM     15  C   UNL     1      53.567   6.164   9.999  0.00  0.00    +0.000 A 
ATOM     16  C   UNL     1      54.301   5.289   9.188  0.00  0.00    +0.000 A 
BRANCH  11  18
ATOM     17  N   UNL     1      55.407   3.615   6.310  0.00  0.00    +0.000 NA
ATOM     18  C   UNL     1      54.799   4.340   6.984  0.00  0.00    +0.000 C 
ENDBRANCH  11  18
ENDBRANCH   5  14
ENDBRANCH   1   9
BRANCH   1  19
ATOM     19  N   UNL     1      48.567   6.623  12.744  0.00  0.00    +0.000 N 
ATOM     20  H   UNL     1      49.223   5.855  12.853  0.00  0.00    +0.000 HD
BRANCH  19  21
ATOM     21  C   UNL     1      47.241   6.221  12.530  0.00  0.00    +0.000 A 
ATOM     22  C   UNL     1      46.479   5.459  13.418  0.00  0.00    +0.000 A 
ATOM     23  C   UNL     1      45.159   5.094  13.098  0.00  0.00    +0.000 A 
ATOM     24  C   UNL     1      44.573   5.508  11.895  0.00  0.00    +0.000 A 
ATOM     25  C   UNL     1      45.313   6.302  11.018  0.00  0.00    +0.000 A 
ATOM     26  C   UNL     1      46.625   6.653  11.342  0.00  0.00    +0.000 A 
BRANCH  24  27
ATOM     27  C   UNL     1      43.202   5.043  11.549  0.00  0.00    +0.000 C 
ATOM     28  N   UNL     1      42.176   5.937  11.690  0.00  0.00    +0.000 N 
ATOM     29  O   UNL     1      42.992   3.902  11.161  0.00  0.00    +0.000 OA
ATOM     30  H   UNL     1      42.264   6.812  12.184  0.00  0.00    +0.000 HD
ATOM     31  H   UNL     1      41.243   5.594  11.500  0.00  0.00    +0.000 HD
ENDBRANCH  24  27
ENDBRANCH  19  21
ENDBRANCH   1  19
TORSDOF 6
ENDMDL
MODEL 9
REMARK VINA RESULT:    -5.833      4.351      8.631
REMARK INTER + INTRA:          -8.907
REMARK INTER:                  -7.835
REMARK INTRA:                  -1.072
REMARK UNBOUND:                -1.027
REMARK  Name = 
REMARK  6 active torsions:
REMARK  status: ('A' for Active; 'I' for Inactive)
REMARK    1  A    between atoms: C_2  and  C_3
REMARK    2  A    between atoms: C_6  and  C_7
REMARK    3  A    between atoms: C_11  and  C_12
REMARK    4  A    between atoms: C_12  and  N_13
REMARK    5  A    between atoms: N_13  and  C_14
REMARK    6  A    between atoms: C_17  and  C_18
REMARK                            x       y       z     vdW  Elec       q    Type
REMARK                         _______ _______ _______ _____ _____    ______ ____
ROOT
ATOM      1  C   UNL     1      49.736   9.470  12.331  0.00  0.00    +0.000 C 
ATOM      2  C   UNL     1      50.543  10.057  11.186  0.00  0.00    +0.000 C 
ATOM      3  C   UNL     1      50.562   8.587  11.389  0.00  0.00    +0.000 C 
ATOM      4  F   UNL     1      51.721   8.024  11.899  0.00  0.00    +0.000 F 
ENDROOT
BRANCH   1   9
ATOM      5  C   UNL     1      46.171   8.032  12.014  0.00  0.00    +0.000 A 
ATOM      6  C   UNL     1      45.484   9.249  12.036  0.00  0.00    +0.000 A 
ATOM      7  N   UNL     1      46.065  10.469  12.073  0.00  0.00    +0.000 NA
ATOM      8  C   UNL     1      47.414  10.490  12.126  0.00  0.00    +0.000 A 
ATOM      9  C   UNL     1      48.227   9.361  12.180  0.00  0.00    +0.000 A 
ATOM     10  C   UNL     1      47.569   8.126  12.084  0.00  0.00    +0.000 A 
BRANCH   5  14
ATOM     11  C   UNL     1      44.158   4.224  11.746  0.00  0.00    +0.000 A 
ATOM     12  C   UNL     1      44.965   4.669  10.700  0.00  0.00    +0.000 A 
ATOM     13  C   UNL     1      45.615   5.905  10.790  0.00  0.00    +0.000 A 
ATOM     14  C   UNL     1      45.470   6.732  11.918  0.00  0.00    +0.000 A 
ATOM     15  C   UNL     1      44.639   6.267  12.955  0.00  0.00    +0.000 A 
ATOM     16  C   UNL     1      43.997   5.026  12.877  0.00  0.00    +0.000 A 
BRANCH  11  18
ATOM     17  N   UNL     1      42.973   1.924  11.592  0.00  0.00    +0.000 NA
ATOM     18  C   UNL     1      43.504   2.955  11.662  0.00  0.00    +0.000 C 
ENDBRANCH  11  18
ENDBRANCH   5  14
ENDBRANCH   1   9
BRANCH   1  19
ATOM     19  N   UNL     1      50.186   9.493  13.729  0.00  0.00    +0.000 N 
ATOM     20  H   UNL     1      50.843  10.227  13.977  0.00  0.00    +0.000 HD
BRANCH  19  21
ATOM     21  C   UNL     1      49.691   8.768  14.822  0.00  0.00    +0.000 A 
ATOM     22  C   UNL     1      48.875   9.288  15.828  0.00  0.00    +0.000 A 
ATOM     23  C   UNL     1      48.446   8.476  16.894  0.00  0.00    +0.000 A 
ATOM     24  C   UNL     1      48.808   7.124  16.954  0.00  0.00    +0.000 A 
ATOM     25  C   UNL     1      49.592   6.585  15.934  0.00  0.00    +0.000 A 
ATOM     26  C   UNL     1      50.018   7.401  14.884  0.00  0.00    +0.000 A 
BRANCH  24  27
ATOM     27  C   UNL     1      48.404   6.310  18.132  0.00  0.00    +0.000 C 
ATOM     28  N   UNL     1      47.127   5.819  18.155  0.00  0.00    +0.000 N 
ATOM     29  O   UNL     1      49.177   6.091  19.055  0.00  0.00    +0.000 OA
ATOM     30  H   UNL     1      46.400   6.129  17.527  0.00  0.00    +0.000 HD
ATOM     31  H   UNL     1      46.848   5.310  18.984  0.00  0.00    +0.000 HD
ENDBRANCH  24  27
ENDBRANCH  19  21
ENDBRANCH   1  19
TORSDOF 6
ENDMDL
