MODEL 1
REMARK VINA RESULT:    -9.299      0.000      0.000
REMARK INTER + INTRA:         -12.717
REMARK INTER:                 -11.474
REMARK INTRA:                  -1.243
REMARK UNBOUND:                -1.243
REMARK  Name = 
REMARK  4 active torsions:
REMARK  status: ('A' for Active; 'I' for Inactive)
REMARK    1  A    between atoms: C_2  and  C_4
REMARK    2  A    between atoms: N_8  and  C_9
REMARK    3  A    between atoms: C_9  and  C_10
REMARK    4  A    between atoms: C_14  and  C_15
REMARK                            x       y       z     vdW  Elec       q    Type
REMARK                         _______ _______ _______ _____ _____    ______ ____
ROOT
ATOM      1  C   UNL     1      43.808   4.874  11.368  0.00  0.00    +0.000 C 
ATOM      2  C   UNL     1      42.476   5.148  12.050  0.00  0.00    +0.000 C 
ATOM      3  C   UNL     1      43.010   6.124  11.059  0.00  0.00    +0.000 C 
ENDROOT
BRANCH   1   8
ATOM      4  C   UNL     1      46.566   2.761   7.503  0.00  0.00    +0.000 A 
ATOM      5  C   UNL     1      46.197   4.091   7.663  0.00  0.00    +0.000 A 
ATOM      6  C   UNL     1      45.302   4.436   8.682  0.00  0.00    +0.000 A 
ATOM      7  C   UNL     1      44.791   3.444   9.510  0.00  0.00    +0.000 A 
ATOM      8  N   UNL     1      43.816   3.690  10.485  0.00  0.00    +0.000 N 
ATOM      9  N   UNL     1      45.138   2.148   9.360  0.00  0.00    +0.000 NA
ATOM     10  C   UNL     1      46.011   1.830   8.369  0.00  0.00    +0.000 A 
ATOM     11  H   UNL     1      43.700   2.797  10.964  0.00  0.00    +0.000 HD
BRANCH   4  13
ATOM     12  N   UNL     1      47.459   2.956   5.253  0.00  0.00    +0.000 N 
ATOM     13  C   UNL     1      47.488   2.293   6.449  0.00  0.00    +0.000 C 
ATOM     14  O   UNL     1      48.268   1.369   6.640  0.00  0.00    +0.000 OA
ATOM     15  H   UNL     1      48.168   2.692   4.580  0.00  0.00    +0.000 HD
ATOM     16  H   UNL     1      47.018   3.857   5.136  0.00  0.00    +0.000 HD
ENDBRANCH   4  13
ENDBRANCH   1   8
BRANCH   1  17
ATOM     17  C   UNL     1      45.090   5.019  12.186  0.00  0.00    +0.000 A 
ATOM     18  C   UNL     1      45.584   3.979  12.987  0.00  0.00    +0.000 A 
ATOM     19  C   UNL     1      46.805   4.093  13.651  0.00  0.00    +0.000 A 
ATOM     20  C   UNL     1      47.577   5.244  13.497  0.00  0.00    +0.000 A 
ATOM     21  C   UNL     1      47.148   6.303  12.681  0.00  0.00    +0.000 A 
ATOM     22  C   UNL     1      45.882   6.178  12.076  0.00  0.00    +0.000 A 
BRANCH  21  23
ATOM     23  C   UNL     1      48.029   7.447  12.356  0.00  0.00    +0.000 A 
ATOM     24  C   UNL     1      49.404   7.248  12.122  0.00  0.00    +0.000 A 
ATOM     25  C   UNL     1      50.238   8.290  11.699  0.00  0.00    +0.000 A 
ATOM     26  C   UNL     1      49.707   9.557  11.491  0.00  0.00    +0.000 A 
ATOM     27  C   UNL     1      48.357   9.775  11.732  0.00  0.00    +0.000 A 
ATOM     28  F   UNL     1      47.839  10.990  11.514  0.00  0.00    +0.000 F 
ATOM     29  C   UNL     1      47.524   8.744  12.168  0.00  0.00    +0.000 A 
ENDBRANCH  21  23
ENDBRANCH   1  17
TORSDOF 4
ENDMDL
MODEL 2
REMARK VINA RESULT:    -9.166      2.584      3.816
REMARK INTER + INTRA:         -12.553
REMARK INTER:                 -11.836
REMARK INTRA:                  -0.717
REMARK UNBOUND:                -1.243
REMARK  Name = 
REMARK  4 active torsions:
REMARK  status: ('A' for Active; 'I' for Inactive)
REMARK    1  A    between atoms: C_2  and  C_4
REMARK    2  A    between atoms: N_8  and  C_9
REMARK    3  A    between atoms: C_9  and  C_10
REMARK    4  A    between atoms: C_14  and  C_15
REMARK                            x       y       z     vdW  Elec       q    Type
REMARK                         _______ _______ _______ _____ _____    ______ ____
ROOT
ATOM      1  C   UNL     1      43.935   4.934  11.507  0.00  0.00    +0.000 C 
ATOM      2  C   UNL     1      42.787   5.057  12.498  0.00  0.00    +0.000 C 
ATOM      3  C   UNL     1      42.867   5.996  11.344  0.00  0.00    +0.000 C 
ENDROOT
BRANCH   1   8
ATOM      4  C   UNL     1      46.403   2.706   7.513  0.00  0.00    +0.000 A 
ATOM      5  C   UNL     1      45.939   4.012   7.611  0.00  0.00    +0.000 A 
ATOM      6  C   UNL     1      45.141   4.376   8.701  0.00  0.00    +0.000 A 
ATOM      7  C   UNL     1      44.819   3.426   9.662  0.00  0.00    +0.000 A 
ATOM      8  N   UNL     1      43.945   3.681  10.727  0.00  0.00    +0.000 N 
ATOM      9  N   UNL     1      45.258   2.152   9.573  0.00  0.00    +0.000 NA
ATOM     10  C   UNL     1      46.035   1.815   8.511  0.00  0.00    +0.000 A 
ATOM     11  H   UNL     1      43.964   2.828  11.286  0.00  0.00    +0.000 HD
BRANCH   4  13
ATOM     12  N   UNL     1      47.242   2.967   5.249  0.00  0.00    +0.000 N 
ATOM     13  C   UNL     1      47.234   2.219   6.394  0.00  0.00    +0.000 C 
ATOM     14  O   UNL     1      47.912   1.204   6.490  0.00  0.00    +0.000 OA
ATOM     15  H   UNL     1      47.897   2.678   4.532  0.00  0.00    +0.000 HD
ATOM     16  H   UNL     1      46.902   3.917   5.212  0.00  0.00    +0.000 HD
ENDBRANCH   4  13
ENDBRANCH   1   8
BRANCH   1  17
ATOM     17  C   UNL     1      45.330   5.375  11.949  0.00  0.00    +0.000 A 
ATOM     18  C   UNL     1      46.064   6.340  11.244  0.00  0.00    +0.000 A 
ATOM     19  C   UNL     1      47.293   6.802  11.714  0.00  0.00    +0.000 A 
ATOM     20  C   UNL     1      47.799   6.328  12.925  0.00  0.00    +0.000 A 
ATOM     21  C   UNL     1      47.090   5.387  13.690  0.00  0.00    +0.000 A 
ATOM     22  C   UNL     1      45.883   4.898  13.153  0.00  0.00    +0.000 A 
BRANCH  21  23
ATOM     23  C   UNL     1      47.515   5.012  15.058  0.00  0.00    +0.000 A 
ATOM     24  C   UNL     1      48.355   5.861  15.804  0.00  0.00    +0.000 A 
ATOM     25  C   UNL     1      48.676   5.590  17.140  0.00  0.00    +0.000 A 
ATOM     26  C   UNL     1      48.152   4.464  17.760  0.00  0.00    +0.000 A 
ATOM     27  C   UNL     1      47.335   3.607  17.035  0.00  0.00    +0.000 A 
ATOM     28  F   UNL     1      46.813   2.531  17.636  0.00  0.00    +0.000 F 
ATOM     29  C   UNL     1      47.023   3.864  15.699  0.00  0.00    +0.000 A 
ENDBRANCH  21  23
ENDBRANCH   1  17
TORSDOF 4
ENDMDL
MODEL 3
REMARK VINA RESULT:    -7.457      4.097      7.164
REMARK INTER + INTRA:         -10.445
REMARK INTER:                  -9.432
REMARK INTRA:                  -1.012
REMARK UNBOUND:                -1.243
REMARK  Name = 
REMARK  4 active torsions:
REMARK  status: ('A' for Active; 'I' for Inactive)
REMARK    1  A    between atoms: C_2  and  C_4
REMARK    2  A    between atoms: N_8  and  C_9
REMARK    3  A    between atoms: C_9  and  C_10
REMARK    4  A    between atoms: C_14  and  C_15
REMARK                            x       y       z     vdW  Elec       q    Type
REMARK                         _______ _______ _______ _____ _____    ______ ____
ROOT
ATOM      1  C   UNL     1      46.176   5.322  13.324  0.00  0.00    +0.000 C 
ATOM      2  C   UNL     1      46.222   4.418  14.547  0.00  0.00    +0.000 C 
ATOM      3  C   UNL     1      47.370   4.430  13.598  0.00  0.00    +0.000 C 
ENDROOT
BRANCH   1   8
ATOM      4  C   UNL     1      48.193   9.793  11.608  0.00  0.00    +0.000 A 
ATOM      5  C   UNL     1      48.836   8.573  11.775  0.00  0.00    +0.000 A 
ATOM      6  C   UNL     1      48.164   7.526  12.417  0.00  0.00    +0.000 A 
ATOM      7  C   UNL     1      46.871   7.726  12.885  0.00  0.00    +0.000 A 
ATOM      8  N   UNL     1      46.169   6.767  13.625  0.00  0.00    +0.000 N 
ATOM      9  N   UNL     1      46.240   8.910  12.734  0.00  0.00    +0.000 NA
ATOM     10  C   UNL     1      46.904   9.915  12.106  0.00  0.00    +0.000 A 
ATOM     11  H   UNL     1      45.244   7.173  13.760  0.00  0.00    +0.000 HD
BRANCH   4  13
ATOM     12  N   UNL     1      50.001  11.411  11.489  0.00  0.00    +0.000 N 
ATOM     13  C   UNL     1      48.821  10.963  10.962  0.00  0.00    +0.000 C 
ATOM     14  O   UNL     1      48.326  11.497   9.978  0.00  0.00    +0.000 OA
ATOM     15  H   UNL     1      50.470  12.144  10.972  0.00  0.00    +0.000 HD
ATOM     16  H   UNL     1      50.557  10.864  12.131  0.00  0.00    +0.000 HD
ENDBRANCH   4  13
ENDBRANCH   1   8
BRANCH   1  17
ATOM     17  C   UNL     1      45.242   4.946  12.174  0.00  0.00    +0.000 A 
ATOM     18  C   UNL     1      43.950   5.479  12.060  0.00  0.00    +0.000 A 
ATOM     19  C   UNL     1      43.147   5.202  10.954  0.00  0.00    +0.000 A 
ATOM     20  C   UNL     1      43.638   4.407   9.917  0.00  0.00    +0.000 A 
ATOM     21  C   UNL     1      44.937   3.875   9.963  0.00  0.00    +0.000 A 
ATOM     22  C   UNL     1      45.696   4.125  11.123  0.00  0.00    +0.000 A 
BRANCH  21  23
ATOM     23  C   UNL     1      45.543   3.188   8.799  0.00  0.00    +0.000 A 
ATOM     24  C   UNL     1      46.035   3.931   7.708  0.00  0.00    +0.000 A 
ATOM     25  C   UNL     1      46.719   3.319   6.649  0.00  0.00    +0.000 A 
ATOM     26  C   UNL     1      46.930   1.946   6.668  0.00  0.00    +0.000 A 
ATOM     27  C   UNL     1      46.437   1.197   7.728  0.00  0.00    +0.000 A 
ATOM     28  F   UNL     1      46.657  -0.123   7.757  0.00  0.00    +0.000 F 
ATOM     29  C   UNL     1      45.744   1.799   8.778  0.00  0.00    +0.000 A 
ENDBRANCH  21  23
ENDBRANCH   1  17
TORSDOF 4
ENDMDL
MODEL 4
REMARK VINA RESULT:    -7.145      4.940      8.279
REMARK INTER + INTRA:         -10.059
REMARK INTER:                  -8.951
REMARK INTRA:                  -1.107
REMARK UNBOUND:                -1.243
REMARK  Name = 
REMARK  4 active torsions:
REMARK  status: ('A' for Active; 'I' for Inactive)
REMARK    1  A    between atoms: C_2  and  C_4
REMARK    2  A    between atoms: N_8  and  C_9
REMARK    3  A    between atoms: C_9  and  C_10
REMARK    4  A    between atoms: C_14  and  C_15
REMARK                            x       y       z     vdW  Elec       q    Type
REMARK                         _______ _______ _______ _____ _____    ______ ____
ROOT
ATOM      1  C   UNL     1      49.126   7.945  12.591  0.00  0.00    +0.000 C 
ATOM      2  C   UNL     1      50.075   8.093  11.412  0.00  0.00    +0.000 C 
ATOM      3  C   UNL     1      49.825   9.259  12.306  0.00  0.00    +0.000 C 
ENDROOT
BRANCH   1   8
ATOM      4  C   UNL     1      48.355   6.831  17.609  0.00  0.00    +0.000 A 
ATOM      5  C   UNL     1      48.506   8.082  17.024  0.00  0.00    +0.000 A 
ATOM      6  C   UNL     1      48.881   8.169  15.678  0.00  0.00    +0.000 A 
ATOM      7  C   UNL     1      49.106   7.006  14.953  0.00  0.00    +0.000 A 
ATOM      8  N   UNL     1      49.581   7.006  13.636  0.00  0.00    +0.000 N 
ATOM      9  N   UNL     1      48.969   5.785  15.514  0.00  0.00    +0.000 NA
ATOM     10  C   UNL     1      48.601   5.717  16.819  0.00  0.00    +0.000 A 
ATOM     11  H   UNL     1      49.577   6.024  13.360  0.00  0.00    +0.000 HD
BRANCH   4  13
ATOM     12  N   UNL     1      47.074   5.647  19.298  0.00  0.00    +0.000 N 
ATOM     13  C   UNL     1      47.981   6.633  19.024  0.00  0.00    +0.000 C 
ATOM     14  O   UNL     1      48.477   7.302  19.920  0.00  0.00    +0.000 OA
ATOM     15  H   UNL     1      46.908   5.455  20.279  0.00  0.00    +0.000 HD
ATOM     16  H   UNL     1      46.830   4.925  18.635  0.00  0.00    +0.000 HD
ENDBRANCH   4  13
ENDBRANCH   1   8
BRANCH   1  17
ATOM     17  C   UNL     1      47.627   7.850  12.313  0.00  0.00    +0.000 A 
ATOM     18  C   UNL     1      46.767   8.946  12.478  0.00  0.00    +0.000 A 
ATOM     19  C   UNL     1      45.420   8.869  12.128  0.00  0.00    +0.000 A 
ATOM     20  C   UNL     1      44.910   7.696  11.569  0.00  0.00    +0.000 A 
ATOM     21  C   UNL     1      45.732   6.580  11.350  0.00  0.00    +0.000 A 
ATOM     22  C   UNL     1      47.072   6.672  11.773  0.00  0.00    +0.000 A 
BRANCH  21  23
ATOM     23  C   UNL     1      45.261   5.398  10.592  0.00  0.00    +0.000 A 
ATOM     24  C   UNL     1      45.696   5.174   9.271  0.00  0.00    +0.000 A 
ATOM     25  C   UNL     1      45.363   4.007   8.573  0.00  0.00    +0.000 A 
ATOM     26  C   UNL     1      44.590   3.032   9.190  0.00  0.00    +0.000 A 
ATOM     27  C   UNL     1      44.138   3.243  10.486  0.00  0.00    +0.000 A 
ATOM     28  F   UNL     1      43.409   2.296  11.090  0.00  0.00    +0.000 F 
ATOM     29  C   UNL     1      44.455   4.410  11.182  0.00  0.00    +0.000 A 
ENDBRANCH  21  23
ENDBRANCH   1  17
TORSDOF 4
ENDMDL
MODEL 5
REMARK VINA RESULT:    -6.943      4.352      7.581
REMARK INTER + INTRA:          -9.810
REMARK INTER:                  -9.714
REMARK INTRA:                  -0.095
REMARK UNBOUND:                -1.243
REMARK  Name = 
REMARK  4 active torsions:
REMARK  status: ('A' for Active; 'I' for Inactive)
REMARK    1  A    between atoms: C_2  and  C_4
REMARK    2  A    between atoms: N_8  and  C_9
REMARK    3  A    between atoms: C_9  and  C_10
REMARK    4  A    between atoms: C_14  and  C_15
REMARK                            x       y       z     vdW  Elec       q    Type
REMARK                         _______ _______ _______ _____ _____    ______ ____
ROOT
ATOM      1  C   UNL     1      48.506   7.793  12.855  0.00  0.00    +0.000 C 
ATOM      2  C   UNL     1      49.675   7.172  12.104  0.00  0.00    +0.000 C 
ATOM      3  C   UNL     1      49.459   8.645  12.040  0.00  0.00    +0.000 C 
ENDROOT
BRANCH   1   8
ATOM      4  C   UNL     1      48.017   4.280  16.653  0.00  0.00    +0.000 A 
ATOM      5  C   UNL     1      47.200   4.460  15.544  0.00  0.00    +0.000 A 
ATOM      6  C   UNL     1      47.395   5.577  14.723  0.00  0.00    +0.000 A 
ATOM      7  C   UNL     1      48.395   6.489  15.034  0.00  0.00    +0.000 A 
ATOM      8  N   UNL     1      48.589   7.682  14.325  0.00  0.00    +0.000 N 
ATOM      9  N   UNL     1      49.190   6.327  16.113  0.00  0.00    +0.000 NA
ATOM     10  C   UNL     1      48.991   5.237  16.898  0.00  0.00    +0.000 A 
ATOM     11  H   UNL     1      49.424   8.095  14.740  0.00  0.00    +0.000 HD
BRANCH   4  13
ATOM     12  N   UNL     1      48.973   2.826  18.348  0.00  0.00    +0.000 N 
ATOM     13  C   UNL     1      47.880   3.146  17.590  0.00  0.00    +0.000 C 
ATOM     14  O   UNL     1      46.828   2.533  17.708  0.00  0.00    +0.000 OA
ATOM     15  H   UNL     1      48.831   2.117  19.058  0.00  0.00    +0.000 HD
ATOM     16  H   UNL     1      49.764   3.444  18.460  0.00  0.00    +0.000 HD
ENDBRANCH   4  13
ENDBRANCH   1   8
BRANCH   1  17
ATOM     17  C   UNL     1      47.094   7.573  12.317  0.00  0.00    +0.000 A 
ATOM     18  C   UNL     1      46.137   8.598  12.294  0.00  0.00    +0.000 A 
ATOM     19  C   UNL     1      44.885   8.408  11.711  0.00  0.00    +0.000 A 
ATOM     20  C   UNL     1      44.575   7.190  11.105  0.00  0.00    +0.000 A 
ATOM     21  C   UNL     1      45.507   6.140  11.068  0.00  0.00    +0.000 A 
ATOM     22  C   UNL     1      46.738   6.347  11.721  0.00  0.00    +0.000 A 
BRANCH  21  23
ATOM     23  C   UNL     1      45.271   4.913  10.274  0.00  0.00    +0.000 A 
ATOM     24  C   UNL     1      44.553   3.832  10.823  0.00  0.00    +0.000 A 
ATOM     25  C   UNL     1      44.213   2.710  10.058  0.00  0.00    +0.000 A 
ATOM     26  C   UNL     1      44.579   2.650   8.720  0.00  0.00    +0.000 A 
ATOM     27  C   UNL     1      45.302   3.699   8.167  0.00  0.00    +0.000 A 
ATOM     28  F   UNL     1      45.640   3.653   6.872  0.00  0.00    +0.000 F 
ATOM     29  C   UNL     1      45.656   4.814   8.927  0.00  0.00    +0.000 A 
ENDBRANCH  21  23
ENDBRANCH   1  17
TORSDOF 4
ENDMDL
MODEL 6
REMARK VINA RESULT:    -6.663      3.996      6.131
REMARK INTER + INTRA:          -9.464
REMARK INTER:                  -8.938
REMARK INTRA:                  -0.526
REMARK UNBOUND:                -1.243
REMARK  Name = 
REMARK  4 active torsions:
REMARK  status: ('A' for Active; 'I' for Inactive)
REMARK    1  A    between atoms: C_2  and  C_4
REMARK    2  A    between atoms: N_8  and  C_9
REMARK    3  A    between atoms: C_9  and  C_10
REMARK    4  A    between atoms: C_14  and  C_15
REMARK                            x       y       z     vdW  Elec       q    Type
REMARK                         _______ _______ _______ _____ _____    ______ ____
ROOT
ATOM      1  C   UNL     1      47.348   8.574  13.188  0.00  0.00    +0.000 C 
ATOM      2  C   UNL     1      47.532   9.904  12.472  0.00  0.00    +0.000 C 
ATOM      3  C   UNL     1      48.209   8.686  11.946  0.00  0.00    +0.000 C 
ENDROOT
BRANCH   1   8
ATOM      4  C   UNL     1      44.654   4.457  11.516  0.00  0.00    +0.000 A 
ATOM      5  C   UNL     1      45.641   5.165  10.841  0.00  0.00    +0.000 A 
ATOM      6  C   UNL     1      46.128   6.356  11.391  0.00  0.00    +0.000 A 
ATOM      7  C   UNL     1      45.612   6.815  12.597  0.00  0.00    +0.000 A 
ATOM      8  N   UNL     1      45.970   8.045  13.162  0.00  0.00    +0.000 N 
ATOM      9  N   UNL     1      44.647   6.139  13.257  0.00  0.00    +0.000 NA
ATOM     10  C   UNL     1      44.188   4.983  12.712  0.00  0.00    +0.000 A 
ATOM     11  H   UNL     1      45.486   8.067  14.060  0.00  0.00    +0.000 HD
BRANCH   4  13
ATOM     12  N   UNL     1      44.803   2.477  10.117  0.00  0.00    +0.000 N 
ATOM     13  C   UNL     1      44.062   3.202  11.010  0.00  0.00    +0.000 C 
ATOM     14  O   UNL     1      42.969   2.807  11.391  0.00  0.00    +0.000 OA
ATOM     15  H   UNL     1      44.431   1.570   9.863  0.00  0.00    +0.000 HD
ATOM     16  H   UNL     1      45.789   2.634   9.967  0.00  0.00    +0.000 HD
ENDBRANCH   4  13
ENDBRANCH   1   8
BRANCH   1  17
ATOM     17  C   UNL     1      48.044   8.368  14.532  0.00  0.00    +0.000 A 
ATOM     18  C   UNL     1      48.271   9.426  15.424  0.00  0.00    +0.000 A 
ATOM     19  C   UNL     1      48.819   9.205  16.687  0.00  0.00    +0.000 A 
ATOM     20  C   UNL     1      49.120   7.906  17.099  0.00  0.00    +0.000 A 
ATOM     21  C   UNL     1      48.882   6.805  16.261  0.00  0.00    +0.000 A 
ATOM     22  C   UNL     1      48.386   7.073  14.970  0.00  0.00    +0.000 A 
BRANCH  21  23
ATOM     23  C   UNL     1      49.018   5.412  16.743  0.00  0.00    +0.000 A 
ATOM     24  C   UNL     1      50.256   4.938  17.220  0.00  0.00    +0.000 A 
ATOM     25  C   UNL     1      50.387   3.666  17.791  0.00  0.00    +0.000 A 
ATOM     26  C   UNL     1      49.274   2.843  17.903  0.00  0.00    +0.000 A 
ATOM     27  C   UNL     1      48.050   3.287  17.422  0.00  0.00    +0.000 A 
ATOM     28  F   UNL     1      46.971   2.503  17.547  0.00  0.00    +0.000 F 
ATOM     29  C   UNL     1      47.915   4.548  16.840  0.00  0.00    +0.000 A 
ENDBRANCH  21  23
ENDBRANCH   1  17
TORSDOF 4
ENDMDL
MODEL 7
REMARK VINA RESULT:    -6.592      4.231      6.983
REMARK INTER + INTRA:          -9.377
REMARK INTER:                  -9.399
REMARK INTRA:                   0.022
REMARK UNBOUND:                -1.243
REMARK  Name = 
REMARK  4 active torsions:
REMARK  status: ('A' for Active; 'I' for Inactive)
REMARK    1  A    between atoms: C_2  and  C_4
REMARK    2  A    between atoms: N_8  and  C_9
REMARK    3  A    between atoms: C_9  and  C_10
REMARK    4  A    between atoms: C_14  and  C_15
REMARK                            x       y       z     vdW  Elec       q    Type
REMARK                         _______ _______ _______ _____ _____    ______ ____
ROOT
ATOM      1  C   UNL     1      45.575   7.485  12.511  0.00  0.00    +0.000 C 
ATOM      2  C   UNL     1      45.737   8.658  11.555  0.00  0.00    +0.000 C 
ATOM      3  C   UNL     1      44.767   8.755  12.682  0.00  0.00    +0.000 C 
ENDROOT
BRANCH   1   8
ATOM      4  C   UNL     1      50.724   8.192  12.499  0.00  0.00    +0.000 A 
ATOM      5  C   UNL     1      49.910   7.813  11.439  0.00  0.00    +0.000 A 
ATOM      6  C   UNL     1      48.567   7.503  11.682  0.00  0.00    +0.000 A 
ATOM      7  C   UNL     1      48.072   7.572  12.978  0.00  0.00    +0.000 A 
ATOM      8  N   UNL     1      46.772   7.182  13.322  0.00  0.00    +0.000 N 
ATOM      9  N   UNL     1      48.856   7.933  14.017  0.00  0.00    +0.000 NA
ATOM     10  C   UNL     1      50.156   8.234  13.764  0.00  0.00    +0.000 A 
ATOM     11  H   UNL     1      46.687   7.411  14.312  0.00  0.00    +0.000 HD
BRANCH   4  13
ATOM     12  N   UNL     1      52.952   7.586  11.746  0.00  0.00    +0.000 N 
ATOM     13  C   UNL     1      52.156   8.521  12.349  0.00  0.00    +0.000 C 
ATOM     14  O   UNL     1      52.613   9.593  12.722  0.00  0.00    +0.000 OA
ATOM     15  H   UNL     1      53.906   7.869  11.556  0.00  0.00    +0.000 HD
ATOM     16  H   UNL     1      52.582   6.812  11.214  0.00  0.00    +0.000 HD
ENDBRANCH   4  13
ENDBRANCH   1   8
BRANCH   1  17
ATOM     17  C   UNL     1      44.856   6.233  12.013  0.00  0.00    +0.000 A 
ATOM     18  C   UNL     1      43.556   5.907  12.427  0.00  0.00    +0.000 A 
ATOM     19  C   UNL     1      42.878   4.813  11.890  0.00  0.00    +0.000 A 
ATOM     20  C   UNL     1      43.479   4.039  10.896  0.00  0.00    +0.000 A 
ATOM     21  C   UNL     1      44.765   4.340  10.420  0.00  0.00    +0.000 A 
ATOM     22  C   UNL     1      45.444   5.413  11.030  0.00  0.00    +0.000 A 
BRANCH  21  23
ATOM     23  C   UNL     1      45.345   3.651   9.245  0.00  0.00    +0.000 A 
ATOM     24  C   UNL     1      45.928   4.391   8.197  0.00  0.00    +0.000 A 
ATOM     25  C   UNL     1      46.588   3.766   7.132  0.00  0.00    +0.000 A 
ATOM     26  C   UNL     1      46.685   2.381   7.099  0.00  0.00    +0.000 A 
ATOM     27  C   UNL     1      46.102   1.635   8.115  0.00  0.00    +0.000 A 
ATOM     28  F   UNL     1      46.211   0.301   8.095  0.00  0.00    +0.000 F 
ATOM     29  C   UNL     1      45.431   2.251   9.171  0.00  0.00    +0.000 A 
ENDBRANCH  21  23
ENDBRANCH   1  17
TORSDOF 4
ENDMDL
MODEL 8
REMARK VINA RESULT:    -6.559      1.795      2.509
REMARK INTER + INTRA:          -9.336
REMARK INTER:                  -9.255
REMARK INTRA:                  -0.081
REMARK UNBOUND:                -1.243
REMARK  Name = 
REMARK  4 active torsions:
REMARK  status: ('A' for Active; 'I' for Inactive)
REMARK    1  A    between atoms: C_2  and  C_4
REMARK    2  A    between atoms: N_8  and  C_9
REMARK    3  A    between atoms: C_9  and  C_10
REMARK    4  A    between atoms: C_14  and  C_15
REMARK                            x       y       z     vdW  Elec       q    Type
REMARK                         _______ _______ _______ _____ _____    ______ ____
ROOT
ATOM      1  C   UNL     1      44.087   4.737  11.726  0.00  0.00    +0.000 C 
ATOM      2  C   UNL     1      44.664   3.759  12.738  0.00  0.00    +0.000 C 
ATOM      3  C   UNL     1      43.338   4.387  12.996  0.00  0.00    +0.000 C 
ENDROOT
BRANCH   1   8
ATOM      4  C   UNL     1      46.370   3.287   7.288  0.00  0.00    +0.000 A 
ATOM      5  C   UNL     1      46.583   4.449   8.020  0.00  0.00    +0.000 A 
ATOM      6  C   UNL     1      45.742   4.743   9.099  0.00  0.00    +0.000 A 
ATOM      7  C   UNL     1      44.705   3.874   9.416  0.00  0.00    +0.000 A 
ATOM      8  N   UNL     1      43.759   4.144  10.414  0.00  0.00    +0.000 N 
ATOM      9  N   UNL     1      44.486   2.746   8.708  0.00  0.00    +0.000 NA
ATOM     10  C   UNL     1      45.312   2.473   7.666  0.00  0.00    +0.000 A 
ATOM     11  H   UNL     1      43.182   3.305  10.455  0.00  0.00    +0.000 HD
BRANCH   4  13
ATOM     12  N   UNL     1      48.499   2.578   6.357  0.00  0.00    +0.000 N 
ATOM     13  C   UNL     1      47.189   2.898   6.122  0.00  0.00    +0.000 C 
ATOM     14  O   UNL     1      46.716   2.834   4.996  0.00  0.00    +0.000 OA
ATOM     15  H   UNL     1      49.016   2.213   5.567  0.00  0.00    +0.000 HD
ATOM     16  H   UNL     1      48.859   2.383   7.280  0.00  0.00    +0.000 HD
ENDBRANCH   4  13
ENDBRANCH   1   8
BRANCH   1  17
ATOM     17  C   UNL     1      44.713   6.126  11.616  0.00  0.00    +0.000 A 
ATOM     18  C   UNL     1      43.944   7.270  11.358  0.00  0.00    +0.000 A 
ATOM     19  C   UNL     1      44.516   8.542  11.356  0.00  0.00    +0.000 A 
ATOM     20  C   UNL     1      45.872   8.698  11.650  0.00  0.00    +0.000 A 
ATOM     21  C   UNL     1      46.681   7.590  11.949  0.00  0.00    +0.000 A 
ATOM     22  C   UNL     1      46.083   6.317  11.880  0.00  0.00    +0.000 A 
BRANCH  21  23
ATOM     23  C   UNL     1      48.068   7.746  12.442  0.00  0.00    +0.000 A 
ATOM     24  C   UNL     1      48.960   8.631  11.803  0.00  0.00    +0.000 A 
ATOM     25  C   UNL     1      50.237   8.888  12.316  0.00  0.00    +0.000 A 
ATOM     26  C   UNL     1      50.646   8.268  13.490  0.00  0.00    +0.000 A 
ATOM     27  C   UNL     1      49.787   7.381  14.124  0.00  0.00    +0.000 A 
ATOM     28  F   UNL     1      50.171   6.797  15.266  0.00  0.00    +0.000 F 
ATOM     29  C   UNL     1      48.518   7.110  13.610  0.00  0.00    +0.000 A 
ENDBRANCH  21  23
ENDBRANCH   1  17
TORSDOF 4
ENDMDL
MODEL 9
REMARK VINA RESULT:    -6.550      4.847      7.937
REMARK INTER + INTRA:          -9.325
REMARK INTER:                  -9.131
REMARK INTRA:                  -0.195
REMARK UNBOUND:                -1.243
REMARK  Name = 
REMARK  4 active torsions:
REMARK  status: ('A' for Active; 'I' for Inactive)
REMARK    1  A    between atoms: C_2  and  C_4
REMARK    2  A    between atoms: N_8  and  C_9
REMARK    3  A    between atoms: C_9  and  C_10
REMARK    4  A    between atoms: C_14  and  C_15
REMARK                            x       y       z     vdW  Elec       q    Type
REMARK                         _______ _______ _______ _____ _____    ______ ____
ROOT
ATOM      1  C   UNL     1      46.016   7.413  12.285  0.00  0.00    +0.000 C 
ATOM      2  C   UNL     1      45.970   8.735  11.534  0.00  0.00    +0.000 C 
ATOM      3  C   UNL     1      45.306   8.620  12.863  0.00  0.00    +0.000 C 
ENDROOT
BRANCH   1   8
ATOM      4  C   UNL     1      49.260   7.845  16.322  0.00  0.00    +0.000 A 
ATOM      5  C   UNL     1      48.478   8.837  15.743  0.00  0.00    +0.000 A 
ATOM      6  C   UNL     1      47.801   8.565  14.549  0.00  0.00    +0.000 A 
ATOM      7  C   UNL     1      47.927   7.314  13.959  0.00  0.00    +0.000 A 
ATOM      8  N   UNL     1      47.366   6.995  12.716  0.00  0.00    +0.000 N 
ATOM      9  N   UNL     1      48.689   6.345  14.510  0.00  0.00    +0.000 NA
ATOM     10  C   UNL     1      49.337   6.623  15.670  0.00  0.00    +0.000 A 
ATOM     11  H   UNL     1      47.569   6.004  12.588  0.00  0.00    +0.000 HD
BRANCH   4  13
ATOM     12  N   UNL     1      50.389   9.317  17.890  0.00  0.00    +0.000 N 
ATOM     13  C   UNL     1      50.027   8.037  17.569  0.00  0.00    +0.000 C 
ATOM     14  O   UNL     1      50.307   7.100  18.304  0.00  0.00    +0.000 OA
ATOM     15  H   UNL     1      50.821   9.444  18.797  0.00  0.00    +0.000 HD
ATOM     16  H   UNL     1      49.978  10.129  17.452  0.00  0.00    +0.000 HD
ENDBRANCH   4  13
ENDBRANCH   1   8
BRANCH   1  17
ATOM     17  C   UNL     1      45.166   6.252  11.771  0.00  0.00    +0.000 A 
ATOM     18  C   UNL     1      43.820   6.098  12.132  0.00  0.00    +0.000 A 
ATOM     19  C   UNL     1      43.032   5.089  11.579  0.00  0.00    +0.000 A 
ATOM     20  C   UNL     1      43.571   4.230  10.621  0.00  0.00    +0.000 A 
ATOM     21  C   UNL     1      44.903   4.360  10.196  0.00  0.00    +0.000 A 
ATOM     22  C   UNL     1      45.686   5.349  10.822  0.00  0.00    +0.000 A 
BRANCH  21  23
ATOM     23  C   UNL     1      45.439   3.585   9.054  0.00  0.00    +0.000 A 
ATOM     24  C   UNL     1      46.024   4.244   7.954  0.00  0.00    +0.000 A 
ATOM     25  C   UNL     1      46.645   3.537   6.917  0.00  0.00    +0.000 A 
ATOM     26  C   UNL     1      46.699   2.150   6.964  0.00  0.00    +0.000 A 
ATOM     27  C   UNL     1      46.113   1.484   8.032  0.00  0.00    +0.000 A 
ATOM     28  F   UNL     1      46.181   0.147   8.090  0.00  0.00    +0.000 F 
ATOM     29  C   UNL     1      45.481   2.182   9.062  0.00  0.00    +0.000 A 
ENDBRANCH  21  23
ENDBRANCH   1  17
TORSDOF 4
ENDMDL
