MODEL 1
REMARK VINA RESULT:    -9.348      0.000      0.000
REMARK INTER + INTRA:         -13.779
REMARK INTER:                 -12.626
REMARK INTRA:                  -1.152
REMARK UNBOUND:                -1.152
REMARK  Name = 
REMARK  9 active torsions:
REMARK  status: ('A' for Active; 'I' for Inactive)
REMARK    1  A    between atoms: C_1  and  C_2
REMARK    2  A    between atoms: C_4  and  O_5
REMARK    3  A    between atoms: O_5  and  C_6
REMARK    4  A    between atoms: C_6  and  C_7
REMARK    5  A    between atoms: C_7  and  C_8
REMARK    6  A    between atoms: C_7  and  C_9
REMARK    7  A    between atoms: C_7  and  C_10
REMARK    8  A    between atoms: C_15  and  C_16
REMARK    9  A    between atoms: C_25  and  C_26
REMARK                            x       y       z     vdW  Elec       q    Type
REMARK                         _______ _______ _______ _____ _____    ______ ____
ROOT
ATOM      1  C   UNL     1      43.809   4.656  12.111  0.00  0.00    +0.000 C 
ATOM      2  C   UNL     1      43.758   3.238  12.732  0.00  0.00    +0.000 C 
ATOM      3  C   UNL     1      42.682   5.512  12.719  0.00  0.00    +0.000 C 
ENDROOT
BRANCH   1   4
ATOM      4  C   UNL     1      45.184   5.295  12.416  0.00  0.00    +0.000 A 
ATOM      5  C   UNL     1      45.831   6.148  11.517  0.00  0.00    +0.000 A 
ATOM      6  C   UNL     1      47.084   6.682  11.808  0.00  0.00    +0.000 A 
ATOM      7  C   UNL     1      47.743   6.361  13.000  0.00  0.00    +0.000 A 
ATOM      8 CL   UNL     1      49.352   6.994  13.139  0.00  0.00    +0.000 Cl
ATOM      9  C   UNL     1      47.134   5.531  13.965  0.00  0.00    +0.000 A 
ATOM     10  C   UNL     1      45.851   5.021  13.634  0.00  0.00    +0.000 A 
BRANCH   9  11
ATOM     11  C   UNL     1      47.757   5.152  15.267  0.00  0.00    +0.000 A 
ATOM     12  C   UNL     1      48.588   6.019  15.990  0.00  0.00    +0.000 A 
ATOM     13  C   UNL     1      49.179   5.590  17.171  0.00  0.00    +0.000 A 
ATOM     14  N   UNL     1      48.962   4.381  17.723  0.00  0.00    +0.000 NA
ATOM     15  C   UNL     1      48.126   3.565  17.055  0.00  0.00    +0.000 A 
ATOM     16  C   UNL     1      47.524   3.893  15.846  0.00  0.00    +0.000 A 
ENDBRANCH   9  11
ENDBRANCH   1   4
BRANCH   1  17
ATOM     17  C   UNL     1      43.513   4.469  10.589  0.00  0.00    +0.000 C 
BRANCH  17  18
ATOM     18  O   UNL     1      43.719   3.109  10.187  0.00  0.00    +0.000 OA
BRANCH  18  22
ATOM     19  C   UNL     1      46.765   0.143   7.641  0.00  0.00    +0.000 C 
ATOM     20  C   UNL     1      46.214   1.515   7.919  0.00  0.00    +0.000 A 
ATOM     21  C   UNL     1      45.248   1.647   8.937  0.00  0.00    +0.000 A 
ATOM     22  C   UNL     1      44.680   2.885   9.240  0.00  0.00    +0.000 A 
ATOM     23  C   UNL     1      45.094   4.013   8.536  0.00  0.00    +0.000 A 
ATOM     24  C   UNL     1      46.056   3.906   7.526  0.00  0.00    +0.000 A 
ATOM     25  C   UNL     1      46.611   2.658   7.196  0.00  0.00    +0.000 A 
BRANCH  25  26
ATOM     26  C   UNL     1      47.624   2.573   6.101  0.00  0.00    +0.000 C 
ATOM     27  N   UNL     1      48.941   2.522   6.468  0.00  0.00    +0.000 N 
ATOM     28  O   UNL     1      47.322   2.573   4.914  0.00  0.00    +0.000 OA
ATOM     29  H   UNL     1      49.260   2.722   7.404  0.00  0.00    +0.000 HD
ATOM     30  H   UNL     1      49.618   2.557   5.717  0.00  0.00    +0.000 HD
ENDBRANCH  25  26
ENDBRANCH  18  22
ENDBRANCH  17  18
ENDBRANCH   1  17
TORSDOF 6
ENDMDL
MODEL 2
REMARK VINA RESULT:    -8.882      2.311      3.553
REMARK INTER + INTRA:         -13.150
REMARK INTER:                 -12.180
REMARK INTRA:                  -0.970
REMARK UNBOUND:                -1.152
REMARK  Name = 
REMARK  9 active torsions:
REMARK  status: ('A' for Active; 'I' for Inactive)
REMARK    1  A    between atoms: C_1  and  C_2
REMARK    2  A    between atoms: C_4  and  O_5
REMARK    3  A    between atoms: O_5  and  C_6
REMARK    4  A    between atoms: C_6  and  C_7
REMARK    5  A    between atoms: C_7  and  C_8
REMARK    6  A    between atoms: C_7  and  C_9
REMARK    7  A    between atoms: C_7  and  C_10
REMARK    8  A    between atoms: C_15  and  C_16
REMARK    9  A    between atoms: C_25  and  C_26
REMARK                            x       y       z     vdW  Elec       q    Type
REMARK                         _______ _______ _______ _____ _____    ______ ____
ROOT
ATOM      1  C   UNL     1      44.011   4.705  12.132  0.00  0.00    +0.000 C 
ATOM      2  C   UNL     1      43.002   4.590  13.302  0.00  0.00    +0.000 C 
ATOM      3  C   UNL     1      43.423   5.632  11.051  0.00  0.00    +0.000 C 
ENDROOT
BRANCH   1   4
ATOM      4  C   UNL     1      45.342   5.286  12.664  0.00  0.00    +0.000 A 
ATOM      5  C   UNL     1      46.144   4.604  13.583  0.00  0.00    +0.000 A 
ATOM      6  C   UNL     1      47.322   5.170  14.068  0.00  0.00    +0.000 A 
ATOM      7  C   UNL     1      47.724   6.448  13.666  0.00  0.00    +0.000 A 
ATOM      8 CL   UNL     1      49.133   7.059  14.472  0.00  0.00    +0.000 Cl
ATOM      9  C   UNL     1      46.977   7.179  12.718  0.00  0.00    +0.000 A 
ATOM     10  C   UNL     1      45.793   6.559  12.238  0.00  0.00    +0.000 A 
BRANCH   9  11
ATOM     11  C   UNL     1      47.341   8.539  12.222  0.00  0.00    +0.000 A 
ATOM     12  C   UNL     1      48.616   8.849  11.728  0.00  0.00    +0.000 A 
ATOM     13  C   UNL     1      48.909  10.146  11.329  0.00  0.00    +0.000 A 
ATOM     14  N   UNL     1      48.013  11.151  11.326  0.00  0.00    +0.000 NA
ATOM     15  C   UNL     1      46.775  10.843  11.754  0.00  0.00    +0.000 A 
ATOM     16  C   UNL     1      46.403   9.585  12.212  0.00  0.00    +0.000 A 
ENDBRANCH   9  11
ENDBRANCH   1   4
BRANCH   1  17
ATOM     17  C   UNL     1      44.135   3.270  11.529  0.00  0.00    +0.000 C 
BRANCH  17  18
ATOM     18  O   UNL     1      43.715   3.248  10.158  0.00  0.00    +0.000 OA
BRANCH  18  22
ATOM     19  C   UNL     1      46.736   0.185   7.700  0.00  0.00    +0.000 C 
ATOM     20  C   UNL     1      46.201   1.570   7.943  0.00  0.00    +0.000 A 
ATOM     21  C   UNL     1      45.232   1.739   8.951  0.00  0.00    +0.000 A 
ATOM     22  C   UNL     1      44.678   2.990   9.223  0.00  0.00    +0.000 A 
ATOM     23  C   UNL     1      45.111   4.096   8.495  0.00  0.00    +0.000 A 
ATOM     24  C   UNL     1      46.077   3.954   7.494  0.00  0.00    +0.000 A 
ATOM     25  C   UNL     1      46.617   2.691   7.196  0.00  0.00    +0.000 A 
BRANCH  25  26
ATOM     26  C   UNL     1      47.635   2.568   6.108  0.00  0.00    +0.000 C 
ATOM     27  N   UNL     1      48.948   2.499   6.484  0.00  0.00    +0.000 N 
ATOM     28  O   UNL     1      47.340   2.551   4.920  0.00  0.00    +0.000 OA
ATOM     29  H   UNL     1      49.266   2.709   7.419  0.00  0.00    +0.000 HD
ATOM     30  H   UNL     1      49.631   2.507   5.737  0.00  0.00    +0.000 HD
ENDBRANCH  25  26
ENDBRANCH  18  22
ENDBRANCH  17  18
ENDBRANCH   1  17
TORSDOF 6
ENDMDL
MODEL 3
REMARK VINA RESULT:    -8.605      1.961      2.457
REMARK INTER + INTRA:         -12.775
REMARK INTER:                 -11.911
REMARK INTRA:                  -0.865
REMARK UNBOUND:                -1.152
REMARK  Name = 
REMARK  9 active torsions:
REMARK  status: ('A' for Active; 'I' for Inactive)
REMARK    1  A    between atoms: C_1  and  C_2
REMARK    2  A    between atoms: C_4  and  O_5
REMARK    3  A    between atoms: O_5  and  C_6
REMARK    4  A    between atoms: C_6  and  C_7
REMARK    5  A    between atoms: C_7  and  C_8
REMARK    6  A    between atoms: C_7  and  C_9
REMARK    7  A    between atoms: C_7  and  C_10
REMARK    8  A    between atoms: C_15  and  C_16
REMARK    9  A    between atoms: C_25  and  C_26
REMARK                            x       y       z     vdW  Elec       q    Type
REMARK                         _______ _______ _______ _____ _____    ______ ____
ROOT
ATOM      1  C   UNL     1      44.128   4.798  12.111  0.00  0.00    +0.000 C 
ATOM      2  C   UNL     1      45.180   3.700  12.408  0.00  0.00    +0.000 C 
ATOM      3  C   UNL     1      43.026   4.742  13.187  0.00  0.00    +0.000 C 
ENDROOT
BRANCH   1   4
ATOM      4  C   UNL     1      44.818   6.181  12.129  0.00  0.00    +0.000 A 
ATOM      5  C   UNL     1      44.230   7.321  11.573  0.00  0.00    +0.000 A 
ATOM      6  C   UNL     1      44.892   8.546  11.577  0.00  0.00    +0.000 A 
ATOM      7  C   UNL     1      46.177   8.668  12.118  0.00  0.00    +0.000 A 
ATOM      8 CL   UNL     1      46.913  10.225  11.912  0.00  0.00    +0.000 Cl
ATOM      9  C   UNL     1      46.817   7.564  12.722  0.00  0.00    +0.000 A 
ATOM     10  C   UNL     1      46.100   6.339  12.710  0.00  0.00    +0.000 A 
BRANCH   9  11
ATOM     11  C   UNL     1      48.177   7.609  13.336  0.00  0.00    +0.000 A 
ATOM     12  C   UNL     1      48.415   7.269  14.675  0.00  0.00    +0.000 A 
ATOM     13  C   UNL     1      49.695   7.380  15.201  0.00  0.00    +0.000 A 
ATOM     14  N   UNL     1      50.773   7.747  14.484  0.00  0.00    +0.000 NA
ATOM     15  C   UNL     1      50.554   8.027  13.185  0.00  0.00    +0.000 A 
ATOM     16  C   UNL     1      49.303   7.984  12.584  0.00  0.00    +0.000 A 
ENDBRANCH   9  11
ENDBRANCH   1   4
BRANCH   1  17
ATOM     17  C   UNL     1      43.488   4.419  10.737  0.00  0.00    +0.000 C 
BRANCH  17  18
ATOM     18  O   UNL     1      43.794   3.064  10.382  0.00  0.00    +0.000 OA
BRANCH  18  22
ATOM     19  C   UNL     1      46.758   0.223   7.607  0.00  0.00    +0.000 C 
ATOM     20  C   UNL     1      46.188   1.575   7.941  0.00  0.00    +0.000 A 
ATOM     21  C   UNL     1      45.283   1.665   9.017  0.00  0.00    +0.000 A 
ATOM     22  C   UNL     1      44.701   2.882   9.375  0.00  0.00    +0.000 A 
ATOM     23  C   UNL     1      45.042   4.032   8.666  0.00  0.00    +0.000 A 
ATOM     24  C   UNL     1      45.943   3.968   7.599  0.00  0.00    +0.000 A 
ATOM     25  C   UNL     1      46.509   2.741   7.215  0.00  0.00    +0.000 A 
BRANCH  25  26
ATOM     26  C   UNL     1      47.456   2.700   6.059  0.00  0.00    +0.000 C 
ATOM     27  N   UNL     1      48.785   2.549   6.343  0.00  0.00    +0.000 N 
ATOM     28  O   UNL     1      47.091   2.821   4.896  0.00  0.00    +0.000 OA
ATOM     29  H   UNL     1      49.166   2.647   7.273  0.00  0.00    +0.000 HD
ATOM     30  H   UNL     1      49.423   2.614   5.560  0.00  0.00    +0.000 HD
ENDBRANCH  25  26
ENDBRANCH  18  22
ENDBRANCH  17  18
ENDBRANCH   1  17
TORSDOF 6
ENDMDL
MODEL 4
REMARK VINA RESULT:    -6.964      3.360      8.569
REMARK INTER + INTRA:         -10.559
REMARK INTER:                  -9.329
REMARK INTRA:                  -1.230
REMARK UNBOUND:                -1.152
REMARK  Name = 
REMARK  9 active torsions:
REMARK  status: ('A' for Active; 'I' for Inactive)
REMARK    1  A    between atoms: C_1  and  C_2
REMARK    2  A    between atoms: C_4  and  O_5
REMARK    3  A    between atoms: O_5  and  C_6
REMARK    4  A    between atoms: C_6  and  C_7
REMARK    5  A    between atoms: C_7  and  C_8
REMARK    6  A    between atoms: C_7  and  C_9
REMARK    7  A    between atoms: C_7  and  C_10
REMARK    8  A    between atoms: C_15  and  C_16
REMARK    9  A    between atoms: C_25  and  C_26
REMARK                            x       y       z     vdW  Elec       q    Type
REMARK                         _______ _______ _______ _____ _____    ______ ____
ROOT
ATOM      1  C   UNL     1      48.379   8.037  12.480  0.00  0.00    +0.000 C 
ATOM      2  C   UNL     1      49.357   7.485  11.413  0.00  0.00    +0.000 C 
ATOM      3  C   UNL     1      48.425   9.577  12.454  0.00  0.00    +0.000 C 
ENDROOT
BRANCH   1   4
ATOM      4  C   UNL     1      46.949   7.544  12.162  0.00  0.00    +0.000 A 
ATOM      5  C   UNL     1      45.810   8.138  12.713  0.00  0.00    +0.000 A 
ATOM      6  C   UNL     1      44.536   7.649  12.431  0.00  0.00    +0.000 A 
ATOM      7  C   UNL     1      44.360   6.534  11.605  0.00  0.00    +0.000 A 
ATOM      8 CL   UNL     1      42.725   5.970  11.475  0.00  0.00    +0.000 Cl
ATOM      9  C   UNL     1      45.464   5.904  10.992  0.00  0.00    +0.000 A 
ATOM     10  C   UNL     1      46.743   6.444  11.293  0.00  0.00    +0.000 A 
BRANCH   9  11
ATOM     11  C   UNL     1      45.366   4.722  10.086  0.00  0.00    +0.000 A 
ATOM     12  C   UNL     1      44.840   3.491  10.501  0.00  0.00    +0.000 A 
ATOM     13  C   UNL     1      44.823   2.413   9.625  0.00  0.00    +0.000 A 
ATOM     14  N   UNL     1      45.235   2.479   8.345  0.00  0.00    +0.000 NA
ATOM     15  C   UNL     1      45.695   3.674   7.931  0.00  0.00    +0.000 A 
ATOM     16  C   UNL     1      45.789   4.794   8.747  0.00  0.00    +0.000 A 
ENDBRANCH   9  11
ENDBRANCH   1   4
BRANCH   1  17
ATOM     17  C   UNL     1      48.931   7.555  13.859  0.00  0.00    +0.000 C 
BRANCH  17  18
ATOM     18  O   UNL     1      48.544   6.201  14.124  0.00  0.00    +0.000 OA
BRANCH  18  22
ATOM     19  C   UNL     1      47.150   3.054  17.690  0.00  0.00    +0.000 C 
ATOM     20  C   UNL     1      47.739   4.376  17.275  0.00  0.00    +0.000 A 
ATOM     21  C   UNL     1      47.834   4.655  15.898  0.00  0.00    +0.000 A 
ATOM     22  C   UNL     1      48.383   5.852  15.437  0.00  0.00    +0.000 A 
ATOM     23  C   UNL     1      48.824   6.796  16.361  0.00  0.00    +0.000 A 
ATOM     24  C   UNL     1      48.734   6.544  17.733  0.00  0.00    +0.000 A 
ATOM     25  C   UNL     1      48.209   5.328  18.203  0.00  0.00    +0.000 A 
BRANCH  25  26
ATOM     26  C   UNL     1      48.140   5.079  19.675  0.00  0.00    +0.000 C 
ATOM     27  N   UNL     1      47.088   5.627  20.355  0.00  0.00    +0.000 N 
ATOM     28  O   UNL     1      48.989   4.437  20.281  0.00  0.00    +0.000 OA
ATOM     29  H   UNL     1      46.477   6.325  19.956  0.00  0.00    +0.000 HD
ATOM     30  H   UNL     1      47.102   5.528  21.362  0.00  0.00    +0.000 HD
ENDBRANCH  25  26
ENDBRANCH  18  22
ENDBRANCH  17  18
ENDBRANCH   1  17
TORSDOF 6
ENDMDL
MODEL 5
REMARK VINA RESULT:    -6.898      3.243      5.188
REMARK INTER + INTRA:         -10.470
REMARK INTER:                  -8.787
REMARK INTRA:                  -1.683
REMARK UNBOUND:                -1.152
REMARK  Name = 
REMARK  9 active torsions:
REMARK  status: ('A' for Active; 'I' for Inactive)
REMARK    1  A    between atoms: C_1  and  C_2
REMARK    2  A    between atoms: C_4  and  O_5
REMARK    3  A    between atoms: O_5  and  C_6
REMARK    4  A    between atoms: C_6  and  C_7
REMARK    5  A    between atoms: C_7  and  C_8
REMARK    6  A    between atoms: C_7  and  C_9
REMARK    7  A    between atoms: C_7  and  C_10
REMARK    8  A    between atoms: C_15  and  C_16
REMARK    9  A    between atoms: C_25  and  C_26
REMARK                            x       y       z     vdW  Elec       q    Type
REMARK                         _______ _______ _______ _____ _____    ______ ____
ROOT
ATOM      1  C   UNL     1      48.677   8.619  12.853  0.00  0.00    +0.000 C 
ATOM      2  C   UNL     1      49.440   9.932  12.548  0.00  0.00    +0.000 C 
ATOM      3  C   UNL     1      49.402   7.446  12.166  0.00  0.00    +0.000 C 
ENDROOT
BRANCH   1   4
ATOM      4  C   UNL     1      48.640   8.396  14.382  0.00  0.00    +0.000 A 
ATOM      5  C   UNL     1      48.440   9.443  15.288  0.00  0.00    +0.000 A 
ATOM      6  C   UNL     1      48.444   9.214  16.662  0.00  0.00    +0.000 A 
ATOM      7  C   UNL     1      48.671   7.933  17.178  0.00  0.00    +0.000 A 
ATOM      8 CL   UNL     1      48.787   7.851  18.907  0.00  0.00    +0.000 Cl
ATOM      9  C   UNL     1      48.850   6.827  16.320  0.00  0.00    +0.000 A 
ATOM     10  C   UNL     1      48.823   7.102  14.927  0.00  0.00    +0.000 A 
BRANCH   9  11
ATOM     11  C   UNL     1      49.081   5.428  16.784  0.00  0.00    +0.000 A 
ATOM     12  C   UNL     1      50.286   5.012  17.367  0.00  0.00    +0.000 A 
ATOM     13  C   UNL     1      50.458   3.683  17.732  0.00  0.00    +0.000 A 
ATOM     14  N   UNL     1      49.501   2.743  17.617  0.00  0.00    +0.000 NA
ATOM     15  C   UNL     1      48.327   3.152  17.101  0.00  0.00    +0.000 A 
ATOM     16  C   UNL     1      48.079   4.449  16.670  0.00  0.00    +0.000 A 
ENDBRANCH   9  11
ENDBRANCH   1   4
BRANCH   1  17
ATOM     17  C   UNL     1      47.270   8.776  12.194  0.00  0.00    +0.000 C 
BRANCH  17  18
ATOM     18  O   UNL     1      46.256   8.140  12.984  0.00  0.00    +0.000 OA
BRANCH  18  22
ATOM     19  C   UNL     1      46.258   3.190  13.217  0.00  0.00    +0.000 C 
ATOM     20  C   UNL     1      45.749   4.465  12.602  0.00  0.00    +0.000 A 
ATOM     21  C   UNL     1      46.270   5.685  13.078  0.00  0.00    +0.000 A 
ATOM     22  C   UNL     1      45.834   6.908  12.568  0.00  0.00    +0.000 A 
ATOM     23  C   UNL     1      44.881   6.918  11.552  0.00  0.00    +0.000 A 
ATOM     24  C   UNL     1      44.356   5.720  11.058  0.00  0.00    +0.000 A 
ATOM     25  C   UNL     1      44.769   4.486  11.588  0.00  0.00    +0.000 A 
BRANCH  25  26
ATOM     26  C   UNL     1      44.176   3.223  11.053  0.00  0.00    +0.000 C 
ATOM     27  N   UNL     1      44.919   2.518  10.146  0.00  0.00    +0.000 N 
ATOM     28  O   UNL     1      43.064   2.822  11.373  0.00  0.00    +0.000 OA
ATOM     29  H   UNL     1      45.740   2.893   9.695  0.00  0.00    +0.000 HD
ATOM     30  H   UNL     1      44.470   1.715   9.724  0.00  0.00    +0.000 HD
ENDBRANCH  25  26
ENDBRANCH  18  22
ENDBRANCH  17  18
ENDBRANCH   1  17
TORSDOF 6
ENDMDL
MODEL 6
REMARK VINA RESULT:    -6.888      3.972      6.274
REMARK INTER + INTRA:         -10.456
REMARK INTER:                  -8.652
REMARK INTRA:                  -1.805
REMARK UNBOUND:                -1.152
REMARK  Name = 
REMARK  9 active torsions:
REMARK  status: ('A' for Active; 'I' for Inactive)
REMARK    1  A    between atoms: C_1  and  C_2
REMARK    2  A    between atoms: C_4  and  O_5
REMARK    3  A    between atoms: O_5  and  C_6
REMARK    4  A    between atoms: C_6  and  C_7
REMARK    5  A    between atoms: C_7  and  C_8
REMARK    6  A    between atoms: C_7  and  C_9
REMARK    7  A    between atoms: C_7  and  C_10
REMARK    8  A    between atoms: C_15  and  C_16
REMARK    9  A    between atoms: C_25  and  C_26
REMARK                            x       y       z     vdW  Elec       q    Type
REMARK                         _______ _______ _______ _____ _____    ______ ____
ROOT
ATOM      1  C   UNL     1      48.956   9.094  15.395  0.00  0.00    +0.000 C 
ATOM      2  C   UNL     1      48.957  10.547  15.930  0.00  0.00    +0.000 C 
ATOM      3  C   UNL     1      50.318   8.800  14.737  0.00  0.00    +0.000 C 
ENDROOT
BRANCH   1   4
ATOM      4  C   UNL     1      48.714   8.120  16.571  0.00  0.00    +0.000 A 
ATOM      5  C   UNL     1      48.172   8.536  17.791  0.00  0.00    +0.000 A 
ATOM      6  C   UNL     1      47.996   7.639  18.842  0.00  0.00    +0.000 A 
ATOM      7  C   UNL     1      48.378   6.299  18.717  0.00  0.00    +0.000 A 
ATOM      8 CL   UNL     1      48.224   5.356  20.164  0.00  0.00    +0.000 Cl
ATOM      9  C   UNL     1      48.903   5.805  17.503  0.00  0.00    +0.000 A 
ATOM     10  C   UNL     1      49.051   6.749  16.453  0.00  0.00    +0.000 A 
BRANCH   9  11
ATOM     11  C   UNL     1      49.320   4.390  17.277  0.00  0.00    +0.000 A 
ATOM     12  C   UNL     1      50.585   3.906  17.637  0.00  0.00    +0.000 A 
ATOM     13  C   UNL     1      50.932   2.592  17.354  0.00  0.00    +0.000 A 
ATOM     14  N   UNL     1      50.095   1.699  16.793  0.00  0.00    +0.000 NA
ATOM     15  C   UNL     1      48.862   2.149  16.492  0.00  0.00    +0.000 A 
ATOM     16  C   UNL     1      48.443   3.457  16.699  0.00  0.00    +0.000 A 
ENDBRANCH   9  11
ENDBRANCH   1   4
BRANCH   1  17
ATOM     17  C   UNL     1      47.858   9.045  14.286  0.00  0.00    +0.000 C 
BRANCH  17  18
ATOM     18  O   UNL     1      48.181   8.073  13.283  0.00  0.00    +0.000 OA
BRANCH  18  22
ATOM     19  C   UNL     1      43.914   6.352  11.441  0.00  0.00    +0.000 C 
ATOM     20  C   UNL     1      45.193   6.122  12.200  0.00  0.00    +0.000 A 
ATOM     21  C   UNL     1      46.056   7.218  12.392  0.00  0.00    +0.000 A 
ATOM     22  C   UNL     1      47.266   7.078  13.072  0.00  0.00    +0.000 A 
ATOM     23  C   UNL     1      47.613   5.832  13.589  0.00  0.00    +0.000 A 
ATOM     24  C   UNL     1      46.769   4.731  13.417  0.00  0.00    +0.000 A 
ATOM     25  C   UNL     1      45.563   4.859  12.708  0.00  0.00    +0.000 A 
BRANCH  25  26
ATOM     26  C   UNL     1      44.689   3.661  12.525  0.00  0.00    +0.000 C 
ATOM     27  N   UNL     1      44.975   2.831  11.476  0.00  0.00    +0.000 N 
ATOM     28  O   UNL     1      43.733   3.417  13.251  0.00  0.00    +0.000 OA
ATOM     29  H   UNL     1      45.611   3.080  10.733  0.00  0.00    +0.000 HD
ATOM     30  H   UNL     1      44.323   2.075  11.310  0.00  0.00    +0.000 HD
ENDBRANCH  25  26
ENDBRANCH  18  22
ENDBRANCH  17  18
ENDBRANCH   1  17
TORSDOF 6
ENDMDL
MODEL 7
REMARK VINA RESULT:    -6.735      3.082      7.974
REMARK INTER + INTRA:         -10.249
REMARK INTER:                  -9.185
REMARK INTRA:                  -1.064
REMARK UNBOUND:                -1.152
REMARK  Name = 
REMARK  9 active torsions:
REMARK  status: ('A' for Active; 'I' for Inactive)
REMARK    1  A    between atoms: C_1  and  C_2
REMARK    2  A    between atoms: C_4  and  O_5
REMARK    3  A    between atoms: O_5  and  C_6
REMARK    4  A    between atoms: C_6  and  C_7
REMARK    5  A    between atoms: C_7  and  C_8
REMARK    6  A    between atoms: C_7  and  C_9
REMARK    7  A    between atoms: C_7  and  C_10
REMARK    8  A    between atoms: C_15  and  C_16
REMARK    9  A    between atoms: C_25  and  C_26
REMARK                            x       y       z     vdW  Elec       q    Type
REMARK                         _______ _______ _______ _____ _____    ______ ____
ROOT
ATOM      1  C   UNL     1      46.364   8.058  12.261  0.00  0.00    +0.000 C 
ATOM      2  C   UNL     1      47.648   7.974  11.398  0.00  0.00    +0.000 C 
ATOM      3  C   UNL     1      45.571   9.316  11.859  0.00  0.00    +0.000 C 
ENDROOT
BRANCH   1   4
ATOM      4  C   UNL     1      45.508   6.792  12.021  0.00  0.00    +0.000 A 
ATOM      5  C   UNL     1      44.455   6.429  12.865  0.00  0.00    +0.000 A 
ATOM      6  C   UNL     1      43.723   5.265  12.639  0.00  0.00    +0.000 A 
ATOM      7  C   UNL     1      44.036   4.413  11.575  0.00  0.00    +0.000 A 
ATOM      8 CL   UNL     1      43.123   2.939  11.524  0.00  0.00    +0.000 Cl
ATOM      9  C   UNL     1      45.068   4.735  10.667  0.00  0.00    +0.000 A 
ATOM     10  C   UNL     1      45.778   5.938  10.925  0.00  0.00    +0.000 A 
BRANCH   9  11
ATOM     11  C   UNL     1      45.457   3.893   9.498  0.00  0.00    +0.000 A 
ATOM     12  C   UNL     1      45.947   4.438   8.302  0.00  0.00    +0.000 A 
ATOM     13  C   UNL     1      46.244   3.605   7.231  0.00  0.00    +0.000 A 
ATOM     14  N   UNL     1      46.149   2.263   7.275  0.00  0.00    +0.000 NA
ATOM     15  C   UNL     1      45.725   1.736   8.438  0.00  0.00    +0.000 A 
ATOM     16  C   UNL     1      45.365   2.492   9.547  0.00  0.00    +0.000 A 
ENDBRANCH   9  11
ENDBRANCH   1   4
BRANCH   1  17
ATOM     17  C   UNL     1      46.847   8.235  13.735  0.00  0.00    +0.000 C 
BRANCH  17  18
ATOM     18  O   UNL     1      48.149   7.664  13.923  0.00  0.00    +0.000 OA
BRANCH  18  22
ATOM     19  C   UNL     1      49.810   5.542  18.083  0.00  0.00    +0.000 C 
ATOM     20  C   UNL     1      48.993   5.473  16.821  0.00  0.00    +0.000 A 
ATOM     21  C   UNL     1      48.987   6.598  15.972  0.00  0.00    +0.000 A 
ATOM     22  C   UNL     1      48.241   6.613  14.794  0.00  0.00    +0.000 A 
ATOM     23  C   UNL     1      47.506   5.483  14.441  0.00  0.00    +0.000 A 
ATOM     24  C   UNL     1      47.502   4.353  15.264  0.00  0.00    +0.000 A 
ATOM     25  C   UNL     1      48.228   4.342  16.467  0.00  0.00    +0.000 A 
BRANCH  25  26
ATOM     26  C   UNL     1      48.191   3.126  17.335  0.00  0.00    +0.000 C 
ATOM     27  N   UNL     1      47.063   2.923  18.081  0.00  0.00    +0.000 N 
ATOM     28  O   UNL     1      49.125   2.338  17.416  0.00  0.00    +0.000 OA
ATOM     29  H   UNL     1      46.354   3.629  18.212  0.00  0.00    +0.000 HD
ATOM     30  H   UNL     1      47.087   2.147  18.731  0.00  0.00    +0.000 HD
ENDBRANCH  25  26
ENDBRANCH  18  22
ENDBRANCH  17  18
ENDBRANCH   1  17
TORSDOF 6
ENDMDL
MODEL 8
REMARK VINA RESULT:    -6.683      4.523      8.361
REMARK INTER + INTRA:         -10.179
REMARK INTER:                  -8.209
REMARK INTRA:                  -1.970
REMARK UNBOUND:                -1.152
REMARK  Name = 
REMARK  9 active torsions:
REMARK  status: ('A' for Active; 'I' for Inactive)
REMARK    1  A    between atoms: C_1  and  C_2
REMARK    2  A    between atoms: C_4  and  O_5
REMARK    3  A    between atoms: O_5  and  C_6
REMARK    4  A    between atoms: C_6  and  C_7
REMARK    5  A    between atoms: C_7  and  C_8
REMARK    6  A    between atoms: C_7  and  C_9
REMARK    7  A    between atoms: C_7  and  C_10
REMARK    8  A    between atoms: C_15  and  C_16
REMARK    9  A    between atoms: C_25  and  C_26
REMARK                            x       y       z     vdW  Elec       q    Type
REMARK                         _______ _______ _______ _____ _____    ______ ____
ROOT
ATOM      1  C   UNL     1      49.362   9.208  17.477  0.00  0.00    +0.000 C 
ATOM      2  C   UNL     1      50.062  10.581  17.633  0.00  0.00    +0.000 C 
ATOM      3  C   UNL     1      47.859   9.373  17.772  0.00  0.00    +0.000 C 
ENDROOT
BRANCH   1   4
ATOM      4  C   UNL     1      49.566   8.696  16.032  0.00  0.00    +0.000 A 
ATOM      5  C   UNL     1      50.661   9.074  15.249  0.00  0.00    +0.000 A 
ATOM      6  C   UNL     1      50.798   8.621  13.939  0.00  0.00    +0.000 A 
ATOM      7  C   UNL     1      49.831   7.792  13.359  0.00  0.00    +0.000 A 
ATOM      8 CL   UNL     1      50.083   7.439  11.680  0.00  0.00    +0.000 Cl
ATOM      9  C   UNL     1      48.716   7.349  14.102  0.00  0.00    +0.000 A 
ATOM     10  C   UNL     1      48.623   7.822  15.438  0.00  0.00    +0.000 A 
BRANCH   9  11
ATOM     11  C   UNL     1      47.648   6.453  13.568  0.00  0.00    +0.000 A 
ATOM     12  C   UNL     1      46.906   6.760  12.419  0.00  0.00    +0.000 A 
ATOM     13  C   UNL     1      45.890   5.910  12.002  0.00  0.00    +0.000 A 
ATOM     14  N   UNL     1      45.592   4.744  12.605  0.00  0.00    +0.000 NA
ATOM     15  C   UNL     1      46.336   4.425  13.680  0.00  0.00    +0.000 A 
ATOM     16  C   UNL     1      47.343   5.233  14.194  0.00  0.00    +0.000 A 
ENDBRANCH   9  11
ENDBRANCH   1   4
BRANCH   1  17
ATOM     17  C   UNL     1      49.977   8.284  18.575  0.00  0.00    +0.000 C 
BRANCH  17  18
ATOM     18  O   UNL     1      49.028   7.304  19.015  0.00  0.00    +0.000 OA
BRANCH  18  22
ATOM     19  C   UNL     1      47.258   2.917  17.537  0.00  0.00    +0.000 C 
ATOM     20  C   UNL     1      48.424   3.839  17.775  0.00  0.00    +0.000 A 
ATOM     21  C   UNL     1      48.160   5.119  18.303  0.00  0.00    +0.000 A 
ATOM     22  C   UNL     1      49.187   6.033  18.535  0.00  0.00    +0.000 A 
ATOM     23  C   UNL     1      50.501   5.662  18.259  0.00  0.00    +0.000 A 
ATOM     24  C   UNL     1      50.788   4.396  17.742  0.00  0.00    +0.000 A 
ATOM     25  C   UNL     1      49.755   3.480  17.478  0.00  0.00    +0.000 A 
BRANCH  25  26
ATOM     26  C   UNL     1      50.090   2.140  16.909  0.00  0.00    +0.000 C 
ATOM     27  N   UNL     1      50.892   1.324  17.658  0.00  0.00    +0.000 N 
ATOM     28  O   UNL     1      49.700   1.768  15.809  0.00  0.00    +0.000 OA
ATOM     29  H   UNL     1      51.405   1.645  18.466  0.00  0.00    +0.000 HD
ATOM     30  H   UNL     1      51.186   0.459  17.223  0.00  0.00    +0.000 HD
ENDBRANCH  25  26
ENDBRANCH  18  22
ENDBRANCH  17  18
ENDBRANCH   1  17
TORSDOF 6
ENDMDL
MODEL 9
REMARK VINA RESULT:    -6.517      4.849      9.162
REMARK INTER + INTRA:          -9.955
REMARK INTER:                  -8.862
REMARK INTRA:                  -1.093
REMARK UNBOUND:                -1.152
REMARK  Name = 
REMARK  9 active torsions:
REMARK  status: ('A' for Active; 'I' for Inactive)
REMARK    1  A    between atoms: C_1  and  C_2
REMARK    2  A    between atoms: C_4  and  O_5
REMARK    3  A    between atoms: O_5  and  C_6
REMARK    4  A    between atoms: C_6  and  C_7
REMARK    5  A    between atoms: C_7  and  C_8
REMARK    6  A    between atoms: C_7  and  C_9
REMARK    7  A    between atoms: C_7  and  C_10
REMARK    8  A    between atoms: C_15  and  C_16
REMARK    9  A    between atoms: C_25  and  C_26
REMARK                            x       y       z     vdW  Elec       q    Type
REMARK                         _______ _______ _______ _____ _____    ______ ____
ROOT
ATOM      1  C   UNL     1      47.910   4.524  17.290  0.00  0.00    +0.000 C 
ATOM      2  C   UNL     1      47.328   5.514  18.331  0.00  0.00    +0.000 C 
ATOM      3  C   UNL     1      47.155   3.184  17.395  0.00  0.00    +0.000 C 
ENDROOT
BRANCH   1   4
ATOM      4  C   UNL     1      47.740   5.119  15.873  0.00  0.00    +0.000 A 
ATOM      5  C   UNL     1      48.585   6.112  15.371  0.00  0.00    +0.000 A 
ATOM      6  C   UNL     1      48.386   6.651  14.101  0.00  0.00    +0.000 A 
ATOM      7  C   UNL     1      47.319   6.229  13.300  0.00  0.00    +0.000 A 
ATOM      8 CL   UNL     1      47.131   7.102  11.813  0.00  0.00    +0.000 Cl
ATOM      9  C   UNL     1      46.445   5.209  13.734  0.00  0.00    +0.000 A 
ATOM     10  C   UNL     1      46.694   4.677  15.027  0.00  0.00    +0.000 A 
BRANCH   9  11
ATOM     11  C   UNL     1      45.294   4.688  12.939  0.00  0.00    +0.000 A 
ATOM     12  C   UNL     1      44.096   5.399  12.786  0.00  0.00    +0.000 A 
ATOM     13  C   UNL     1      43.043   4.839  12.076  0.00  0.00    +0.000 A 
ATOM     14  N   UNL     1      43.107   3.647  11.454  0.00  0.00    +0.000 NA
ATOM     15  C   UNL     1      44.274   2.984  11.559  0.00  0.00    +0.000 A 
ATOM     16  C   UNL     1      45.365   3.447  12.283  0.00  0.00    +0.000 A 
ENDBRANCH   9  11
ENDBRANCH   1   4
BRANCH   1  17
ATOM     17  C   UNL     1      49.394   4.282  17.710  0.00  0.00    +0.000 C 
BRANCH  17  18
ATOM     18  O   UNL     1      49.971   3.201  16.965  0.00  0.00    +0.000 OA
BRANCH  18  22
ATOM     19  C   UNL     1      54.562   3.913  18.690  0.00  0.00    +0.000 C 
ATOM     20  C   UNL     1      53.469   2.982  18.240  0.00  0.00    +0.000 A 
ATOM     21  C   UNL     1      52.257   3.548  17.798  0.00  0.00    +0.000 A 
ATOM     22  C   UNL     1      51.192   2.748  17.382  0.00  0.00    +0.000 A 
ATOM     23  C   UNL     1      51.343   1.363  17.383  0.00  0.00    +0.000 A 
ATOM     24  C   UNL     1      52.540   0.780  17.810  0.00  0.00    +0.000 A 
ATOM     25  C   UNL     1      53.605   1.579  18.258  0.00  0.00    +0.000 A 
BRANCH  25  26
ATOM     26  C   UNL     1      54.865   0.926  18.726  0.00  0.00    +0.000 C 
ATOM     27  N   UNL     1      54.994   0.700  20.069  0.00  0.00    +0.000 N 
ATOM     28  O   UNL     1      55.775   0.616  17.966  0.00  0.00    +0.000 OA
ATOM     29  H   UNL     1      54.380   1.110  20.758  0.00  0.00    +0.000 HD
ATOM     30  H   UNL     1      55.887   0.342  20.381  0.00  0.00    +0.000 HD
ENDBRANCH  25  26
ENDBRANCH  18  22
ENDBRANCH  17  18
ENDBRANCH   1  17
TORSDOF 6
ENDMDL
