MODEL 1
REMARK VINA RESULT:    -9.206      0.000      0.000
REMARK INTER + INTRA:         -11.423
REMARK INTER:                 -11.358
REMARK INTRA:                  -0.065
REMARK UNBOUND:                -0.065
REMARK  Name = 
REMARK  4 active torsions:
REMARK  status: ('A' for Active; 'I' for Inactive)
REMARK    1  A    between atoms: C_2  and  C_4
REMARK    2  A    between atoms: N_8  and  C_9
REMARK    3  A    between atoms: C_9  and  C_10
REMARK    4  A    between atoms: C_12  and  C_13
REMARK                            x       y       z     vdW  Elec       q    Type
REMARK                         _______ _______ _______ _____ _____    ______ ____
ROOT
ATOM      1  C   UNL     1      43.877   4.698  11.582  0.00  0.00    +0.000 C 
ATOM      2  C   UNL     1      42.547   5.142  12.170  0.00  0.00    +0.000 C 
ATOM      3  C   UNL     1      43.132   5.906  11.028  0.00  0.00    +0.000 C 
ENDROOT
BRANCH   1   8
ATOM      4  C   UNL     1      46.446   2.758   7.561  0.00  0.00    +0.000 A 
ATOM      5  C   UNL     1      46.130   4.077   7.875  0.00  0.00    +0.000 A 
ATOM      6  C   UNL     1      45.271   4.336   8.946  0.00  0.00    +0.000 A 
ATOM      7  C   UNL     1      44.759   3.275   9.690  0.00  0.00    +0.000 A 
ATOM      8  N   UNL     1      43.909   3.457  10.784  0.00  0.00    +0.000 N 
ATOM      9  N   UNL     1      45.040   1.993   9.380  0.00  0.00    +0.000 NA
ATOM     10  C   UNL     1      45.863   1.757   8.323  0.00  0.00    +0.000 A 
ATOM     11  H   UNL     1      43.777   2.559  11.238  0.00  0.00    +0.000 HD
BRANCH   4  13
ATOM     12  N   UNL     1      47.298   3.141   5.317  0.00  0.00    +0.000 N 
ATOM     13  C   UNL     1      47.351   2.382   6.455  0.00  0.00    +0.000 C 
ATOM     14  O   UNL     1      48.141   1.455   6.561  0.00  0.00    +0.000 OA
ATOM     15  H   UNL     1      47.991   2.937   4.609  0.00  0.00    +0.000 HD
ATOM     16  H   UNL     1      46.851   4.045   5.286  0.00  0.00    +0.000 HD
ENDBRANCH   4  13
ENDBRANCH   1   8
BRANCH   1  17
ATOM     17  C   UNL     1      45.192   5.034  12.309  0.00  0.00    +0.000 A 
ATOM     18  C   UNL     1      45.944   6.151  11.922  0.00  0.00    +0.000 A 
ATOM     19  C   UNL     1      47.123   6.510  12.594  0.00  0.00    +0.000 A 
ATOM     20  C   UNL     1      47.498   5.700  13.669  0.00  0.00    +0.000 A 
ATOM     21  C   UNL     1      46.712   4.610  14.006  0.00  0.00    +0.000 A 
ATOM     22  N   UNL     1      45.590   4.259  13.351  0.00  0.00    +0.000 NA
BRANCH  19  23
ATOM     23  C   UNL     1      47.921   7.691  12.191  0.00  0.00    +0.000 A 
ATOM     24  C   UNL     1      49.272   7.598  11.825  0.00  0.00    +0.000 A 
ATOM     25  C   UNL     1      49.991   8.735  11.448  0.00  0.00    +0.000 A 
ATOM     26  C   UNL     1      49.343   9.955  11.453  0.00  0.00    +0.000 A 
ATOM     27  N   UNL     1      48.050  10.106  11.798  0.00  0.00    +0.000 NA
ATOM     28  C   UNL     1      47.379   8.979  12.149  0.00  0.00    +0.000 A 
ENDBRANCH  19  23
ENDBRANCH   1  17
TORSDOF 4
ENDMDL
MODEL 2
REMARK VINA RESULT:    -8.941      1.767      3.464
REMARK INTER + INTRA:         -11.096
REMARK INTER:                 -11.088
REMARK INTRA:                  -0.009
REMARK UNBOUND:                -0.065
REMARK  Name = 
REMARK  4 active torsions:
REMARK  status: ('A' for Active; 'I' for Inactive)
REMARK    1  A    between atoms: C_2  and  C_4
REMARK    2  A    between atoms: N_8  and  C_9
REMARK    3  A    between atoms: C_9  and  C_10
REMARK    4  A    between atoms: C_12  and  C_13
REMARK                            x       y       z     vdW  Elec       q    Type
REMARK                         _______ _______ _______ _____ _____    ______ ____
ROOT
ATOM      1  C   UNL     1      43.956   4.797  11.572  0.00  0.00    +0.000 C 
ATOM      2  C   UNL     1      42.650   5.158  12.261  0.00  0.00    +0.000 C 
ATOM      3  C   UNL     1      43.038   5.876  11.010  0.00  0.00    +0.000 C 
ENDROOT
BRANCH   1   8
ATOM      4  C   UNL     1      46.434   2.739   7.552  0.00  0.00    +0.000 A 
ATOM      5  C   UNL     1      46.032   4.052   7.785  0.00  0.00    +0.000 A 
ATOM      6  C   UNL     1      45.219   4.330   8.887  0.00  0.00    +0.000 A 
ATOM      7  C   UNL     1      44.837   3.297   9.740  0.00  0.00    +0.000 A 
ATOM      8  N   UNL     1      44.040   3.502  10.869  0.00  0.00    +0.000 N 
ATOM      9  N   UNL     1      45.201   2.019   9.510  0.00  0.00    +0.000 NA
ATOM     10  C   UNL     1      45.978   1.761   8.424  0.00  0.00    +0.000 A 
ATOM     11  H   UNL     1      44.008   2.636  11.398  0.00  0.00    +0.000 HD
BRANCH   4  13
ATOM     12  N   UNL     1      47.294   3.151   5.316  0.00  0.00    +0.000 N 
ATOM     13  C   UNL     1      47.300   2.344   6.421  0.00  0.00    +0.000 C 
ATOM     14  O   UNL     1      48.020   1.358   6.481  0.00  0.00    +0.000 OA
ATOM     15  H   UNL     1      47.964   2.927   4.592  0.00  0.00    +0.000 HD
ATOM     16  H   UNL     1      46.914   4.087   5.327  0.00  0.00    +0.000 HD
ENDBRANCH   4  13
ENDBRANCH   1   8
BRANCH   1  17
ATOM     17  C   UNL     1      45.293   5.319  12.129  0.00  0.00    +0.000 A 
ATOM     18  C   UNL     1      45.782   4.835  13.350  0.00  0.00    +0.000 A 
ATOM     19  C   UNL     1      47.019   5.257  13.864  0.00  0.00    +0.000 A 
ATOM     20  C   UNL     1      47.733   6.176  13.090  0.00  0.00    +0.000 A 
ATOM     21  C   UNL     1      47.198   6.617  11.891  0.00  0.00    +0.000 A 
ATOM     22  N   UNL     1      46.005   6.222  11.408  0.00  0.00    +0.000 NA
BRANCH  19  23
ATOM     23  C   UNL     1      47.543   4.747  15.151  0.00  0.00    +0.000 A 
ATOM     24  C   UNL     1      47.435   3.399  15.528  0.00  0.00    +0.000 A 
ATOM     25  C   UNL     1      47.945   2.955  16.750  0.00  0.00    +0.000 A 
ATOM     26  C   UNL     1      48.549   3.875  17.584  0.00  0.00    +0.000 A 
ATOM     27  N   UNL     1      48.679   5.180  17.279  0.00  0.00    +0.000 NA
ATOM     28  C   UNL     1      48.181   5.575  16.079  0.00  0.00    +0.000 A 
ENDBRANCH  19  23
ENDBRANCH   1  17
TORSDOF 4
ENDMDL
MODEL 3
REMARK VINA RESULT:    -7.747      3.309      7.502
REMARK INTER + INTRA:          -9.624
REMARK INTER:                  -9.285
REMARK INTRA:                  -0.340
REMARK UNBOUND:                -0.065
REMARK  Name = 
REMARK  4 active torsions:
REMARK  status: ('A' for Active; 'I' for Inactive)
REMARK    1  A    between atoms: C_2  and  C_4
REMARK    2  A    between atoms: N_8  and  C_9
REMARK    3  A    between atoms: C_9  and  C_10
REMARK    4  A    between atoms: C_12  and  C_13
REMARK                            x       y       z     vdW  Elec       q    Type
REMARK                         _______ _______ _______ _____ _____    ______ ____
ROOT
ATOM      1  C   UNL     1      48.536   7.743  12.807  0.00  0.00    +0.000 C 
ATOM      2  C   UNL     1      49.731   7.302  11.976  0.00  0.00    +0.000 C 
ATOM      3  C   UNL     1      49.363   8.749  12.018  0.00  0.00    +0.000 C 
ENDROOT
BRANCH   1   8
ATOM      4  C   UNL     1      47.919   4.405  16.681  0.00  0.00    +0.000 A 
ATOM      5  C   UNL     1      47.279   4.478  15.447  0.00  0.00    +0.000 A 
ATOM      6  C   UNL     1      47.505   5.587  14.627  0.00  0.00    +0.000 A 
ATOM      7  C   UNL     1      48.374   6.590  15.049  0.00  0.00    +0.000 A 
ATOM      8  N   UNL     1      48.662   7.719  14.277  0.00  0.00    +0.000 N 
ATOM      9  N   UNL     1      48.981   6.540  16.254  0.00  0.00    +0.000 NA
ATOM     10  C   UNL     1      48.737   5.463  17.047  0.00  0.00    +0.000 A 
ATOM     11  H   UNL     1      49.412   8.232  14.730  0.00  0.00    +0.000 HD
BRANCH   4  13
ATOM     12  N   UNL     1      48.809   2.974  18.432  0.00  0.00    +0.000 N 
ATOM     13  C   UNL     1      47.753   3.271  17.615  0.00  0.00    +0.000 C 
ATOM     14  O   UNL     1      46.705   2.645  17.682  0.00  0.00    +0.000 OA
ATOM     15  H   UNL     1      48.648   2.264  19.135  0.00  0.00    +0.000 HD
ATOM     16  H   UNL     1      49.580   3.609  18.580  0.00  0.00    +0.000 HD
ENDBRANCH   4  13
ENDBRANCH   1   8
BRANCH   1  17
ATOM     17  C   UNL     1      47.107   7.530  12.276  0.00  0.00    +0.000 A 
ATOM     18  C   UNL     1      46.800   6.390  11.520  0.00  0.00    +0.000 A 
ATOM     19  C   UNL     1      45.496   6.145  11.060  0.00  0.00    +0.000 A 
ATOM     20  C   UNL     1      44.527   7.091  11.403  0.00  0.00    +0.000 A 
ATOM     21  C   UNL     1      44.890   8.197  12.154  0.00  0.00    +0.000 A 
ATOM     22  N   UNL     1      46.145   8.438  12.582  0.00  0.00    +0.000 NA
BRANCH  19  23
ATOM     23  C   UNL     1      45.165   4.942  10.263  0.00  0.00    +0.000 A 
ATOM     24  C   UNL     1      45.609   4.766   8.943  0.00  0.00    +0.000 A 
ATOM     25  C   UNL     1      45.279   3.615   8.224  0.00  0.00    +0.000 A 
ATOM     26  C   UNL     1      44.496   2.657   8.840  0.00  0.00    +0.000 A 
ATOM     27  N   UNL     1      44.038   2.772  10.101  0.00  0.00    +0.000 NA
ATOM     28  C   UNL     1      44.387   3.898  10.774  0.00  0.00    +0.000 A 
ENDBRANCH  19  23
ENDBRANCH   1  17
TORSDOF 4
ENDMDL
MODEL 4
REMARK VINA RESULT:    -7.302      2.727      6.813
REMARK INTER + INTRA:          -9.075
REMARK INTER:                  -8.952
REMARK INTRA:                  -0.124
REMARK UNBOUND:                -0.065
REMARK  Name = 
REMARK  4 active torsions:
REMARK  status: ('A' for Active; 'I' for Inactive)
REMARK    1  A    between atoms: C_2  and  C_4
REMARK    2  A    between atoms: N_8  and  C_9
REMARK    3  A    between atoms: C_9  and  C_10
REMARK    4  A    between atoms: C_12  and  C_13
REMARK                            x       y       z     vdW  Elec       q    Type
REMARK                         _______ _______ _______ _____ _____    ______ ____
ROOT
ATOM      1  C   UNL     1      44.989   5.846  12.111  0.00  0.00    +0.000 C 
ATOM      2  C   UNL     1      44.705   7.201  11.479  0.00  0.00    +0.000 C 
ATOM      3  C   UNL     1      43.770   6.668  12.515  0.00  0.00    +0.000 C 
ENDROOT
BRANCH   1   8
ATOM      4  C   UNL     1      49.661   7.904  12.791  0.00  0.00    +0.000 A 
ATOM      5  C   UNL     1      48.938   7.682  11.623  0.00  0.00    +0.000 A 
ATOM      6  C   UNL     1      47.750   6.949  11.685  0.00  0.00    +0.000 A 
ATOM      7  C   UNL     1      47.303   6.466  12.913  0.00  0.00    +0.000 A 
ATOM      8  N   UNL     1      46.117   5.740  13.056  0.00  0.00    +0.000 N 
ATOM      9  N   UNL     1      48.008   6.655  14.047  0.00  0.00    +0.000 NA
ATOM     10  C   UNL     1      49.171   7.356  13.967  0.00  0.00    +0.000 A 
ATOM     11  H   UNL     1      45.938   5.614  14.047  0.00  0.00    +0.000 HD
BRANCH   4  13
ATOM     12  N   UNL     1      52.026   8.043  13.338  0.00  0.00    +0.000 N 
ATOM     13  C   UNL     1      50.922   8.674  12.831  0.00  0.00    +0.000 C 
ATOM     14  O   UNL     1      50.989   9.815  12.398  0.00  0.00    +0.000 OA
ATOM     15  H   UNL     1      52.902   8.543  13.266  0.00  0.00    +0.000 HD
ATOM     16  H   UNL     1      52.069   7.043  13.470  0.00  0.00    +0.000 HD
ENDBRANCH   4  13
ENDBRANCH   1   8
BRANCH   1  17
ATOM     17  C   UNL     1      44.664   4.554  11.341  0.00  0.00    +0.000 A 
ATOM     18  C   UNL     1      45.377   4.230  10.178  0.00  0.00    +0.000 A 
ATOM     19  C   UNL     1      45.136   3.036   9.479  0.00  0.00    +0.000 A 
ATOM     20  C   UNL     1      44.157   2.191  10.009  0.00  0.00    +0.000 A 
ATOM     21  C   UNL     1      43.487   2.565  11.162  0.00  0.00    +0.000 A 
ATOM     22  N   UNL     1      43.710   3.717  11.823  0.00  0.00    +0.000 NA
BRANCH  19  23
ATOM     23  C   UNL     1      45.888   2.687   8.252  0.00  0.00    +0.000 A 
ATOM     24  C   UNL     1      46.109   3.607   7.216  0.00  0.00    +0.000 A 
ATOM     25  C   UNL     1      46.825   3.242   6.074  0.00  0.00    +0.000 A 
ATOM     26  C   UNL     1      47.304   1.949   5.984  0.00  0.00    +0.000 A 
ATOM     27  N   UNL     1      47.121   1.021   6.944  0.00  0.00    +0.000 NA
ATOM     28  C   UNL     1      46.429   1.415   8.044  0.00  0.00    +0.000 A 
ENDBRANCH  19  23
ENDBRANCH   1  17
TORSDOF 4
ENDMDL
MODEL 5
REMARK VINA RESULT:    -7.071      5.745      8.784
REMARK INTER + INTRA:          -8.789
REMARK INTER:                  -8.508
REMARK INTRA:                  -0.282
REMARK UNBOUND:                -0.065
REMARK  Name = 
REMARK  4 active torsions:
REMARK  status: ('A' for Active; 'I' for Inactive)
REMARK    1  A    between atoms: C_2  and  C_4
REMARK    2  A    between atoms: N_8  and  C_9
REMARK    3  A    between atoms: C_9  and  C_10
REMARK    4  A    between atoms: C_12  and  C_13
REMARK                            x       y       z     vdW  Elec       q    Type
REMARK                         _______ _______ _______ _____ _____    ______ ____
ROOT
ATOM      1  C   UNL     1      48.265   3.310  16.969  0.00  0.00    +0.000 C 
ATOM      2  C   UNL     1      48.073   3.698  18.427  0.00  0.00    +0.000 C 
ATOM      3  C   UNL     1      47.001   2.926  17.729  0.00  0.00    +0.000 C 
ENDROOT
BRANCH   1   8
ATOM      4  C   UNL     1      53.092   2.027  18.227  0.00  0.00    +0.000 A 
ATOM      5  C   UNL     1      52.481   3.276  18.164  0.00  0.00    +0.000 A 
ATOM      6  C   UNL     1      51.194   3.380  17.629  0.00  0.00    +0.000 A 
ATOM      7  C   UNL     1      50.540   2.234  17.182  0.00  0.00    +0.000 A 
ATOM      8  N   UNL     1      49.248   2.257  16.651  0.00  0.00    +0.000 N 
ATOM      9  N   UNL     1      51.133   1.022  17.216  0.00  0.00    +0.000 NA
ATOM     10  C   UNL     1      52.392   0.941  17.724  0.00  0.00    +0.000 A 
ATOM     11  H   UNL     1      48.940   1.299  16.521  0.00  0.00    +0.000 HD
BRANCH   4  13
ATOM     12  N   UNL     1      54.584   1.904  20.142  0.00  0.00    +0.000 N 
ATOM     13  C   UNL     1      54.444   1.812  18.783  0.00  0.00    +0.000 C 
ATOM     14  O   UNL     1      55.393   1.529  18.067  0.00  0.00    +0.000 OA
ATOM     15  H   UNL     1      55.490   1.656  20.518  0.00  0.00    +0.000 HD
ATOM     16  H   UNL     1      53.796   1.888  20.773  0.00  0.00    +0.000 HD
ENDBRANCH   4  13
ENDBRANCH   1   8
BRANCH   1  17
ATOM     17  C   UNL     1      48.053   4.356  15.860  0.00  0.00    +0.000 A 
ATOM     18  C   UNL     1      47.182   4.085  14.795  0.00  0.00    +0.000 A 
ATOM     19  C   UNL     1      46.934   5.035  13.792  0.00  0.00    +0.000 A 
ATOM     20  C   UNL     1      47.593   6.261  13.918  0.00  0.00    +0.000 A 
ATOM     21  C   UNL     1      48.440   6.471  14.993  0.00  0.00    +0.000 A 
ATOM     22  N   UNL     1      48.689   5.552  15.947  0.00  0.00    +0.000 NA
BRANCH  19  23
ATOM     23  C   UNL     1      46.013   4.756  12.666  0.00  0.00    +0.000 A 
ATOM     24  C   UNL     1      45.358   3.524  12.516  0.00  0.00    +0.000 A 
ATOM     25  C   UNL     1      44.494   3.300  11.442  0.00  0.00    +0.000 A 
ATOM     26  C   UNL     1      44.305   4.316  10.525  0.00  0.00    +0.000 A 
ATOM     27  N   UNL     1      44.908   5.517  10.615  0.00  0.00    +0.000 NA
ATOM     28  C   UNL     1      45.733   5.704  11.677  0.00  0.00    +0.000 A 
ENDBRANCH  19  23
ENDBRANCH   1  17
TORSDOF 4
ENDMDL
MODEL 6
REMARK VINA RESULT:    -6.840      2.881      6.780
REMARK INTER + INTRA:          -8.505
REMARK INTER:                  -8.022
REMARK INTRA:                  -0.483
REMARK UNBOUND:                -0.065
REMARK  Name = 
REMARK  4 active torsions:
REMARK  status: ('A' for Active; 'I' for Inactive)
REMARK    1  A    between atoms: C_2  and  C_4
REMARK    2  A    between atoms: N_8  and  C_9
REMARK    3  A    between atoms: C_9  and  C_10
REMARK    4  A    between atoms: C_12  and  C_13
REMARK                            x       y       z     vdW  Elec       q    Type
REMARK                         _______ _______ _______ _____ _____    ______ ____
ROOT
ATOM      1  C   UNL     1      45.830   7.967  12.711  0.00  0.00    +0.000 C 
ATOM      2  C   UNL     1      45.775   9.116  11.717  0.00  0.00    +0.000 C 
ATOM      3  C   UNL     1      44.838   9.111  12.880  0.00  0.00    +0.000 C 
ENDROOT
BRANCH   1   8
ATOM      4  C   UNL     1      50.968   8.243  12.472  0.00  0.00    +0.000 A 
ATOM      5  C   UNL     1      50.046   7.805  11.526  0.00  0.00    +0.000 A 
ATOM      6  C   UNL     1      48.704   7.668  11.893  0.00  0.00    +0.000 A 
ATOM      7  C   UNL     1      48.310   7.985  13.191  0.00  0.00    +0.000 A 
ATOM      8  N   UNL     1      46.985   7.889  13.626  0.00  0.00    +0.000 N 
ATOM      9  N   UNL     1      49.199   8.388  14.122  0.00  0.00    +0.000 NA
ATOM     10  C   UNL     1      50.503   8.500  13.754  0.00  0.00    +0.000 A 
ATOM     11  H   UNL     1      46.924   8.294  14.554  0.00  0.00    +0.000 HD
BRANCH   4  13
ATOM     12  N   UNL     1      53.290   7.646  12.868  0.00  0.00    +0.000 N 
ATOM     13  C   UNL     1      52.404   8.430  12.180  0.00  0.00    +0.000 C 
ATOM     14  O   UNL     1      52.787   9.224  11.333  0.00  0.00    +0.000 OA
ATOM     15  H   UNL     1      54.260   7.710  12.588  0.00  0.00    +0.000 HD
ATOM     16  H   UNL     1      53.006   6.823  13.380  0.00  0.00    +0.000 HD
ENDBRANCH   4  13
ENDBRANCH   1   8
BRANCH   1  17
ATOM     17  C   UNL     1      45.191   6.611  12.358  0.00  0.00    +0.000 A 
ATOM     18  C   UNL     1      45.553   5.950  11.176  0.00  0.00    +0.000 A 
ATOM     19  C   UNL     1      45.023   4.693  10.848  0.00  0.00    +0.000 A 
ATOM     20  C   UNL     1      44.126   4.136  11.764  0.00  0.00    +0.000 A 
ATOM     21  C   UNL     1      43.809   4.836  12.916  0.00  0.00    +0.000 A 
ATOM     22  N   UNL     1      44.307   6.050  13.222  0.00  0.00    +0.000 NA
BRANCH  19  23
ATOM     23  C   UNL     1      45.403   3.988   9.602  0.00  0.00    +0.000 A 
ATOM     24  C   UNL     1      45.314   2.594   9.466  0.00  0.00    +0.000 A 
ATOM     25  C   UNL     1      45.679   1.966   8.274  0.00  0.00    +0.000 A 
ATOM     26  C   UNL     1      46.140   2.748   7.232  0.00  0.00    +0.000 A 
ATOM     27  N   UNL     1      46.251   4.089   7.304  0.00  0.00    +0.000 NA
ATOM     28  C   UNL     1      45.877   4.667   8.475  0.00  0.00    +0.000 A 
ENDBRANCH  19  23
ENDBRANCH   1  17
TORSDOF 4
ENDMDL
MODEL 7
REMARK VINA RESULT:    -6.754      4.094      6.378
REMARK INTER + INTRA:          -8.398
REMARK INTER:                  -7.999
REMARK INTRA:                  -0.399
REMARK UNBOUND:                -0.065
REMARK  Name = 
REMARK  4 active torsions:
REMARK  status: ('A' for Active; 'I' for Inactive)
REMARK    1  A    between atoms: C_2  and  C_4
REMARK    2  A    between atoms: N_8  and  C_9
REMARK    3  A    between atoms: C_9  and  C_10
REMARK    4  A    between atoms: C_12  and  C_13
REMARK                            x       y       z     vdW  Elec       q    Type
REMARK                         _______ _______ _______ _____ _____    ______ ____
ROOT
ATOM      1  C   UNL     1      45.751   4.361  12.936  0.00  0.00    +0.000 C 
ATOM      2  C   UNL     1      44.340   3.862  13.211  0.00  0.00    +0.000 C 
ATOM      3  C   UNL     1      44.912   3.718  11.838  0.00  0.00    +0.000 C 
ENDROOT
BRANCH   1   8
ATOM      4  C   UNL     1      48.219   3.879  17.432  0.00  0.00    +0.000 A 
ATOM      5  C   UNL     1      47.548   4.970  16.886  0.00  0.00    +0.000 A 
ATOM      6  C   UNL     1      47.100   4.904  15.565  0.00  0.00    +0.000 A 
ATOM      7  C   UNL     1      47.316   3.745  14.821  0.00  0.00    +0.000 A 
ATOM      8  N   UNL     1      46.882   3.600  13.501  0.00  0.00    +0.000 N 
ATOM      9  N   UNL     1      47.986   2.692  15.332  0.00  0.00    +0.000 NA
ATOM     10  C   UNL     1      48.431   2.779  16.614  0.00  0.00    +0.000 A 
ATOM     11  H   UNL     1      47.036   2.637  13.219  0.00  0.00    +0.000 HD
BRANCH   4  13
ATOM     12  N   UNL     1      48.243   2.861  19.639  0.00  0.00    +0.000 N 
ATOM     13  C   UNL     1      48.723   3.848  18.820  0.00  0.00    +0.000 C 
ATOM     14  O   UNL     1      49.561   4.645  19.215  0.00  0.00    +0.000 OA
ATOM     15  H   UNL     1      48.670   2.788  20.553  0.00  0.00    +0.000 HD
ATOM     16  H   UNL     1      47.753   2.052  19.287  0.00  0.00    +0.000 HD
ENDBRANCH   4  13
ENDBRANCH   1   8
BRANCH   1  17
ATOM     17  C   UNL     1      46.013   5.865  12.746  0.00  0.00    +0.000 A 
ATOM     18  C   UNL     1      47.284   6.314  12.363  0.00  0.00    +0.000 A 
ATOM     19  C   UNL     1      47.544   7.676  12.138  0.00  0.00    +0.000 A 
ATOM     20  C   UNL     1      46.468   8.551  12.307  0.00  0.00    +0.000 A 
ATOM     21  C   UNL     1      45.234   8.047  12.685  0.00  0.00    +0.000 A 
ATOM     22  N   UNL     1      44.991   6.743  12.915  0.00  0.00    +0.000 NA
BRANCH  19  23
ATOM     23  C   UNL     1      48.884   8.156  11.731  0.00  0.00    +0.000 A 
ATOM     24  C   UNL     1      49.929   7.281  11.396  0.00  0.00    +0.000 A 
ATOM     25  C   UNL     1      51.179   7.772  11.014  0.00  0.00    +0.000 A 
ATOM     26  C   UNL     1      51.367   9.141  10.982  0.00  0.00    +0.000 A 
ATOM     27  N   UNL     1      50.404  10.029  11.296  0.00  0.00    +0.000 NA
ATOM     28  C   UNL     1      49.199   9.516  11.653  0.00  0.00    +0.000 A 
ENDBRANCH  19  23
ENDBRANCH   1  17
TORSDOF 4
ENDMDL
MODEL 8
REMARK VINA RESULT:    -6.598      3.018      5.926
REMARK INTER + INTRA:          -8.206
REMARK INTER:                  -8.340
REMARK INTRA:                   0.134
REMARK UNBOUND:                -0.065
REMARK  Name = 
REMARK  4 active torsions:
REMARK  status: ('A' for Active; 'I' for Inactive)
REMARK    1  A    between atoms: C_2  and  C_4
REMARK    2  A    between atoms: N_8  and  C_9
REMARK    3  A    between atoms: C_9  and  C_10
REMARK    4  A    between atoms: C_12  and  C_13
REMARK                            x       y       z     vdW  Elec       q    Type
REMARK                         _______ _______ _______ _____ _____    ______ ____
ROOT
ATOM      1  C   UNL     1      47.434   8.567  13.144  0.00  0.00    +0.000 C 
ATOM      2  C   UNL     1      47.688   9.964  12.600  0.00  0.00    +0.000 C 
ATOM      3  C   UNL     1      48.068   8.778  11.775  0.00  0.00    +0.000 C 
ENDROOT
BRANCH   1   8
ATOM      4  C   UNL     1      44.656   4.529  11.558  0.00  0.00    +0.000 A 
ATOM      5  C   UNL     1      45.787   5.119  10.999  0.00  0.00    +0.000 A 
ATOM      6  C   UNL     1      46.263   6.320  11.531  0.00  0.00    +0.000 A 
ATOM      7  C   UNL     1      45.612   6.898  12.618  0.00  0.00    +0.000 A 
ATOM      8  N   UNL     1      46.040   8.088  13.214  0.00  0.00    +0.000 N 
ATOM      9  N   UNL     1      44.502   6.348  13.152  0.00  0.00    +0.000 NA
ATOM     10  C   UNL     1      44.040   5.188  12.612  0.00  0.00    +0.000 A 
ATOM     11  H   UNL     1      45.494   8.237  14.056  0.00  0.00    +0.000 HD
BRANCH   4  13
ATOM     12  N   UNL     1      44.854   2.499  10.236  0.00  0.00    +0.000 N 
ATOM     13  C   UNL     1      44.081   3.257  11.074  0.00  0.00    +0.000 C 
ATOM     14  O   UNL     1      42.976   2.877  11.433  0.00  0.00    +0.000 OA
ATOM     15  H   UNL     1      44.491   1.586   9.994  0.00  0.00    +0.000 HD
ATOM     16  H   UNL     1      45.845   2.654  10.120  0.00  0.00    +0.000 HD
ENDBRANCH   4  13
ENDBRANCH   1   8
BRANCH   1  17
ATOM     17  C   UNL     1      48.378   7.968  14.203  0.00  0.00    +0.000 A 
ATOM     18  C   UNL     1      48.016   6.800  14.887  0.00  0.00    +0.000 A 
ATOM     19  C   UNL     1      48.874   6.204  15.825  0.00  0.00    +0.000 A 
ATOM     20  C   UNL     1      50.105   6.833  16.031  0.00  0.00    +0.000 A 
ATOM     21  C   UNL     1      50.407   7.985  15.323  0.00  0.00    +0.000 A 
ATOM     22  N   UNL     1      49.576   8.563  14.435  0.00  0.00    +0.000 NA
BRANCH  19  23
ATOM     23  C   UNL     1      48.499   4.968  16.550  0.00  0.00    +0.000 A 
ATOM     24  C   UNL     1      49.401   4.270  17.367  0.00  0.00    +0.000 A 
ATOM     25  C   UNL     1      49.009   3.109  18.037  0.00  0.00    +0.000 A 
ATOM     26  C   UNL     1      47.714   2.658  17.869  0.00  0.00    +0.000 A 
ATOM     27  N   UNL     1      46.805   3.283  17.095  0.00  0.00    +0.000 NA
ATOM     28  C   UNL     1      47.218   4.414  16.467  0.00  0.00    +0.000 A 
ENDBRANCH  19  23
ENDBRANCH   1  17
TORSDOF 4
ENDMDL
MODEL 9
REMARK VINA RESULT:    -6.529      2.779      5.435
REMARK INTER + INTRA:          -8.121
REMARK INTER:                  -7.448
REMARK INTRA:                  -0.673
REMARK UNBOUND:                -0.065
REMARK  Name = 
REMARK  4 active torsions:
REMARK  status: ('A' for Active; 'I' for Inactive)
REMARK    1  A    between atoms: C_2  and  C_4
REMARK    2  A    between atoms: N_8  and  C_9
REMARK    3  A    between atoms: C_9  and  C_10
REMARK    4  A    between atoms: C_12  and  C_13
REMARK                            x       y       z     vdW  Elec       q    Type
REMARK                         _______ _______ _______ _____ _____    ______ ____
ROOT
ATOM      1  C   UNL     1      47.896   8.066  13.845  0.00  0.00    +0.000 C 
ATOM      2  C   UNL     1      48.637   6.933  14.539  0.00  0.00    +0.000 C 
ATOM      3  C   UNL     1      48.404   8.213  15.274  0.00  0.00    +0.000 C 
ENDROOT
BRANCH   1   8
ATOM      4  C   UNL     1      44.708   5.211  10.979  0.00  0.00    +0.000 A 
ATOM      5  C   UNL     1      46.012   5.630  10.727  0.00  0.00    +0.000 A 
ATOM      6  C   UNL     1      46.612   6.547  11.594  0.00  0.00    +0.000 A 
ATOM      7  C   UNL     1      45.905   7.013  12.701  0.00  0.00    +0.000 A 
ATOM      8  N   UNL     1      46.446   7.917  13.620  0.00  0.00    +0.000 N 
ATOM      9  N   UNL     1      44.634   6.631  12.940  0.00  0.00    +0.000 NA
ATOM     10  C   UNL     1      44.058   5.753  12.077  0.00  0.00    +0.000 A 
ATOM     11  H   UNL     1      45.800   8.003  14.398  0.00  0.00    +0.000 HD
BRANCH   4  13
ATOM     12  N   UNL     1      44.093   4.398   8.772  0.00  0.00    +0.000 N 
ATOM     13  C   UNL     1      43.990   4.239  10.128  0.00  0.00    +0.000 C 
ATOM     14  O   UNL     1      43.359   3.310  10.610  0.00  0.00    +0.000 OA
ATOM     15  H   UNL     1      43.683   3.669   8.202  0.00  0.00    +0.000 HD
ATOM     16  H   UNL     1      44.792   4.987   8.344  0.00  0.00    +0.000 HD
ENDBRANCH   4  13
ENDBRANCH   1   8
BRANCH   1  17
ATOM     17  C   UNL     1      48.625   8.944  12.812  0.00  0.00    +0.000 A 
ATOM     18  C   UNL     1      49.810   8.491  12.215  0.00  0.00    +0.000 A 
ATOM     19  C   UNL     1      50.474   9.248  11.237  0.00  0.00    +0.000 A 
ATOM     20  C   UNL     1      49.887  10.467  10.888  0.00  0.00    +0.000 A 
ATOM     21  C   UNL     1      48.714  10.861  11.512  0.00  0.00    +0.000 A 
ATOM     22  N   UNL     1      48.087  10.140  12.461  0.00  0.00    +0.000 NA
BRANCH  19  23
ATOM     23  C   UNL     1      51.724   8.774  10.600  0.00  0.00    +0.000 A 
ATOM     24  C   UNL     1      51.958   7.420  10.315  0.00  0.00    +0.000 A 
ATOM     25  C   UNL     1      53.149   7.011   9.711  0.00  0.00    +0.000 A 
ATOM     26  C   UNL     1      54.096   7.970   9.409  0.00  0.00    +0.000 A 
ATOM     27  N   UNL     1      53.930   9.283   9.662  0.00  0.00    +0.000 NA
ATOM     28  C   UNL     1      52.756   9.646  10.240  0.00  0.00    +0.000 A 
ENDBRANCH  19  23
ENDBRANCH   1  17
TORSDOF 4
ENDMDL
