MODEL 1
REMARK VINA RESULT:    -9.024      0.000      0.000
REMARK INTER + INTRA:         -13.254
REMARK INTER:                 -12.453
REMARK INTRA:                  -0.801
REMARK UNBOUND:                -0.801
REMARK  Name = 
REMARK  8 active torsions:
REMARK  status: ('A' for Active; 'I' for Inactive)
REMARK    1  A    between atoms: C_1  and  C_2
REMARK    2  A    between atoms: C_2  and  O_3
REMARK    3  A    between atoms: C_5  and  O_6
REMARK    4  A    between atoms: O_6  and  C_7
REMARK    5  A    between atoms: C_9  and  C_10
REMARK    6  A    between atoms: C_10  and  C_11
REMARK    7  A    between atoms: C_11  and  N_12
REMARK    8  A    between atoms: C_16  and  N_17
REMARK                            x       y       z     vdW  Elec       q    Type
REMARK                         _______ _______ _______ _____ _____    ______ ____
ROOT
ATOM      1  C   UNL     1      46.844   5.643  13.573  0.00  0.00    +0.000 A 
ATOM      2  C   UNL     1      45.613   5.078  13.268  0.00  0.00    +0.000 A 
ATOM      3  C   UNL     1      44.657   5.855  12.599  0.00  0.00    +0.000 A 
ATOM      4  C   UNL     1      45.017   7.168  12.265  0.00  0.00    +0.000 A 
ATOM      5  C   UNL     1      46.278   7.636  12.601  0.00  0.00    +0.000 A 
ATOM      6  N   UNL     1      47.198   6.904  13.254  0.00  0.00    +0.000 NA
ENDROOT
BRANCH   1   7
ATOM      7  O   UNL     1      47.748   4.858  14.266  0.00  0.00    +0.000 OA
BRANCH   7  11
ATOM      8  C   UNL     1      48.746   3.360  18.379  0.00  0.00    +0.000 C 
ATOM      9  C   UNL     1      47.631   3.371  17.345  0.00  0.00    +0.000 C 
ATOM     10  C   UNL     1      48.075   2.957  15.922  0.00  0.00    +0.000 C 
ATOM     11  C   UNL     1      47.187   4.097  15.363  0.00  0.00    +0.000 C 
ATOM     12  C   UNL     1      47.295   4.765  16.755  0.00  0.00    +0.000 C 
BRANCH   9  13
ATOM     13  O   UNL     1      46.494   2.650  17.869  0.00  0.00    +0.000 OA
ATOM     14  H   UNL     1      46.386   2.967  18.783  0.00  0.00    +0.000 HD
ENDBRANCH   9  13
ENDBRANCH   7  11
ENDBRANCH   1   7
BRANCH   3  15
ATOM     15  C   UNL     1      43.298   5.256  12.275  0.00  0.00    +0.000 C 
BRANCH  15  16
ATOM     16  C   UNL     1      43.274   4.388  11.011  0.00  0.00    +0.000 C 
BRANCH  16  17
ATOM     17  N   UNL     1      44.036   4.969   9.899  0.00  0.00    +0.000 N 
ATOM     18  C   UNL     1      44.816   3.989   9.242  0.00  0.00    +0.000 A 
ATOM     19  C   UNL     1      45.604   4.373   8.157  0.00  0.00    +0.000 A 
ATOM     20  C   UNL     1      46.376   3.414   7.489  0.00  0.00    +0.000 A 
ATOM     21  C   UNL     1      46.331   2.093   7.931  0.00  0.00    +0.000 A 
ATOM     22  C   UNL     1      45.519   1.780   9.004  0.00  0.00    +0.000 A 
ATOM     23  N   UNL     1      44.767   2.702   9.654  0.00  0.00    +0.000 NA
ATOM     24  H   UNL     1      44.645   5.726  10.197  0.00  0.00    +0.000 HD
BRANCH  21  25
ATOM     25  N   UNL     1      47.119   1.049   7.295  0.00  0.00    +0.000 N 
ATOM     26  O   UNL     1      48.037   1.401   6.540  0.00  0.00    +0.000 OA
ATOM     27  O   UNL     1      46.834  -0.128   7.552  0.00  0.00    +0.000 OA
ENDBRANCH  21  25
ENDBRANCH  16  17
ENDBRANCH  15  16
ENDBRANCH   3  15
TORSDOF 7
ENDMDL
MODEL 2
REMARK VINA RESULT:    -8.369      2.245      3.962
REMARK INTER + INTRA:         -12.350
REMARK INTER:                 -11.349
REMARK INTRA:                  -1.001
REMARK UNBOUND:                -0.801
REMARK  Name = 
REMARK  8 active torsions:
REMARK  status: ('A' for Active; 'I' for Inactive)
REMARK    1  A    between atoms: C_1  and  C_2
REMARK    2  A    between atoms: C_2  and  O_3
REMARK    3  A    between atoms: C_5  and  O_6
REMARK    4  A    between atoms: O_6  and  C_7
REMARK    5  A    between atoms: C_9  and  C_10
REMARK    6  A    between atoms: C_10  and  C_11
REMARK    7  A    between atoms: C_11  and  N_12
REMARK    8  A    between atoms: C_16  and  N_17
REMARK                            x       y       z     vdW  Elec       q    Type
REMARK                         _______ _______ _______ _____ _____    ______ ____
ROOT
ATOM      1  C   UNL     1      46.927   5.927  13.360  0.00  0.00    +0.000 A 
ATOM      2  C   UNL     1      45.610   6.050  12.940  0.00  0.00    +0.000 A 
ATOM      3  C   UNL     1      44.841   4.890  12.773  0.00  0.00    +0.000 A 
ATOM      4  C   UNL     1      45.456   3.665  13.057  0.00  0.00    +0.000 A 
ATOM      5  C   UNL     1      46.775   3.647  13.486  0.00  0.00    +0.000 A 
ATOM      6  N   UNL     1      47.527   4.752  13.637  0.00  0.00    +0.000 NA
ENDROOT
BRANCH   1   7
ATOM      7  O   UNL     1      47.666   7.091  13.479  0.00  0.00    +0.000 OA
BRANCH   7  11
ATOM      8  C   UNL     1      50.602   9.787  11.414  0.00  0.00    +0.000 C 
ATOM      9  C   UNL     1      50.392   8.340  11.831  0.00  0.00    +0.000 C 
ATOM     10  C   UNL     1      49.018   7.753  11.431  0.00  0.00    +0.000 C 
ATOM     11  C   UNL     1      48.956   7.070  12.821  0.00  0.00    +0.000 C 
ATOM     12  C   UNL     1      49.965   8.137  13.309  0.00  0.00    +0.000 C 
BRANCH   9  13
ATOM     13  O   UNL     1      51.538   7.559  11.425  0.00  0.00    +0.000 OA
ATOM     14  H   UNL     1      51.172   6.778  10.975  0.00  0.00    +0.000 HD
ENDBRANCH   9  13
ENDBRANCH   7  11
ENDBRANCH   1   7
BRANCH   3  15
ATOM     15  C   UNL     1      43.402   5.008  12.295  0.00  0.00    +0.000 C 
BRANCH  15  16
ATOM     16  C   UNL     1      43.146   4.417  10.904  0.00  0.00    +0.000 C 
BRANCH  16  17
ATOM     17  N   UNL     1      44.001   5.001   9.864  0.00  0.00    +0.000 N 
ATOM     18  C   UNL     1      44.785   4.011   9.227  0.00  0.00    +0.000 A 
ATOM     19  C   UNL     1      45.657   4.398   8.209  0.00  0.00    +0.000 A 
ATOM     20  C   UNL     1      46.436   3.430   7.562  0.00  0.00    +0.000 A 
ATOM     21  C   UNL     1      46.313   2.099   7.956  0.00  0.00    +0.000 A 
ATOM     22  C   UNL     1      45.420   1.785   8.962  0.00  0.00    +0.000 A 
ATOM     23  N   UNL     1      44.661   2.716   9.592  0.00  0.00    +0.000 NA
ATOM     24  H   UNL     1      44.617   5.725  10.225  0.00  0.00    +0.000 HD
BRANCH  21  25
ATOM     25  N   UNL     1      47.101   1.044   7.339  0.00  0.00    +0.000 N 
ATOM     26  O   UNL     1      46.807  -0.129   7.614  0.00  0.00    +0.000 OA
ATOM     27  O   UNL     1      48.012   1.377   6.569  0.00  0.00    +0.000 OA
ENDBRANCH  21  25
ENDBRANCH  16  17
ENDBRANCH  15  16
ENDBRANCH   3  15
TORSDOF 7
ENDMDL
MODEL 3
REMARK VINA RESULT:    -8.072      2.209      4.116
REMARK INTER + INTRA:         -11.940
REMARK INTER:                 -10.905
REMARK INTRA:                  -1.036
REMARK UNBOUND:                -0.801
REMARK  Name = 
REMARK  8 active torsions:
REMARK  status: ('A' for Active; 'I' for Inactive)
REMARK    1  A    between atoms: C_1  and  C_2
REMARK    2  A    between atoms: C_2  and  O_3
REMARK    3  A    between atoms: C_5  and  O_6
REMARK    4  A    between atoms: O_6  and  C_7
REMARK    5  A    between atoms: C_9  and  C_10
REMARK    6  A    between atoms: C_10  and  C_11
REMARK    7  A    between atoms: C_11  and  N_12
REMARK    8  A    between atoms: C_16  and  N_17
REMARK                            x       y       z     vdW  Elec       q    Type
REMARK                         _______ _______ _______ _____ _____    ______ ____
ROOT
ATOM      1  C   UNL     1      47.053   5.853  13.526  0.00  0.00    +0.000 A 
ATOM      2  C   UNL     1      45.782   6.079  13.015  0.00  0.00    +0.000 A 
ATOM      3  C   UNL     1      44.975   4.978  12.695  0.00  0.00    +0.000 A 
ATOM      4  C   UNL     1      45.507   3.703  12.927  0.00  0.00    +0.000 A 
ATOM      5  C   UNL     1      46.784   3.583  13.456  0.00  0.00    +0.000 A 
ATOM      6  N   UNL     1      47.572   4.631  13.754  0.00  0.00    +0.000 NA
ENDROOT
BRANCH   1   7
ATOM      7  O   UNL     1      47.833   6.964  13.796  0.00  0.00    +0.000 OA
BRANCH   7  11
ATOM      8  C   UNL     1      49.832  10.574  12.028  0.00  0.00    +0.000 C 
ATOM      9  C   UNL     1      48.490   9.863  12.102  0.00  0.00    +0.000 C 
ATOM     10  C   UNL     1      48.046   9.483  13.534  0.00  0.00    +0.000 C 
ATOM     11  C   UNL     1      47.558   8.123  12.974  0.00  0.00    +0.000 C 
ATOM     12  C   UNL     1      48.534   8.343  11.793  0.00  0.00    +0.000 C 
BRANCH   9  13
ATOM     13  O   UNL     1      47.518  10.605  11.332  0.00  0.00    +0.000 OA
ATOM     14  H   UNL     1      47.930  11.469  11.160  0.00  0.00    +0.000 HD
ENDBRANCH   9  13
ENDBRANCH   7  11
ENDBRANCH   1   7
BRANCH   3  15
ATOM     15  C   UNL     1      43.588   5.209  12.117  0.00  0.00    +0.000 C 
BRANCH  15  16
ATOM     16  C   UNL     1      43.361   4.573  10.741  0.00  0.00    +0.000 C 
BRANCH  16  17
ATOM     17  N   UNL     1      44.258   5.101   9.707  0.00  0.00    +0.000 N 
ATOM     18  C   UNL     1      44.990   4.065   9.082  0.00  0.00    +0.000 A 
ATOM     19  C   UNL     1      45.892   4.395   8.070  0.00  0.00    +0.000 A 
ATOM     20  C   UNL     1      46.619   3.381   7.434  0.00  0.00    +0.000 A 
ATOM     21  C   UNL     1      46.416   2.061   7.833  0.00  0.00    +0.000 A 
ATOM     22  C   UNL     1      45.497   1.804   8.832  0.00  0.00    +0.000 A 
ATOM     23  N   UNL     1      44.787   2.780   9.450  0.00  0.00    +0.000 NA
ATOM     24  H   UNL     1      44.912   5.789  10.071  0.00  0.00    +0.000 HD
BRANCH  21  25
ATOM     25  N   UNL     1      47.147   0.959   7.227  0.00  0.00    +0.000 N 
ATOM     26  O   UNL     1      47.939   1.230   6.312  0.00  0.00    +0.000 OA
ATOM     27  O   UNL     1      46.945  -0.180   7.666  0.00  0.00    +0.000 OA
ENDBRANCH  21  25
ENDBRANCH  16  17
ENDBRANCH  15  16
ENDBRANCH   3  15
TORSDOF 7
ENDMDL
MODEL 4
REMARK VINA RESULT:    -7.732      1.242      1.327
REMARK INTER + INTRA:         -11.471
REMARK INTER:                 -10.872
REMARK INTRA:                  -0.599
REMARK UNBOUND:                -0.801
REMARK  Name = 
REMARK  8 active torsions:
REMARK  status: ('A' for Active; 'I' for Inactive)
REMARK    1  A    between atoms: C_1  and  C_2
REMARK    2  A    between atoms: C_2  and  O_3
REMARK    3  A    between atoms: C_5  and  O_6
REMARK    4  A    between atoms: O_6  and  C_7
REMARK    5  A    between atoms: C_9  and  C_10
REMARK    6  A    between atoms: C_10  and  C_11
REMARK    7  A    between atoms: C_11  and  N_12
REMARK    8  A    between atoms: C_16  and  N_17
REMARK                            x       y       z     vdW  Elec       q    Type
REMARK                         _______ _______ _______ _____ _____    ______ ____
ROOT
ATOM      1  C   UNL     1      46.847   6.034  13.399  0.00  0.00    +0.000 A 
ATOM      2  C   UNL     1      45.679   5.320  13.168  0.00  0.00    +0.000 A 
ATOM      3  C   UNL     1      44.632   5.941  12.473  0.00  0.00    +0.000 A 
ATOM      4  C   UNL     1      44.840   7.256  12.039  0.00  0.00    +0.000 A 
ATOM      5  C   UNL     1      46.050   7.879  12.307  0.00  0.00    +0.000 A 
ATOM      6  N   UNL     1      47.056   7.299  12.984  0.00  0.00    +0.000 NA
ENDROOT
BRANCH   1   7
ATOM      7  O   UNL     1      47.844   5.401  14.120  0.00  0.00    +0.000 OA
BRANCH   7  11
ATOM      8  C   UNL     1      50.309   4.703  17.807  0.00  0.00    +0.000 C 
ATOM      9  C   UNL     1      49.107   5.484  17.299  0.00  0.00    +0.000 C 
ATOM     10  C   UNL     1      48.068   4.632  16.532  0.00  0.00    +0.000 C 
ATOM     11  C   UNL     1      47.938   5.790  15.512  0.00  0.00    +0.000 C 
ATOM     12  C   UNL     1      49.339   6.259  15.975  0.00  0.00    +0.000 C 
BRANCH   9  13
ATOM     13  O   UNL     1      48.572   6.284  18.377  0.00  0.00    +0.000 OA
ATOM     14  H   UNL     1      48.584   5.704  19.159  0.00  0.00    +0.000 HD
ENDBRANCH   9  13
ENDBRANCH   7  11
ENDBRANCH   1   7
BRANCH   3  15
ATOM     15  C   UNL     1      43.339   5.178  12.229  0.00  0.00    +0.000 C 
BRANCH  15  16
ATOM     16  C   UNL     1      43.320   4.366  10.928  0.00  0.00    +0.000 C 
BRANCH  16  17
ATOM     17  N   UNL     1      44.115   4.976   9.857  0.00  0.00    +0.000 N 
ATOM     18  C   UNL     1      44.892   4.008   9.177  0.00  0.00    +0.000 A 
ATOM     19  C   UNL     1      45.709   4.421   8.124  0.00  0.00    +0.000 A 
ATOM     20  C   UNL     1      46.479   3.476   7.436  0.00  0.00    +0.000 A 
ATOM     21  C   UNL     1      46.403   2.139   7.824  0.00  0.00    +0.000 A 
ATOM     22  C   UNL     1      45.563   1.799   8.866  0.00  0.00    +0.000 A 
ATOM     23  N   UNL     1      44.812   2.708   9.536  0.00  0.00    +0.000 NA
ATOM     24  H   UNL     1      44.730   5.710  10.196  0.00  0.00    +0.000 HD
BRANCH  21  25
ATOM     25  N   UNL     1      47.186   1.107   7.163  0.00  0.00    +0.000 N 
ATOM     26  O   UNL     1      48.183   1.465   6.520  0.00  0.00    +0.000 OA
ATOM     27  O   UNL     1      46.817  -0.068   7.290  0.00  0.00    +0.000 OA
ENDBRANCH  21  25
ENDBRANCH  16  17
ENDBRANCH  15  16
ENDBRANCH   3  15
TORSDOF 7
ENDMDL
MODEL 5
REMARK VINA RESULT:    -7.726      2.303      3.559
REMARK INTER + INTRA:         -11.462
REMARK INTER:                 -10.601
REMARK INTRA:                  -0.861
REMARK UNBOUND:                -0.801
REMARK  Name = 
REMARK  8 active torsions:
REMARK  status: ('A' for Active; 'I' for Inactive)
REMARK    1  A    between atoms: C_1  and  C_2
REMARK    2  A    between atoms: C_2  and  O_3
REMARK    3  A    between atoms: C_5  and  O_6
REMARK    4  A    between atoms: O_6  and  C_7
REMARK    5  A    between atoms: C_9  and  C_10
REMARK    6  A    between atoms: C_10  and  C_11
REMARK    7  A    between atoms: C_11  and  N_12
REMARK    8  A    between atoms: C_16  and  N_17
REMARK                            x       y       z     vdW  Elec       q    Type
REMARK                         _______ _______ _______ _____ _____    ______ ____
ROOT
ATOM      1  C   UNL     1      47.062   6.038  12.934  0.00  0.00    +0.000 A 
ATOM      2  C   UNL     1      45.733   6.163  12.552  0.00  0.00    +0.000 A 
ATOM      3  C   UNL     1      44.889   5.049  12.659  0.00  0.00    +0.000 A 
ATOM      4  C   UNL     1      45.447   3.867  13.165  0.00  0.00    +0.000 A 
ATOM      5  C   UNL     1      46.784   3.848  13.533  0.00  0.00    +0.000 A 
ATOM      6  N   UNL     1      47.607   4.906  13.422  0.00  0.00    +0.000 NA
ENDROOT
BRANCH   1   7
ATOM      7  O   UNL     1      47.873   7.149  12.780  0.00  0.00    +0.000 OA
BRANCH   7  11
ATOM      8  C   UNL     1      50.186  10.524  14.626  0.00  0.00    +0.000 C 
ATOM      9  C   UNL     1      48.887   9.746  14.763  0.00  0.00    +0.000 C 
ATOM     10  C   UNL     1      49.060   8.208  14.762  0.00  0.00    +0.000 C 
ATOM     11  C   UNL     1      47.805   8.113  13.857  0.00  0.00    +0.000 C 
ATOM     12  C   UNL     1      48.078   9.581  13.449  0.00  0.00    +0.000 C 
BRANCH   9  13
ATOM     13  O   UNL     1      48.130  10.280  15.872  0.00  0.00    +0.000 OA
ATOM     14  H   UNL     1      47.218   9.969  15.735  0.00  0.00    +0.000 HD
ENDBRANCH   9  13
ENDBRANCH   7  11
ENDBRANCH   1   7
BRANCH   3  15
ATOM     15  C   UNL     1      43.436   5.166  12.228  0.00  0.00    +0.000 C 
BRANCH  15  16
ATOM     16  C   UNL     1      43.137   4.579  10.843  0.00  0.00    +0.000 C 
BRANCH  16  17
ATOM     17  N   UNL     1      44.010   5.112   9.791  0.00  0.00    +0.000 N 
ATOM     18  C   UNL     1      44.777   4.088   9.190  0.00  0.00    +0.000 A 
ATOM     19  C   UNL     1      45.663   4.424   8.165  0.00  0.00    +0.000 A 
ATOM     20  C   UNL     1      46.425   3.422   7.553  0.00  0.00    +0.000 A 
ATOM     21  C   UNL     1      46.273   2.106   7.988  0.00  0.00    +0.000 A 
ATOM     22  C   UNL     1      45.368   1.842   8.998  0.00  0.00    +0.000 A 
ATOM     23  N   UNL     1      44.625   2.807   9.594  0.00  0.00    +0.000 NA
ATOM     24  H   UNL     1      44.638   5.834  10.134  0.00  0.00    +0.000 HD
BRANCH  21  25
ATOM     25  N   UNL     1      47.043   1.017   7.409  0.00  0.00    +0.000 N 
ATOM     26  O   UNL     1      46.785  -0.135   7.789  0.00  0.00    +0.000 OA
ATOM     27  O   UNL     1      47.902   1.301   6.564  0.00  0.00    +0.000 OA
ENDBRANCH  21  25
ENDBRANCH  16  17
ENDBRANCH  15  16
ENDBRANCH   3  15
TORSDOF 7
ENDMDL
MODEL 6
REMARK VINA RESULT:    -7.576      1.459      2.004
REMARK INTER + INTRA:         -11.256
REMARK INTER:                 -10.654
REMARK INTRA:                  -0.602
REMARK UNBOUND:                -0.801
REMARK  Name = 
REMARK  8 active torsions:
REMARK  status: ('A' for Active; 'I' for Inactive)
REMARK    1  A    between atoms: C_1  and  C_2
REMARK    2  A    between atoms: C_2  and  O_3
REMARK    3  A    between atoms: C_5  and  O_6
REMARK    4  A    between atoms: O_6  and  C_7
REMARK    5  A    between atoms: C_9  and  C_10
REMARK    6  A    between atoms: C_10  and  C_11
REMARK    7  A    between atoms: C_11  and  N_12
REMARK    8  A    between atoms: C_16  and  N_17
REMARK                            x       y       z     vdW  Elec       q    Type
REMARK                         _______ _______ _______ _____ _____    ______ ____
ROOT
ATOM      1  C   UNL     1      47.026   4.716  14.309  0.00  0.00    +0.000 A 
ATOM      2  C   UNL     1      45.951   5.390  13.746  0.00  0.00    +0.000 A 
ATOM      3  C   UNL     1      45.124   4.710  12.841  0.00  0.00    +0.000 A 
ATOM      4  C   UNL     1      45.432   3.370  12.571  0.00  0.00    +0.000 A 
ATOM      5  C   UNL     1      46.521   2.782  13.196  0.00  0.00    +0.000 A 
ATOM      6  N   UNL     1      47.330   3.428  14.055  0.00  0.00    +0.000 NA
ENDROOT
BRANCH   1   7
ATOM      7  O   UNL     1      47.841   5.431  15.169  0.00  0.00    +0.000 OA
BRANCH   7  11
ATOM      8  C   UNL     1      47.898   5.696  19.650  0.00  0.00    +0.000 C 
ATOM      9  C   UNL     1      48.318   4.798  18.498  0.00  0.00    +0.000 C 
ATOM     10  C   UNL     1      49.100   5.521  17.376  0.00  0.00    +0.000 C 
ATOM     11  C   UNL     1      48.282   4.706  16.342  0.00  0.00    +0.000 C 
ATOM     12  C   UNL     1      47.213   4.519  17.445  0.00  0.00    +0.000 C 
BRANCH   9  13
ATOM     13  O   UNL     1      48.955   3.614  19.028  0.00  0.00    +0.000 OA
ATOM     14  H   UNL     1      48.460   2.865  18.654  0.00  0.00    +0.000 HD
ENDBRANCH   9  13
ENDBRANCH   7  11
ENDBRANCH   1   7
BRANCH   3  15
ATOM     15  C   UNL     1      43.953   5.440  12.202  0.00  0.00    +0.000 C 
BRANCH  15  16
ATOM     16  C   UNL     1      43.593   4.949  10.795  0.00  0.00    +0.000 C 
BRANCH  16  17
ATOM     17  N   UNL     1      44.564   5.361   9.775  0.00  0.00    +0.000 N 
ATOM     18  C   UNL     1      45.147   4.241   9.137  0.00  0.00    +0.000 A 
ATOM     19  C   UNL     1      46.095   4.456   8.136  0.00  0.00    +0.000 A 
ATOM     20  C   UNL     1      46.677   3.359   7.489  0.00  0.00    +0.000 A 
ATOM     21  C   UNL     1      46.286   2.076   7.864  0.00  0.00    +0.000 A 
ATOM     22  C   UNL     1      45.332   1.936   8.853  0.00  0.00    +0.000 A 
ATOM     23  N   UNL     1      44.762   2.992   9.484  0.00  0.00    +0.000 NA
ATOM     24  H   UNL     1      45.305   5.944  10.155  0.00  0.00    +0.000 HD
BRANCH  21  25
ATOM     25  N   UNL     1      46.859   0.891   7.245  0.00  0.00    +0.000 N 
ATOM     26  O   UNL     1      46.796  -0.175   7.876  0.00  0.00    +0.000 OA
ATOM     27  O   UNL     1      47.368   1.013   6.123  0.00  0.00    +0.000 OA
ENDBRANCH  21  25
ENDBRANCH  16  17
ENDBRANCH  15  16
ENDBRANCH   3  15
TORSDOF 7
ENDMDL
MODEL 7
REMARK VINA RESULT:    -7.280      2.048      7.697
REMARK INTER + INTRA:         -10.847
REMARK INTER:                 -10.356
REMARK INTRA:                  -0.491
REMARK UNBOUND:                -0.801
REMARK  Name = 
REMARK  8 active torsions:
REMARK  status: ('A' for Active; 'I' for Inactive)
REMARK    1  A    between atoms: C_1  and  C_2
REMARK    2  A    between atoms: C_2  and  O_3
REMARK    3  A    between atoms: C_5  and  O_6
REMARK    4  A    between atoms: O_6  and  C_7
REMARK    5  A    between atoms: C_9  and  C_10
REMARK    6  A    between atoms: C_10  and  C_11
REMARK    7  A    between atoms: C_11  and  N_12
REMARK    8  A    between atoms: C_16  and  N_17
REMARK                            x       y       z     vdW  Elec       q    Type
REMARK                         _______ _______ _______ _____ _____    ______ ____
ROOT
ATOM      1  C   UNL     1      44.350   3.563  10.143  0.00  0.00    +0.000 A 
ATOM      2  C   UNL     1      45.143   4.691  10.305  0.00  0.00    +0.000 A 
ATOM      3  C   UNL     1      44.852   5.579  11.350  0.00  0.00    +0.000 A 
ATOM      4  C   UNL     1      43.772   5.259  12.183  0.00  0.00    +0.000 A 
ATOM      5  C   UNL     1      43.049   4.099  11.947  0.00  0.00    +0.000 A 
ATOM      6  N   UNL     1      43.311   3.246  10.940  0.00  0.00    +0.000 NA
ENDROOT
BRANCH   1   7
ATOM      7  O   UNL     1      44.646   2.729   9.079  0.00  0.00    +0.000 OA
BRANCH   7  11
ATOM      8  C   UNL     1      46.845   2.428   5.177  0.00  0.00    +0.000 C 
ATOM      9  C   UNL     1      47.046   2.786   6.641  0.00  0.00    +0.000 C 
ATOM     10  C   UNL     1      46.490   1.740   7.636  0.00  0.00    +0.000 C 
ATOM     11  C   UNL     1      45.961   2.911   8.502  0.00  0.00    +0.000 C 
ATOM     12  C   UNL     1      46.008   3.781   7.222  0.00  0.00    +0.000 C 
BRANCH   9  13
ATOM     13  O   UNL     1      48.424   3.164   6.851  0.00  0.00    +0.000 OA
ATOM     14  H   UNL     1      48.536   4.007   6.378  0.00  0.00    +0.000 HD
ENDBRANCH   9  13
ENDBRANCH   7  11
ENDBRANCH   1   7
BRANCH   3  15
ATOM     15  C   UNL     1      45.700   6.829  11.530  0.00  0.00    +0.000 C 
BRANCH  15  16
ATOM     16  C   UNL     1      47.208   6.563  11.618  0.00  0.00    +0.000 C 
BRANCH  16  17
ATOM     17  N   UNL     1      47.819   7.110  12.834  0.00  0.00    +0.000 N 
ATOM     18  C   UNL     1      47.773   6.178  13.897  0.00  0.00    +0.000 A 
ATOM     19  C   UNL     1      48.314   6.539  15.132  0.00  0.00    +0.000 A 
ATOM     20  C   UNL     1      48.285   5.626  16.193  0.00  0.00    +0.000 A 
ATOM     21  C   UNL     1      47.713   4.373  15.982  0.00  0.00    +0.000 A 
ATOM     22  C   UNL     1      47.208   4.076  14.731  0.00  0.00    +0.000 A 
ATOM     23  N   UNL     1      47.235   4.954  13.698  0.00  0.00    +0.000 NA
ATOM     24  H   UNL     1      47.378   7.975  13.138  0.00  0.00    +0.000 HD
BRANCH  21  25
ATOM     25  N   UNL     1      47.634   3.381  17.043  0.00  0.00    +0.000 N 
ATOM     26  O   UNL     1      48.697   3.009  17.562  0.00  0.00    +0.000 OA
ATOM     27  O   UNL     1      46.513   2.973  17.372  0.00  0.00    +0.000 OA
ENDBRANCH  21  25
ENDBRANCH  16  17
ENDBRANCH  15  16
ENDBRANCH   3  15
TORSDOF 7
ENDMDL
MODEL 8
REMARK VINA RESULT:    -6.931      2.611      8.672
REMARK INTER + INTRA:         -10.366
REMARK INTER:                  -9.829
REMARK INTRA:                  -0.537
REMARK UNBOUND:                -0.801
REMARK  Name = 
REMARK  8 active torsions:
REMARK  status: ('A' for Active; 'I' for Inactive)
REMARK    1  A    between atoms: C_1  and  C_2
REMARK    2  A    between atoms: C_2  and  O_3
REMARK    3  A    between atoms: C_5  and  O_6
REMARK    4  A    between atoms: O_6  and  C_7
REMARK    5  A    between atoms: C_9  and  C_10
REMARK    6  A    between atoms: C_10  and  C_11
REMARK    7  A    between atoms: C_11  and  N_12
REMARK    8  A    between atoms: C_16  and  N_17
REMARK                            x       y       z     vdW  Elec       q    Type
REMARK                         _______ _______ _______ _____ _____    ______ ____
ROOT
ATOM      1  C   UNL     1      44.443   4.154  10.050  0.00  0.00    +0.000 A 
ATOM      2  C   UNL     1      45.185   5.035  10.825  0.00  0.00    +0.000 A 
ATOM      3  C   UNL     1      44.893   5.145  12.192  0.00  0.00    +0.000 A 
ATOM      4  C   UNL     1      43.867   4.337  12.697  0.00  0.00    +0.000 A 
ATOM      5  C   UNL     1      43.193   3.477  11.842  0.00  0.00    +0.000 A 
ATOM      6  N   UNL     1      43.454   3.372  10.527  0.00  0.00    +0.000 NA
ENDROOT
BRANCH   1   7
ATOM      7  O   UNL     1      44.734   4.100   8.698  0.00  0.00    +0.000 OA
BRANCH   7  11
ATOM      8  C   UNL     1      47.097   2.680   5.154  0.00  0.00    +0.000 C 
ATOM      9  C   UNL     1      47.087   2.659   6.675  0.00  0.00    +0.000 C 
ATOM     10  C   UNL     1      45.738   2.230   7.299  0.00  0.00    +0.000 C 
ATOM     11  C   UNL     1      45.924   3.348   8.356  0.00  0.00    +0.000 C 
ATOM     12  C   UNL     1      46.877   4.039   7.351  0.00  0.00    +0.000 C 
BRANCH   9  13
ATOM     13  O   UNL     1      48.243   1.929   7.145  0.00  0.00    +0.000 OA
ATOM     14  H   UNL     1      48.970   2.576   7.155  0.00  0.00    +0.000 HD
ENDBRANCH   9  13
ENDBRANCH   7  11
ENDBRANCH   1   7
BRANCH   3  15
ATOM     15  C   UNL     1      45.685   6.119  13.051  0.00  0.00    +0.000 C 
BRANCH  15  16
ATOM     16  C   UNL     1      46.942   5.519  13.693  0.00  0.00    +0.000 C 
BRANCH  16  17
ATOM     17  N   UNL     1      46.642   4.494  14.698  0.00  0.00    +0.000 N 
ATOM     18  C   UNL     1      47.511   4.592  15.809  0.00  0.00    +0.000 A 
ATOM     19  C   UNL     1      47.361   3.688  16.862  0.00  0.00    +0.000 A 
ATOM     20  C   UNL     1      48.207   3.777  17.974  0.00  0.00    +0.000 A 
ATOM     21  C   UNL     1      49.180   4.775  17.998  0.00  0.00    +0.000 A 
ATOM     22  C   UNL     1      49.264   5.644  16.928  0.00  0.00    +0.000 A 
ATOM     23  N   UNL     1      48.447   5.567  15.848  0.00  0.00    +0.000 NA
ATOM     24  H   UNL     1      46.697   3.550  14.322  0.00  0.00    +0.000 HD
BRANCH  21  25
ATOM     25  N   UNL     1      50.103   4.915  19.113  0.00  0.00    +0.000 N 
ATOM     26  O   UNL     1      49.748   5.625  20.066  0.00  0.00    +0.000 OA
ATOM     27  O   UNL     1      51.181   4.311  19.052  0.00  0.00    +0.000 OA
ENDBRANCH  21  25
ENDBRANCH  16  17
ENDBRANCH  15  16
ENDBRANCH   3  15
TORSDOF 7
ENDMDL
MODEL 9
REMARK VINA RESULT:    -6.831      2.702      3.355
REMARK INTER + INTRA:         -10.227
REMARK INTER:                  -9.599
REMARK INTRA:                  -0.628
REMARK UNBOUND:                -0.801
REMARK  Name = 
REMARK  8 active torsions:
REMARK  status: ('A' for Active; 'I' for Inactive)
REMARK    1  A    between atoms: C_1  and  C_2
REMARK    2  A    between atoms: C_2  and  O_3
REMARK    3  A    between atoms: C_5  and  O_6
REMARK    4  A    between atoms: O_6  and  C_7
REMARK    5  A    between atoms: C_9  and  C_10
REMARK    6  A    between atoms: C_10  and  C_11
REMARK    7  A    between atoms: C_11  and  N_12
REMARK    8  A    between atoms: C_16  and  N_17
REMARK                            x       y       z     vdW  Elec       q    Type
REMARK                         _______ _______ _______ _____ _____    ______ ____
ROOT
ATOM      1  C   UNL     1      47.461   7.228  12.643  0.00  0.00    +0.000 A 
ATOM      2  C   UNL     1      46.667   6.093  12.552  0.00  0.00    +0.000 A 
ATOM      3  C   UNL     1      45.287   6.245  12.367  0.00  0.00    +0.000 A 
ATOM      4  C   UNL     1      44.791   7.551  12.270  0.00  0.00    +0.000 A 
ATOM      5  C   UNL     1      45.669   8.622  12.358  0.00  0.00    +0.000 A 
ATOM      6  N   UNL     1      46.994   8.489  12.550  0.00  0.00    +0.000 NA
ENDROOT
BRANCH   1   7
ATOM      7  O   UNL     1      48.814   7.040  12.863  0.00  0.00    +0.000 OA
BRANCH   7  11
ATOM      8  C   UNL     1      52.761   8.056  14.745  0.00  0.00    +0.000 C 
ATOM      9  C   UNL     1      51.301   8.479  14.721  0.00  0.00    +0.000 C 
ATOM     10  C   UNL     1      50.297   7.317  14.909  0.00  0.00    +0.000 C 
ATOM     11  C   UNL     1      49.418   7.958  13.806  0.00  0.00    +0.000 C 
ATOM     12  C   UNL     1      50.696   8.674  13.306  0.00  0.00    +0.000 C 
BRANCH   9  13
ATOM     13  O   UNL     1      51.118   9.601  15.613  0.00  0.00    +0.000 OA
ATOM     14  H   UNL     1      50.979   9.211  16.493  0.00  0.00    +0.000 HD
ENDBRANCH   9  13
ENDBRANCH   7  11
ENDBRANCH   1   7
BRANCH   3  15
ATOM     15  C   UNL     1      44.402   5.011  12.284  0.00  0.00    +0.000 C 
BRANCH  15  16
ATOM     16  C   UNL     1      43.766   4.779  10.908  0.00  0.00    +0.000 C 
BRANCH  16  17
ATOM     17  N   UNL     1      44.588   5.281   9.801  0.00  0.00    +0.000 N 
ATOM     18  C   UNL     1      45.233   4.224   9.119  0.00  0.00    +0.000 A 
ATOM     19  C   UNL     1      46.057   4.527   8.034  0.00  0.00    +0.000 A 
ATOM     20  C   UNL     1      46.697   3.493   7.342  0.00  0.00    +0.000 A 
ATOM     21  C   UNL     1      46.489   2.179   7.758  0.00  0.00    +0.000 A 
ATOM     22  C   UNL     1      45.650   1.949   8.831  0.00  0.00    +0.000 A 
ATOM     23  N   UNL     1      45.025   2.945   9.506  0.00  0.00    +0.000 NA
ATOM     24  H   UNL     1      45.290   5.949  10.108  0.00  0.00    +0.000 HD
BRANCH  21  25
ATOM     25  N   UNL     1      47.134   1.056   7.095  0.00  0.00    +0.000 N 
ATOM     26  O   UNL     1      47.988   1.312   6.233  0.00  0.00    +0.000 OA
ATOM     27  O   UNL     1      46.801  -0.086   7.436  0.00  0.00    +0.000 OA
ENDBRANCH  21  25
ENDBRANCH  16  17
ENDBRANCH  15  16
ENDBRANCH   3  15
TORSDOF 7
ENDMDL
