MODEL 1
REMARK VINA RESULT:    -9.094      0.000      0.000
REMARK INTER + INTRA:         -13.746
REMARK INTER:                 -12.815
REMARK INTRA:                  -0.931
REMARK UNBOUND:                -0.931
REMARK  Name = 
REMARK  8 active torsions:
REMARK  status: ('A' for Active; 'I' for Inactive)
REMARK    1  A    between atoms: C_1  and  C_2
REMARK    2  A    between atoms: C_2  and  N_3
REMARK    3  A    between atoms: C_2  and  C_25
REMARK    4  A    between atoms: N_3  and  C_4
REMARK    5  A    between atoms: C_4  and  C_5
REMARK    6  A    between atoms: C_8  and  C_9
REMARK    7  A    between atoms: C_9  and  N_10
REMARK    8  A    between atoms: C_11  and  C_13
REMARK                            x       y       z     vdW  Elec       q    Type
REMARK                         _______ _______ _______ _____ _____    ______ ____
ROOT
ATOM      1  C   UNL     1      43.503   4.500  12.130  0.00  0.00    +0.000 C 
ATOM      2  C   UNL     1      44.369   3.262  12.444  0.00  0.00    +0.000 C 
ATOM      3  C   UNL     1      45.870   3.537  12.377  0.00  0.00    +0.000 C 
ATOM      4  C   UNL     1      46.288   4.713  13.271  0.00  0.00    +0.000 C 
ATOM      5  C   UNL     1      45.503   5.961  12.846  0.00  0.00    +0.000 C 
ATOM      6  C   UNL     1      43.985   5.753  12.886  0.00  0.00    +0.000 C 
ENDROOT
BRANCH   1   7
ATOM      7  C   UNL     1      43.406   4.791  10.616  0.00  0.00    +0.000 C 
BRANCH   7   8
ATOM      8  N   UNL     1      44.148   3.786   9.860  0.00  0.00    +0.000 NA
ATOM      9  H   UNL     1      43.492   3.119   9.449  0.00  0.00    +0.000 HD
BRANCH   8  11
ATOM     10  C   UNL     1      45.931   5.433   9.220  0.00  0.00    +0.000 C 
ATOM     11  C   UNL     1      44.964   4.336   8.762  0.00  0.00    +0.000 C 
BRANCH  11  12
ATOM     12  C   UNL     1      45.758   3.216   8.087  0.00  0.00    +0.000 A 
ATOM     13  C   UNL     1      46.527   3.477   6.951  0.00  0.00    +0.000 A 
ATOM     14  C   UNL     1      47.227   2.435   6.352  0.00  0.00    +0.000 A 
ATOM     15  C   UNL     1      47.147   1.162   6.900  0.00  0.00    +0.000 A 
ATOM     16  C   UNL     1      46.370   0.986   8.033  0.00  0.00    +0.000 A 
ATOM     17  N   UNL     1      45.678   1.977   8.637  0.00  0.00    +0.000 NA
ENDBRANCH  11  12
ENDBRANCH   8  11
ENDBRANCH   7   8
ENDBRANCH   1   7
BRANCH   4  18
ATOM     18  C   UNL     1      46.097   4.429  14.773  0.00  0.00    +0.000 C 
BRANCH  18  19
ATOM     19  N   UNL     1      47.301   4.638  15.547  0.00  0.00    +0.000 N 
ATOM     20  C   UNL     1      47.527   4.069  16.771  0.00  0.00    +0.000 C 
ATOM     21  O   UNL     1      46.664   3.418  17.351  0.00  0.00    +0.000 OA
ATOM     22  H   UNL     1      47.990   5.268  15.144  0.00  0.00    +0.000 HD
BRANCH  20  23
ATOM     23  C   UNL     1      48.877   4.233  17.340  0.00  0.00    +0.000 A 
ATOM     24  C   UNL     1      49.183   5.394  18.038  0.00  0.00    +0.000 A 
ATOM     25  S   UNL     1      50.736   5.386  18.742  0.00  0.00    +0.000 S 
ATOM     26  C   UNL     1      51.057   3.828  18.140  0.00  0.00    +0.000 A 
ATOM     27  N   UNL     1      52.224   3.193  18.441  0.00  0.00    +0.000 NA
ATOM     28  C   UNL     1      52.328   2.006  17.945  0.00  0.00    +0.000 A 
ATOM     29  N   UNL     1      51.386   1.406  17.153  0.00  0.00    +0.000 N 
ATOM     30  C   UNL     1      50.231   2.039  16.762  0.00  0.00    +0.000 A 
ATOM     31  O   UNL     1      49.474   1.521  15.946  0.00  0.00    +0.000 OA
ATOM     32  C   UNL     1      50.019   3.342  17.365  0.00  0.00    +0.000 A 
ATOM     33  H   UNL     1      51.551   0.494  16.754  0.00  0.00    +0.000 HD
ENDBRANCH  20  23
ENDBRANCH  18  19
ENDBRANCH   4  18
TORSDOF 7
ENDMDL
MODEL 2
REMARK VINA RESULT:    -8.255      1.227      1.901
REMARK INTER + INTRA:         -12.563
REMARK INTER:                 -11.646
REMARK INTRA:                  -0.917
REMARK UNBOUND:                -0.931
REMARK  Name = 
REMARK  8 active torsions:
REMARK  status: ('A' for Active; 'I' for Inactive)
REMARK    1  A    between atoms: C_1  and  C_2
REMARK    2  A    between atoms: C_2  and  N_3
REMARK    3  A    between atoms: C_2  and  C_25
REMARK    4  A    between atoms: N_3  and  C_4
REMARK    5  A    between atoms: C_4  and  C_5
REMARK    6  A    between atoms: C_8  and  C_9
REMARK    7  A    between atoms: C_9  and  N_10
REMARK    8  A    between atoms: C_11  and  C_13
REMARK                            x       y       z     vdW  Elec       q    Type
REMARK                         _______ _______ _______ _____ _____    ______ ____
ROOT
ATOM      1  C   UNL     1      43.510   4.498  12.143  0.00  0.00    +0.000 C 
ATOM      2  C   UNL     1      44.355   3.242  12.441  0.00  0.00    +0.000 C 
ATOM      3  C   UNL     1      45.860   3.484  12.345  0.00  0.00    +0.000 C 
ATOM      4  C   UNL     1      46.320   4.650  13.232  0.00  0.00    +0.000 C 
ATOM      5  C   UNL     1      45.554   5.915  12.822  0.00  0.00    +0.000 C 
ATOM      6  C   UNL     1      44.034   5.740  12.890  0.00  0.00    +0.000 C 
ENDROOT
BRANCH   1   7
ATOM      7  C   UNL     1      43.391   4.792  10.631  0.00  0.00    +0.000 C 
BRANCH   7   8
ATOM      8  N   UNL     1      44.117   3.785   9.863  0.00  0.00    +0.000 NA
ATOM      9  H   UNL     1      43.450   3.133   9.445  0.00  0.00    +0.000 HD
BRANCH   8  11
ATOM     10  C   UNL     1      45.911   5.424   9.234  0.00  0.00    +0.000 C 
ATOM     11  C   UNL     1      44.939   4.335   8.768  0.00  0.00    +0.000 C 
BRANCH  11  12
ATOM     12  C   UNL     1      45.727   3.214   8.090  0.00  0.00    +0.000 A 
ATOM     13  C   UNL     1      46.466   3.466   6.933  0.00  0.00    +0.000 A 
ATOM     14  C   UNL     1      47.162   2.422   6.331  0.00  0.00    +0.000 A 
ATOM     15  C   UNL     1      47.108   1.156   6.898  0.00  0.00    +0.000 A 
ATOM     16  C   UNL     1      46.360   0.989   8.053  0.00  0.00    +0.000 A 
ATOM     17  N   UNL     1      45.673   1.981   8.660  0.00  0.00    +0.000 NA
ENDBRANCH  11  12
ENDBRANCH   8  11
ENDBRANCH   7   8
ENDBRANCH   1   7
BRANCH   4  18
ATOM     18  C   UNL     1      46.151   4.370  14.737  0.00  0.00    +0.000 C 
BRANCH  18  19
ATOM     19  N   UNL     1      47.410   4.180  15.423  0.00  0.00    +0.000 N 
ATOM     20  C   UNL     1      47.526   3.586  16.651  0.00  0.00    +0.000 C 
ATOM     21  O   UNL     1      46.542   3.264  17.310  0.00  0.00    +0.000 OA
ATOM     22  H   UNL     1      48.237   4.542  14.954  0.00  0.00    +0.000 HD
BRANCH  20  23
ATOM     23  C   UNL     1      48.892   3.303  17.125  0.00  0.00    +0.000 A 
ATOM     24  C   UNL     1      49.482   2.085  16.809  0.00  0.00    +0.000 A 
ATOM     25  S   UNL     1      51.104   1.953  17.317  0.00  0.00    +0.000 S 
ATOM     26  C   UNL     1      51.080   3.519  17.978  0.00  0.00    +0.000 A 
ATOM     27  N   UNL     1      52.202   4.060  18.528  0.00  0.00    +0.000 NA
ATOM     28  C   UNL     1      52.054   5.265  18.966  0.00  0.00    +0.000 A 
ATOM     29  N   UNL     1      50.880   5.969  18.930  0.00  0.00    +0.000 N 
ATOM     30  C   UNL     1      49.707   5.436  18.454  0.00  0.00    +0.000 A 
ATOM     31  O   UNL     1      48.649   6.049  18.558  0.00  0.00    +0.000 OA
ATOM     32  C   UNL     1      49.836   4.116  17.865  0.00  0.00    +0.000 A 
ATOM     33  H   UNL     1      50.818   6.892  19.336  0.00  0.00    +0.000 HD
ENDBRANCH  20  23
ENDBRANCH  18  19
ENDBRANCH   4  18
TORSDOF 7
ENDMDL
MODEL 3
REMARK VINA RESULT:    -8.067      2.034      2.827
REMARK INTER + INTRA:         -12.298
REMARK INTER:                 -10.988
REMARK INTRA:                  -1.310
REMARK UNBOUND:                -0.931
REMARK  Name = 
REMARK  8 active torsions:
REMARK  status: ('A' for Active; 'I' for Inactive)
REMARK    1  A    between atoms: C_1  and  C_2
REMARK    2  A    between atoms: C_2  and  N_3
REMARK    3  A    between atoms: C_2  and  C_25
REMARK    4  A    between atoms: N_3  and  C_4
REMARK    5  A    between atoms: C_4  and  C_5
REMARK    6  A    between atoms: C_8  and  C_9
REMARK    7  A    between atoms: C_9  and  N_10
REMARK    8  A    between atoms: C_11  and  C_13
REMARK                            x       y       z     vdW  Elec       q    Type
REMARK                         _______ _______ _______ _____ _____    ______ ____
ROOT
ATOM      1  C   UNL     1      45.384   4.878  10.821  0.00  0.00    +0.000 C 
ATOM      2  C   UNL     1      45.662   6.353  10.462  0.00  0.00    +0.000 C 
ATOM      3  C   UNL     1      45.012   7.346  11.423  0.00  0.00    +0.000 C 
ATOM      4  C   UNL     1      45.396   7.079  12.886  0.00  0.00    +0.000 C 
ATOM      5  C   UNL     1      44.986   5.645  13.250  0.00  0.00    +0.000 C 
ATOM      6  C   UNL     1      45.602   4.595  12.320  0.00  0.00    +0.000 C 
ENDROOT
BRANCH   1   7
ATOM      7  C   UNL     1      43.977   4.414  10.386  0.00  0.00    +0.000 C 
BRANCH   7   8
ATOM      8  N   UNL     1      44.057   3.660   9.137  0.00  0.00    +0.000 NA
ATOM      9  H   UNL     1      44.434   4.262   8.403  0.00  0.00    +0.000 HD
BRANCH   8  11
ATOM     10  C   UNL     1      44.117   1.151   9.210  0.00  0.00    +0.000 C 
ATOM     11  C   UNL     1      44.913   2.461   9.208  0.00  0.00    +0.000 C 
BRANCH  11  12
ATOM     12  C   UNL     1      45.898   2.450   8.038  0.00  0.00    +0.000 A 
ATOM     13  C   UNL     1      45.977   3.539   7.168  0.00  0.00    +0.000 A 
ATOM     14  C   UNL     1      46.873   3.493   6.105  0.00  0.00    +0.000 A 
ATOM     15  C   UNL     1      47.669   2.369   5.938  0.00  0.00    +0.000 A 
ATOM     16  C   UNL     1      47.539   1.335   6.850  0.00  0.00    +0.000 A 
ATOM     17  N   UNL     1      46.678   1.348   7.891  0.00  0.00    +0.000 NA
ENDBRANCH  11  12
ENDBRANCH   8  11
ENDBRANCH   7   8
ENDBRANCH   1   7
BRANCH   4  18
ATOM     18  C   UNL     1      46.890   7.312  13.172  0.00  0.00    +0.000 C 
BRANCH  18  19
ATOM     19  N   UNL     1      47.343   6.669  14.385  0.00  0.00    +0.000 N 
ATOM     20  C   UNL     1      48.657   6.598  14.764  0.00  0.00    +0.000 C 
ATOM     21  O   UNL     1      49.563   6.989  14.035  0.00  0.00    +0.000 OA
ATOM     22  H   UNL     1      46.625   6.232  14.957  0.00  0.00    +0.000 HD
BRANCH  20  23
ATOM     23  C   UNL     1      48.929   6.074  16.115  0.00  0.00    +0.000 A 
ATOM     24  C   UNL     1      49.697   6.829  16.993  0.00  0.00    +0.000 A 
ATOM     25  S   UNL     1      49.822   6.154  18.554  0.00  0.00    +0.000 S 
ATOM     26  C   UNL     1      48.854   4.827  18.114  0.00  0.00    +0.000 A 
ATOM     27  N   UNL     1      48.512   3.881  19.032  0.00  0.00    +0.000 NA
ATOM     28  C   UNL     1      47.751   2.944  18.575  0.00  0.00    +0.000 A 
ATOM     29  N   UNL     1      47.322   2.852  17.277  0.00  0.00    +0.000 N 
ATOM     30  C   UNL     1      47.704   3.741  16.303  0.00  0.00    +0.000 A 
ATOM     31  O   UNL     1      47.407   3.552  15.126  0.00  0.00    +0.000 OA
ATOM     32  C   UNL     1      48.486   4.867  16.781  0.00  0.00    +0.000 A 
ATOM     33  H   UNL     1      46.768   2.065  16.970  0.00  0.00    +0.000 HD
ENDBRANCH  20  23
ENDBRANCH  18  19
ENDBRANCH   4  18
TORSDOF 7
ENDMDL
MODEL 4
REMARK VINA RESULT:    -7.871      2.307      2.993
REMARK INTER + INTRA:         -12.022
REMARK INTER:                 -10.749
REMARK INTRA:                  -1.273
REMARK UNBOUND:                -0.931
REMARK  Name = 
REMARK  8 active torsions:
REMARK  status: ('A' for Active; 'I' for Inactive)
REMARK    1  A    between atoms: C_1  and  C_2
REMARK    2  A    between atoms: C_2  and  N_3
REMARK    3  A    between atoms: C_2  and  C_25
REMARK    4  A    between atoms: N_3  and  C_4
REMARK    5  A    between atoms: C_4  and  C_5
REMARK    6  A    between atoms: C_8  and  C_9
REMARK    7  A    between atoms: C_9  and  N_10
REMARK    8  A    between atoms: C_11  and  C_13
REMARK                            x       y       z     vdW  Elec       q    Type
REMARK                         _______ _______ _______ _____ _____    ______ ____
ROOT
ATOM      1  C   UNL     1      43.585   4.617  12.246  0.00  0.00    +0.000 C 
ATOM      2  C   UNL     1      44.249   3.251  12.520  0.00  0.00    +0.000 C 
ATOM      3  C   UNL     1      45.764   3.260  12.326  0.00  0.00    +0.000 C 
ATOM      4  C   UNL     1      46.451   4.356  13.154  0.00  0.00    +0.000 C 
ATOM      5  C   UNL     1      45.860   5.717  12.762  0.00  0.00    +0.000 C 
ATOM      6  C   UNL     1      44.338   5.775  12.929  0.00  0.00    +0.000 C 
ENDROOT
BRANCH   1   7
ATOM      7  C   UNL     1      43.414   4.904  10.738  0.00  0.00    +0.000 C 
BRANCH   7   8
ATOM      8  N   UNL     1      44.115   3.895   9.949  0.00  0.00    +0.000 NA
ATOM      9  H   UNL     1      43.433   3.258   9.532  0.00  0.00    +0.000 HD
BRANCH   8  11
ATOM     10  C   UNL     1      45.909   5.533   9.314  0.00  0.00    +0.000 C 
ATOM     11  C   UNL     1      44.932   4.446   8.851  0.00  0.00    +0.000 C 
BRANCH  11  12
ATOM     12  C   UNL     1      45.715   3.324   8.167  0.00  0.00    +0.000 A 
ATOM     13  C   UNL     1      45.643   2.015   8.645  0.00  0.00    +0.000 A 
ATOM     14  C   UNL     1      46.377   1.019   8.010  0.00  0.00    +0.000 A 
ATOM     15  C   UNL     1      47.160   1.350   6.913  0.00  0.00    +0.000 A 
ATOM     16  C   UNL     1      47.171   2.671   6.492  0.00  0.00    +0.000 A 
ATOM     17  N   UNL     1      46.471   3.660   7.089  0.00  0.00    +0.000 NA
ENDBRANCH  11  12
ENDBRANCH   8  11
ENDBRANCH   7   8
ENDBRANCH   1   7
BRANCH   4  18
ATOM     18  C   UNL     1      46.341   4.125  14.673  0.00  0.00    +0.000 C 
BRANCH  18  19
ATOM     19  N   UNL     1      47.095   5.084  15.448  0.00  0.00    +0.000 N 
ATOM     20  C   UNL     1      48.129   4.746  16.280  0.00  0.00    +0.000 C 
ATOM     21  O   UNL     1      48.420   3.576  16.508  0.00  0.00    +0.000 OA
ATOM     22  H   UNL     1      46.803   6.055  15.370  0.00  0.00    +0.000 HD
BRANCH  20  23
ATOM     23  C   UNL     1      48.911   5.857  16.851  0.00  0.00    +0.000 A 
ATOM     24  C   UNL     1      49.019   5.971  18.232  0.00  0.00    +0.000 A 
ATOM     25  S   UNL     1      50.056   7.227  18.739  0.00  0.00    +0.000 S 
ATOM     26  C   UNL     1      50.399   7.664  17.133  0.00  0.00    +0.000 A 
ATOM     27  N   UNL     1      51.291   8.655  16.857  0.00  0.00    +0.000 NA
ATOM     28  C   UNL     1      51.481   8.867  15.598  0.00  0.00    +0.000 A 
ATOM     29  N   UNL     1      50.840   8.198  14.589  0.00  0.00    +0.000 N 
ATOM     30  C   UNL     1      49.878   7.245  14.822  0.00  0.00    +0.000 A 
ATOM     31  O   UNL     1      49.234   6.762  13.896  0.00  0.00    +0.000 OA
ATOM     32  C   UNL     1      49.691   6.902  16.220  0.00  0.00    +0.000 A 
ATOM     33  H   UNL     1      50.996   8.446  13.623  0.00  0.00    +0.000 HD
ENDBRANCH  20  23
ENDBRANCH  18  19
ENDBRANCH   4  18
TORSDOF 7
ENDMDL
MODEL 5
REMARK VINA RESULT:    -7.622      2.484      3.365
REMARK INTER + INTRA:         -11.672
REMARK INTER:                 -10.680
REMARK INTRA:                  -0.992
REMARK UNBOUND:                -0.931
REMARK  Name = 
REMARK  8 active torsions:
REMARK  status: ('A' for Active; 'I' for Inactive)
REMARK    1  A    between atoms: C_1  and  C_2
REMARK    2  A    between atoms: C_2  and  N_3
REMARK    3  A    between atoms: C_2  and  C_25
REMARK    4  A    between atoms: N_3  and  C_4
REMARK    5  A    between atoms: C_4  and  C_5
REMARK    6  A    between atoms: C_8  and  C_9
REMARK    7  A    between atoms: C_9  and  N_10
REMARK    8  A    between atoms: C_11  and  C_13
REMARK                            x       y       z     vdW  Elec       q    Type
REMARK                         _______ _______ _______ _____ _____    ______ ____
ROOT
ATOM      1  C   UNL     1      45.421   4.854  10.717  0.00  0.00    +0.000 C 
ATOM      2  C   UNL     1      46.028   6.257  10.503  0.00  0.00    +0.000 C 
ATOM      3  C   UNL     1      45.467   7.315  11.450  0.00  0.00    +0.000 C 
ATOM      4  C   UNL     1      45.597   6.905  12.925  0.00  0.00    +0.000 C 
ATOM      5  C   UNL     1      44.870   5.570  13.132  0.00  0.00    +0.000 C 
ATOM      6  C   UNL     1      45.383   4.462  12.207  0.00  0.00    +0.000 C 
ENDROOT
BRANCH   1   7
ATOM      7  C   UNL     1      44.019   4.709  10.087  0.00  0.00    +0.000 C 
BRANCH   7   8
ATOM      8  N   UNL     1      44.073   3.813   8.935  0.00  0.00    +0.000 NA
ATOM      9  H   UNL     1      44.428   4.325   8.125  0.00  0.00    +0.000 HD
BRANCH   8  11
ATOM     10  C   UNL     1      44.153   1.323   9.239  0.00  0.00    +0.000 C 
ATOM     11  C   UNL     1      44.938   2.634   9.126  0.00  0.00    +0.000 C 
BRANCH  11  12
ATOM     12  C   UNL     1      45.937   2.525   7.973  0.00  0.00    +0.000 A 
ATOM     13  C   UNL     1      46.087   3.573   7.063  0.00  0.00    +0.000 A 
ATOM     14  C   UNL     1      46.993   3.438   6.017  0.00  0.00    +0.000 A 
ATOM     15  C   UNL     1      47.730   2.266   5.905  0.00  0.00    +0.000 A 
ATOM     16  C   UNL     1      47.531   1.276   6.854  0.00  0.00    +0.000 A 
ATOM     17  N   UNL     1      46.658   1.377   7.880  0.00  0.00    +0.000 NA
ENDBRANCH  11  12
ENDBRANCH   8  11
ENDBRANCH   7   8
ENDBRANCH   1   7
BRANCH   4  18
ATOM     18  C   UNL     1      47.059   6.815  13.401  0.00  0.00    +0.000 C 
BRANCH  18  19
ATOM     19  N   UNL     1      47.218   6.014  14.594  0.00  0.00    +0.000 N 
ATOM     20  C   UNL     1      48.362   5.986  15.345  0.00  0.00    +0.000 C 
ATOM     21  O   UNL     1      49.383   6.567  14.990  0.00  0.00    +0.000 OA
ATOM     22  H   UNL     1      46.427   5.429  14.852  0.00  0.00    +0.000 HD
BRANCH  20  23
ATOM     23  C   UNL     1      48.296   5.265  16.629  0.00  0.00    +0.000 A 
ATOM     24  C   UNL     1      48.181   3.880  16.624  0.00  0.00    +0.000 A 
ATOM     25  S   UNL     1      48.242   3.180  18.178  0.00  0.00    +0.000 S 
ATOM     26  C   UNL     1      48.423   4.701  18.915  0.00  0.00    +0.000 A 
ATOM     27  N   UNL     1      48.598   4.806  20.261  0.00  0.00    +0.000 NA
ATOM     28  C   UNL     1      48.753   6.015  20.687  0.00  0.00    +0.000 A 
ATOM     29  N   UNL     1      48.721   7.130  19.893  0.00  0.00    +0.000 N 
ATOM     30  C   UNL     1      48.472   7.077  18.543  0.00  0.00    +0.000 A 
ATOM     31  O   UNL     1      48.322   8.105  17.889  0.00  0.00    +0.000 OA
ATOM     32  C   UNL     1      48.382   5.735  17.996  0.00  0.00    +0.000 A 
ATOM     33  H   UNL     1      48.799   8.053  20.295  0.00  0.00    +0.000 HD
ENDBRANCH  20  23
ENDBRANCH  18  19
ENDBRANCH   4  18
TORSDOF 7
ENDMDL
MODEL 6
REMARK VINA RESULT:    -7.563      3.508      4.224
REMARK INTER + INTRA:         -11.589
REMARK INTER:                 -10.538
REMARK INTRA:                  -1.050
REMARK UNBOUND:                -0.931
REMARK  Name = 
REMARK  8 active torsions:
REMARK  status: ('A' for Active; 'I' for Inactive)
REMARK    1  A    between atoms: C_1  and  C_2
REMARK    2  A    between atoms: C_2  and  N_3
REMARK    3  A    between atoms: C_2  and  C_25
REMARK    4  A    between atoms: N_3  and  C_4
REMARK    5  A    between atoms: C_4  and  C_5
REMARK    6  A    between atoms: C_8  and  C_9
REMARK    7  A    between atoms: C_9  and  N_10
REMARK    8  A    between atoms: C_11  and  C_13
REMARK                            x       y       z     vdW  Elec       q    Type
REMARK                         _______ _______ _______ _____ _____    ______ ____
ROOT
ATOM      1  C   UNL     1      44.540   4.202  12.756  0.00  0.00    +0.000 C 
ATOM      2  C   UNL     1      45.984   4.624  12.410  0.00  0.00    +0.000 C 
ATOM      3  C   UNL     1      46.064   5.659  11.290  0.00  0.00    +0.000 C 
ATOM      4  C   UNL     1      45.208   6.901  11.581  0.00  0.00    +0.000 C 
ATOM      5  C   UNL     1      43.753   6.459  11.791  0.00  0.00    +0.000 C 
ATOM      6  C   UNL     1      43.601   5.415  12.901  0.00  0.00    +0.000 C 
ENDROOT
BRANCH   1   7
ATOM      7  C   UNL     1      43.958   3.189  11.746  0.00  0.00    +0.000 C 
BRANCH   7   8
ATOM      8  N   UNL     1      44.973   2.812  10.766  0.00  0.00    +0.000 NA
ATOM      9  H   UNL     1      45.300   1.865  10.967  0.00  0.00    +0.000 HD
BRANCH   8  11
ATOM     10  C   UNL     1      43.981   4.199   8.924  0.00  0.00    +0.000 C 
ATOM     11  C   UNL     1      44.501   2.828   9.369  0.00  0.00    +0.000 C 
BRANCH  11  12
ATOM     12  C   UNL     1      45.626   2.388   8.431  0.00  0.00    +0.000 A 
ATOM     13  C   UNL     1      46.260   3.314   7.600  0.00  0.00    +0.000 A 
ATOM     14  C   UNL     1      47.270   2.881   6.748  0.00  0.00    +0.000 A 
ATOM     15  C   UNL     1      47.627   1.540   6.747  0.00  0.00    +0.000 A 
ATOM     16  C   UNL     1      46.957   0.685   7.608  0.00  0.00    +0.000 A 
ATOM     17  N   UNL     1      45.972   1.074   8.445  0.00  0.00    +0.000 NA
ENDBRANCH  11  12
ENDBRANCH   8  11
ENDBRANCH   7   8
ENDBRANCH   1   7
BRANCH   4  18
ATOM     18  C   UNL     1      45.714   7.715  12.786  0.00  0.00    +0.000 C 
BRANCH  18  19
ATOM     19  N   UNL     1      47.156   7.733  12.893  0.00  0.00    +0.000 N 
ATOM     20  C   UNL     1      47.912   8.871  12.803  0.00  0.00    +0.000 C 
ATOM     21  O   UNL     1      47.417   9.956  12.514  0.00  0.00    +0.000 OA
ATOM     22  H   UNL     1      47.608   6.831  13.017  0.00  0.00    +0.000 HD
BRANCH  20  23
ATOM     23  C   UNL     1      49.346   8.741  13.119  0.00  0.00    +0.000 A 
ATOM     24  C   UNL     1      50.272   9.461  12.375  0.00  0.00    +0.000 A 
ATOM     25  S   UNL     1      51.875   9.306  12.936  0.00  0.00    +0.000 S 
ATOM     26  C   UNL     1      51.390   8.272  14.195  0.00  0.00    +0.000 A 
ATOM     27  N   UNL     1      52.293   7.814  15.106  0.00  0.00    +0.000 NA
ATOM     28  C   UNL     1      51.788   7.061  16.026  0.00  0.00    +0.000 A 
ATOM     29  N   UNL     1      50.469   6.702  16.102  0.00  0.00    +0.000 N 
ATOM     30  C   UNL     1      49.540   7.078  15.162  0.00  0.00    +0.000 A 
ATOM     31  O   UNL     1      48.397   6.630  15.192  0.00  0.00    +0.000 OA
ATOM     32  C   UNL     1      50.033   8.001  14.156  0.00  0.00    +0.000 A 
ATOM     33  H   UNL     1      50.146   6.068  16.819  0.00  0.00    +0.000 HD
ENDBRANCH  20  23
ENDBRANCH  18  19
ENDBRANCH   4  18
TORSDOF 7
ENDMDL
MODEL 7
REMARK VINA RESULT:    -7.452      3.795      8.854
REMARK INTER + INTRA:         -11.432
REMARK INTER:                 -10.213
REMARK INTRA:                  -1.220
REMARK UNBOUND:                -0.931
REMARK  Name = 
REMARK  8 active torsions:
REMARK  status: ('A' for Active; 'I' for Inactive)
REMARK    1  A    between atoms: C_1  and  C_2
REMARK    2  A    between atoms: C_2  and  N_3
REMARK    3  A    between atoms: C_2  and  C_25
REMARK    4  A    between atoms: N_3  and  C_4
REMARK    5  A    between atoms: C_4  and  C_5
REMARK    6  A    between atoms: C_8  and  C_9
REMARK    7  A    between atoms: C_9  and  N_10
REMARK    8  A    between atoms: C_11  and  C_13
REMARK                            x       y       z     vdW  Elec       q    Type
REMARK                         _______ _______ _______ _____ _____    ______ ____
ROOT
ATOM      1  C   UNL     1      48.694   7.958  15.120  0.00  0.00    +0.000 C 
ATOM      2  C   UNL     1      48.362   9.306  14.444  0.00  0.00    +0.000 C 
ATOM      3  C   UNL     1      48.884   9.414  13.013  0.00  0.00    +0.000 C 
ATOM      4  C   UNL     1      48.409   8.251  12.130  0.00  0.00    +0.000 C 
ATOM      5  C   UNL     1      48.868   6.930  12.762  0.00  0.00    +0.000 C 
ATOM      6  C   UNL     1      48.381   6.759  14.205  0.00  0.00    +0.000 C 
ENDROOT
BRANCH   1   7
ATOM      7  C   UNL     1      50.152   7.886  15.621  0.00  0.00    +0.000 C 
BRANCH   7   8
ATOM      8  N   UNL     1      50.587   6.495  15.711  0.00  0.00    +0.000 NA
ATOM      9  H   UNL     1      51.547   6.418  15.367  0.00  0.00    +0.000 HD
BRANCH   8  11
ATOM     10  C   UNL     1      50.390   7.012  18.159  0.00  0.00    +0.000 C 
ATOM     11  C   UNL     1      50.564   5.940  17.077  0.00  0.00    +0.000 C 
BRANCH  11  12
ATOM     12  C   UNL     1      49.443   4.909  17.206  0.00  0.00    +0.000 A 
ATOM     13  C   UNL     1      48.163   5.298  17.607  0.00  0.00    +0.000 A 
ATOM     14  C   UNL     1      47.168   4.334  17.728  0.00  0.00    +0.000 A 
ATOM     15  C   UNL     1      47.469   3.010  17.441  0.00  0.00    +0.000 A 
ATOM     16  C   UNL     1      48.759   2.705  17.039  0.00  0.00    +0.000 A 
ATOM     17  N   UNL     1      49.747   3.617  16.914  0.00  0.00    +0.000 NA
ENDBRANCH  11  12
ENDBRANCH   8  11
ENDBRANCH   7   8
ENDBRANCH   1   7
BRANCH   4  18
ATOM     18  C   UNL     1      46.886   8.249  11.900  0.00  0.00    +0.000 C 
BRANCH  18  19
ATOM     19  N   UNL     1      46.323   6.919  11.839  0.00  0.00    +0.000 N 
ATOM     20  C   UNL     1      45.010   6.660  11.550  0.00  0.00    +0.000 C 
ATOM     21  O   UNL     1      44.186   7.560  11.424  0.00  0.00    +0.000 OA
ATOM     22  H   UNL     1      46.957   6.153  12.053  0.00  0.00    +0.000 HD
BRANCH  20  23
ATOM     23  C   UNL     1      44.642   5.248  11.344  0.00  0.00    +0.000 A 
ATOM     24  C   UNL     1      43.924   4.583  12.331  0.00  0.00    +0.000 A 
ATOM     25  S   UNL     1      43.464   2.999  11.899  0.00  0.00    +0.000 S 
ATOM     26  C   UNL     1      44.208   3.142  10.377  0.00  0.00    +0.000 A 
ATOM     27  N   UNL     1      44.128   2.133   9.466  0.00  0.00    +0.000 NA
ATOM     28  C   UNL     1      44.710   2.382   8.341  0.00  0.00    +0.000 A 
ATOM     29  N   UNL     1      45.389   3.536   8.053  0.00  0.00    +0.000 N 
ATOM     30  C   UNL     1      45.559   4.547   8.968  0.00  0.00    +0.000 A 
ATOM     31  O   UNL     1      46.283   5.506   8.719  0.00  0.00    +0.000 OA
ATOM     32  C   UNL     1      44.847   4.359  10.219  0.00  0.00    +0.000 A 
ATOM     33  H   UNL     1      45.867   3.649   7.171  0.00  0.00    +0.000 HD
ENDBRANCH  20  23
ENDBRANCH  18  19
ENDBRANCH   4  18
TORSDOF 7
ENDMDL
MODEL 8
REMARK VINA RESULT:    -7.404      2.173      2.837
REMARK INTER + INTRA:         -11.364
REMARK INTER:                 -10.608
REMARK INTRA:                  -0.757
REMARK UNBOUND:                -0.931
REMARK  Name = 
REMARK  8 active torsions:
REMARK  status: ('A' for Active; 'I' for Inactive)
REMARK    1  A    between atoms: C_1  and  C_2
REMARK    2  A    between atoms: C_2  and  N_3
REMARK    3  A    between atoms: C_2  and  C_25
REMARK    4  A    between atoms: N_3  and  C_4
REMARK    5  A    between atoms: C_4  and  C_5
REMARK    6  A    between atoms: C_8  and  C_9
REMARK    7  A    between atoms: C_9  and  N_10
REMARK    8  A    between atoms: C_11  and  C_13
REMARK                            x       y       z     vdW  Elec       q    Type
REMARK                         _______ _______ _______ _____ _____    ______ ____
ROOT
ATOM      1  C   UNL     1      44.202   3.995  12.806  0.00  0.00    +0.000 C 
ATOM      2  C   UNL     1      45.737   4.148  12.871  0.00  0.00    +0.000 C 
ATOM      3  C   UNL     1      46.298   5.109  11.826  0.00  0.00    +0.000 C 
ATOM      4  C   UNL     1      45.629   6.490  11.884  0.00  0.00    +0.000 C 
ATOM      5  C   UNL     1      44.117   6.316  11.685  0.00  0.00    +0.000 C 
ATOM      6  C   UNL     1      43.489   5.357  12.701  0.00  0.00    +0.000 C 
ENDROOT
BRANCH   1   7
ATOM      7  C   UNL     1      43.745   3.060  11.666  0.00  0.00    +0.000 C 
BRANCH   7   8
ATOM      8  N   UNL     1      44.845   2.821  10.736  0.00  0.00    +0.000 NA
ATOM      9  H   UNL     1      45.183   1.863  10.852  0.00  0.00    +0.000 HD
BRANCH   8  11
ATOM     10  C   UNL     1      44.150   4.442   8.950  0.00  0.00    +0.000 C 
ATOM     11  C   UNL     1      44.486   2.992   9.316  0.00  0.00    +0.000 C 
BRANCH  11  12
ATOM     12  C   UNL     1      45.626   2.499   8.424  0.00  0.00    +0.000 A 
ATOM     13  C   UNL     1      45.925   1.138   8.342  0.00  0.00    +0.000 A 
ATOM     14  C   UNL     1      46.976   0.722   7.532  0.00  0.00    +0.000 A 
ATOM     15  C   UNL     1      47.700   1.670   6.822  0.00  0.00    +0.000 A 
ATOM     16  C   UNL     1      47.336   3.000   6.948  0.00  0.00    +0.000 A 
ATOM     17  N   UNL     1      46.321   3.435   7.727  0.00  0.00    +0.000 NA
ENDBRANCH  11  12
ENDBRANCH   8  11
ENDBRANCH   7   8
ENDBRANCH   1   7
BRANCH   4  18
ATOM     18  C   UNL     1      45.926   7.252  13.189  0.00  0.00    +0.000 C 
BRANCH  18  19
ATOM     19  N   UNL     1      47.186   6.875  13.791  0.00  0.00    +0.000 N 
ATOM     20  C   UNL     1      47.947   7.719  14.555  0.00  0.00    +0.000 C 
ATOM     21  O   UNL     1      47.658   8.903  14.695  0.00  0.00    +0.000 OA
ATOM     22  H   UNL     1      47.513   5.932  13.597  0.00  0.00    +0.000 HD
BRANCH  20  23
ATOM     23  C   UNL     1      49.106   7.124  15.245  0.00  0.00    +0.000 A 
ATOM     24  C   UNL     1      50.346   7.742  15.144  0.00  0.00    +0.000 A 
ATOM     25  S   UNL     1      51.559   7.012  16.095  0.00  0.00    +0.000 S 
ATOM     26  C   UNL     1      50.471   5.842  16.678  0.00  0.00    +0.000 A 
ATOM     27  N   UNL     1      50.865   4.925  17.604  0.00  0.00    +0.000 NA
ATOM     28  C   UNL     1      49.934   4.115  17.984  0.00  0.00    +0.000 A 
ATOM     29  N   UNL     1      48.653   4.119  17.501  0.00  0.00    +0.000 N 
ATOM     30  C   UNL     1      48.234   4.976  16.512  0.00  0.00    +0.000 A 
ATOM     31  O   UNL     1      47.117   4.863  16.013  0.00  0.00    +0.000 OA
ATOM     32  C   UNL     1      49.214   5.970  16.114  0.00  0.00    +0.000 A 
ATOM     33  H   UNL     1      47.985   3.425  17.801  0.00  0.00    +0.000 HD
ENDBRANCH  20  23
ENDBRANCH  18  19
ENDBRANCH   4  18
TORSDOF 7
ENDMDL
MODEL 9
REMARK VINA RESULT:    -7.339      1.910      2.781
REMARK INTER + INTRA:         -11.273
REMARK INTER:                 -10.611
REMARK INTRA:                  -0.662
REMARK UNBOUND:                -0.931
REMARK  Name = 
REMARK  8 active torsions:
REMARK  status: ('A' for Active; 'I' for Inactive)
REMARK    1  A    between atoms: C_1  and  C_2
REMARK    2  A    between atoms: C_2  and  N_3
REMARK    3  A    between atoms: C_2  and  C_25
REMARK    4  A    between atoms: N_3  and  C_4
REMARK    5  A    between atoms: C_4  and  C_5
REMARK    6  A    between atoms: C_8  and  C_9
REMARK    7  A    between atoms: C_9  and  N_10
REMARK    8  A    between atoms: C_11  and  C_13
REMARK                            x       y       z     vdW  Elec       q    Type
REMARK                         _______ _______ _______ _____ _____    ______ ____
ROOT
ATOM      1  C   UNL     1      45.975   6.899  12.855  0.00  0.00    +0.000 C 
ATOM      2  C   UNL     1      46.797   5.672  13.303  0.00  0.00    +0.000 C 
ATOM      3  C   UNL     1      48.307   5.879  13.196  0.00  0.00    +0.000 C 
ATOM      4  C   UNL     1      48.778   7.132  13.949  0.00  0.00    +0.000 C 
ATOM      5  C   UNL     1      48.036   8.354  13.389  0.00  0.00    +0.000 C 
ATOM      6  C   UNL     1      46.512   8.210  13.462  0.00  0.00    +0.000 C 
ENDROOT
BRANCH   1   7
ATOM      7  C   UNL     1      45.874   7.021  11.319  0.00  0.00    +0.000 C 
BRANCH   7   8
ATOM      8  N   UNL     1      44.563   6.568  10.862  0.00  0.00    +0.000 NA
ATOM      9  H   UNL     1      44.500   6.683   9.848  0.00  0.00    +0.000 HD
BRANCH   8  11
ATOM     10  C   UNL     1      42.779   4.880  11.383  0.00  0.00    +0.000 C 
ATOM     11  C   UNL     1      44.271   5.154  11.164  0.00  0.00    +0.000 C 
BRANCH  11  12
ATOM     12  C   UNL     1      44.786   4.260  10.035  0.00  0.00    +0.000 A 
ATOM     13  C   UNL     1      44.635   2.874  10.103  0.00  0.00    +0.000 A 
ATOM     14  C   UNL     1      45.126   2.087   9.067  0.00  0.00    +0.000 A 
ATOM     15  C   UNL     1      45.751   2.698   7.989  0.00  0.00    +0.000 A 
ATOM     16  C   UNL     1      45.853   4.080   7.991  0.00  0.00    +0.000 A 
ATOM     17  N   UNL     1      45.388   4.871   8.981  0.00  0.00    +0.000 NA
ENDBRANCH  11  12
ENDBRANCH   8  11
ENDBRANCH   7   8
ENDBRANCH   1   7
BRANCH   4  18
ATOM     18  C   UNL     1      48.592   7.027  15.474  0.00  0.00    +0.000 C 
BRANCH  18  19
ATOM     19  N   UNL     1      49.695   6.366  16.135  0.00  0.00    +0.000 N 
ATOM     20  C   UNL     1      49.539   5.419  17.111  0.00  0.00    +0.000 C 
ATOM     21  O   UNL     1      48.437   5.139  17.572  0.00  0.00    +0.000 OA
ATOM     22  H   UNL     1      50.628   6.660  15.857  0.00  0.00    +0.000 HD
BRANCH  20  23
ATOM     23  C   UNL     1      50.756   4.711  17.548  0.00  0.00    +0.000 A 
ATOM     24  C   UNL     1      51.756   5.420  18.201  0.00  0.00    +0.000 A 
ATOM     25  S   UNL     1      53.041   4.446  18.756  0.00  0.00    +0.000 S 
ATOM     26  C   UNL     1      52.309   3.039  18.144  0.00  0.00    +0.000 A 
ATOM     27  N   UNL     1      52.876   1.817  18.341  0.00  0.00    +0.000 NA
ATOM     28  C   UNL     1      52.203   0.831  17.850  0.00  0.00    +0.000 A 
ATOM     29  N   UNL     1      51.029   0.957  17.156  0.00  0.00    +0.000 N 
ATOM     30  C   UNL     1      50.462   2.175  16.869  0.00  0.00    +0.000 A 
ATOM     31  O   UNL     1      49.481   2.255  16.134  0.00  0.00    +0.000 OA
ATOM     32  C   UNL     1      51.128   3.313  17.476  0.00  0.00    +0.000 A 
ATOM     33  H   UNL     1      50.577   0.149  16.754  0.00  0.00    +0.000 HD
ENDBRANCH  20  23
ENDBRANCH  18  19
ENDBRANCH   4  18
TORSDOF 7
ENDMDL
