REMARK  Name = 
REMARK  6 active torsions:
REMARK  status: ('A' for Active; 'I' for Inactive)
REMARK    1  A    between atoms: N_1  and  C_2
REMARK    2  A    between atoms: C_2  and  C_3
REMARK    3  A    between atoms: C_3  and  C_4
REMARK    4  A    between atoms: C_8  and  C_9
REMARK    5  A    between atoms: C_9  and  S_10
REMARK    6  A    between atoms: S_10  and  C_11
REMARK                            x       y       z     vdW  Elec       q    Type
REMARK                         _______ _______ _______ _____ _____    ______ ____
ROOT
ATOM      1  C   UNL     1       4.742  -2.277   0.262  0.00  0.00    +0.000 A 
ATOM      2  C   UNL     1       5.149  -1.596   1.409  0.00  0.00    +0.000 A 
ATOM      3  C   UNL     1       6.204  -0.704   1.308  0.00  0.00    +0.000 A 
ATOM      4  N   UNL     1       6.856  -0.436   0.156  0.00  0.00    +0.000 NA
ATOM      5  C   UNL     1       6.465  -1.106  -0.957  0.00  0.00    +0.000 A 
ATOM      6  C   UNL     1       5.434  -2.045  -0.932  0.00  0.00    +0.000 A 
ENDROOT
BRANCH   1   7
ATOM      7  C   UNL     1       3.576  -3.234   0.300  0.00  0.00    +0.000 C 
BRANCH   7   8
ATOM      8  C   UNL     1       4.001  -4.664   0.643  0.00  0.00    +0.000 C 
BRANCH   8   9
ATOM      9  N   UNL     1       2.851  -5.567   0.627  0.00  0.00    +0.000 NA
ATOM     10  H   UNL     1       3.167  -6.515   0.837  0.00  0.00    +0.000 HD
ATOM     11  H   UNL     1       2.456  -5.605  -0.312  0.00  0.00    +0.000 HD
ENDBRANCH   8   9
ENDBRANCH   7   8
ENDBRANCH   1   7
BRANCH   5  12
ATOM     12  C   UNL     1       7.222  -0.810  -2.227  0.00  0.00    +0.000 C 
BRANCH  12  13
ATOM     13  S   UNL     1       6.215  -0.214  -3.624  0.00  0.00    +0.000 S 
BRANCH  13  14
ATOM     14  C   UNL     1       5.435   1.318  -2.931  0.00  0.00    +0.000 C 
ATOM     15  C   UNL     1       6.421   2.429  -2.516  0.00  0.00    +0.000 C 
ATOM     16  C   UNL     1       6.959   3.243  -3.664  0.00  0.00    +0.000 C 
ATOM     17  C   UNL     1       6.406   3.236  -4.882  0.00  0.00    +0.000 C 
ATOM     18  C   UNL     1       5.181   2.441  -5.228  0.00  0.00    +0.000 C 
ATOM     19  C   UNL     1       4.465   1.872  -3.993  0.00  0.00    +0.000 C 
ENDBRANCH  13  14
ENDBRANCH  12  13
ENDBRANCH   5  12
TORSDOF 6
