REMARK  Name = 
REMARK  7 active torsions:
REMARK  status: ('A' for Active; 'I' for Inactive)
REMARK    1  A    between atoms: N_1  and  C_2
REMARK    2  A    between atoms: C_2  and  C_3
REMARK    3  A    between atoms: C_2  and  C_24
REMARK    4  A    between atoms: C_3  and  C_4
REMARK    5  A    between atoms: C_7  and  C_8
REMARK    6  A    between atoms: C_8  and  N_9
REMARK    7  A    between atoms: C_10  and  C_12
REMARK                            x       y       z     vdW  Elec       q    Type
REMARK                         _______ _______ _______ _____ _____    ______ ____
ROOT
ATOM      1  C   UNL     1       0.552  -1.539   0.377  0.00  0.00    +0.000 A 
ATOM      2  C   UNL     1       1.516  -2.480   0.729  0.00  0.00    +0.000 A 
ATOM      3  C   UNL     1       1.110  -3.758   1.103  0.00  0.00    +0.000 A 
ATOM      4  C   UNL     1      -0.248  -4.080   1.117  0.00  0.00    +0.000 A 
ATOM      5  C   UNL     1      -1.140  -3.085   0.741  0.00  0.00    +0.000 A 
ATOM      6  N   UNL     1      -0.777  -1.826   0.387  0.00  0.00    +0.000 NA
ENDROOT
BRANCH   1   7
ATOM      7  C   UNL     1       0.993  -0.168  -0.095  0.00  0.00    +0.000 C 
BRANCH   7   8
ATOM      8  C   UNL     1       0.011   0.995   0.132  0.00  0.00    +0.000 C 
BRANCH   8   9
ATOM      9  C   UNL     1      -0.252   1.201   1.636  0.00  0.00    +0.000 C 
ATOM     10  O   UNL     1       0.414   2.028   2.257  0.00  0.00    +0.000 OA
ATOM     11  N   UNL     1      -1.193   0.355   2.168  0.00  0.00    +0.000 N 
ATOM     12  C   UNL     1      -1.565   0.320   3.500  0.00  0.00    +0.000 A 
ATOM     13  N   UNL     1      -1.240   1.320   4.329  0.00  0.00    +0.000 NA
ATOM     14  C   UNL     1      -1.556   1.175   5.632  0.00  0.00    +0.000 A 
ATOM     15  C   UNL     1      -2.195   0.069   6.132  0.00  0.00    +0.000 A 
ATOM     16 CL   UNL     1      -2.535  -0.116   7.795  0.00  0.00    +0.000 Cl
ATOM     17  C   UNL     1      -2.530  -0.883   5.198  0.00  0.00    +0.000 A 
ATOM     18  N   UNL     1      -2.239  -0.780   3.879  0.00  0.00    +0.000 NA
ATOM     19  H   UNL     1      -1.472  -0.461   1.633  0.00  0.00    +0.000 HD
ENDBRANCH   8   9
BRANCH   8  20
ATOM     20  N   UNL     1      -1.244   0.878  -0.645  0.00  0.00    +0.000 NA
ATOM     21  H   UNL     1      -1.913   1.570  -0.309  0.00  0.00    +0.000 HD
ATOM     22  H   UNL     1      -1.646  -0.048  -0.472  0.00  0.00    +0.000 HD
ENDBRANCH   8  20
ENDBRANCH   7   8
ENDBRANCH   1   7
BRANCH   4  23
ATOM     23  C   UNL     1      -0.719  -5.459   1.467  0.00  0.00    +0.000 C 
BRANCH  23  24
ATOM     24  N   UNL     1      -0.777  -6.302   0.300  0.00  0.00    +0.000 N 
ATOM     25  C   UNL     1      -1.290  -7.573   0.373  0.00  0.00    +0.000 C 
ATOM     26  O   UNL     1      -1.748  -8.023   1.421  0.00  0.00    +0.000 OA
ATOM     27  H   UNL     1      -0.207  -6.042  -0.500  0.00  0.00    +0.000 HD
BRANCH  25  28
ATOM     28  C   UNL     1      -1.326  -8.346  -0.874  0.00  0.00    +0.000 A 
ATOM     29  C   UNL     1      -2.216  -9.404  -0.995  0.00  0.00    +0.000 A 
ATOM     30  S   UNL     1      -2.175 -10.165  -2.519  0.00  0.00    +0.000 S 
ATOM     31  C   UNL     1      -0.926  -9.141  -3.056  0.00  0.00    +0.000 A 
ATOM     32  N   UNL     1      -0.399  -9.279  -4.302  0.00  0.00    +0.000 NA
ATOM     33  C   UNL     1       0.566  -8.463  -4.566  0.00  0.00    +0.000 A 
ATOM     34  N   UNL     1       1.047  -7.516  -3.698  0.00  0.00    +0.000 N 
ATOM     35  C   UNL     1       0.519  -7.315  -2.445  0.00  0.00    +0.000 A 
ATOM     36  O   UNL     1       0.937  -6.424  -1.710  0.00  0.00    +0.000 OA
ATOM     37  C   UNL     1      -0.558  -8.219  -2.092  0.00  0.00    +0.000 A 
ATOM     38  H   UNL     1       1.799  -6.902  -3.973  0.00  0.00    +0.000 HD
ENDBRANCH  25  28
ENDBRANCH  23  24
ENDBRANCH   4  23
TORSDOF 7
