REMARK  Name = 
REMARK  7 active torsions:
REMARK  status: ('A' for Active; 'I' for Inactive)
REMARK    1  A    between atoms: C_2  and  C_4
REMARK    2  A    between atoms: C_7  and  C_8
REMARK    3  A    between atoms: N_10  and  C_11
REMARK    4  A    between atoms: C_11  and  C_12
REMARK    5  A    between atoms: C_15  and  C_16
REMARK    6  A    between atoms: C_16  and  N_17
REMARK    7  A    between atoms: C_18  and  C_20
REMARK                            x       y       z     vdW  Elec       q    Type
REMARK                         _______ _______ _______ _____ _____    ______ ____
ROOT
ATOM      1  C   UNL     1       5.861   5.873   4.541  0.00  0.00    +0.000 C 
ATOM      2  C   UNL     1       6.436   6.654   3.358  0.00  0.00    +0.000 C 
ATOM      3  C   UNL     1       7.337   7.793   3.807  0.00  0.00    +0.000 C 
ATOM      4  C   UNL     1       8.439   7.334   4.777  0.00  0.00    +0.000 C 
ATOM      5  C   UNL     1       7.870   6.508   5.942  0.00  0.00    +0.000 C 
ATOM      6  C   UNL     1       6.986   5.371   5.448  0.00  0.00    +0.000 C 
ENDROOT
BRANCH   1   7
ATOM      7  C   UNL     1       4.831   6.697   5.341  0.00  0.00    +0.000 C 
BRANCH   7  10
ATOM      8  C   UNL     1       2.866   6.181   3.992  0.00  0.00    +0.000 C 
ATOM      9  O   UNL     1       3.057   4.974   4.134  0.00  0.00    +0.000 OA
ATOM     10  N   UNL     1       3.707   7.121   4.536  0.00  0.00    +0.000 N 
ATOM     11  H   UNL     1       3.603   8.100   4.310  0.00  0.00    +0.000 HD
BRANCH   8  15
ATOM     12  C   UNL     1      -0.758   5.651   4.552  0.00  0.00    +0.000 C 
ATOM     13  C   UNL     1       0.117   4.766   3.655  0.00  0.00    +0.000 C 
ATOM     14  C   UNL     1       0.881   5.574   2.601  0.00  0.00    +0.000 C 
ATOM     15  C   UNL     1       1.689   6.731   3.206  0.00  0.00    +0.000 C 
ATOM     16  C   UNL     1       0.813   7.628   4.087  0.00  0.00    +0.000 C 
ATOM     17  C   UNL     1       0.029   6.835   5.136  0.00  0.00    +0.000 C 
BRANCH  12  19
ATOM     18  N   UNL     1      -2.834   5.113   3.391  0.00  0.00    +0.000 N 
ATOM     19  C   UNL     1      -2.002   6.108   3.811  0.00  0.00    +0.000 C 
ATOM     20  O   UNL     1      -2.284   7.283   3.584  0.00  0.00    +0.000 OA
ATOM     21  H   UNL     1      -3.690   5.396   2.934  0.00  0.00    +0.000 HD
ATOM     22  H   UNL     1      -2.744   4.158   3.711  0.00  0.00    +0.000 HD
ENDBRANCH  12  19
ENDBRANCH   8  15
ENDBRANCH   7  10
ENDBRANCH   1   7
BRANCH   4  23
ATOM     23  C   UNL     1       9.229   8.526   5.335  0.00  0.00    +0.000 C 
BRANCH  23  24
ATOM     24  N   UNL     1       9.869   9.297   4.292  0.00  0.00    +0.000 N 
ATOM     25  C   UNL     1       9.267  10.393   3.726  0.00  0.00    +0.000 C 
ATOM     26  O   UNL     1       8.160  10.796   4.081  0.00  0.00    +0.000 OA
ATOM     27  H   UNL     1      10.649   8.858   3.809  0.00  0.00    +0.000 HD
BRANCH  25  28
ATOM     28  C   UNL     1      10.031  11.102   2.702  0.00  0.00    +0.000 A 
ATOM     29  C   UNL     1       9.799  12.454   2.493  0.00  0.00    +0.000 A 
ATOM     30  S   UNL     1      10.790  13.136   1.287  0.00  0.00    +0.000 S 
ATOM     31  C   UNL     1      11.530  11.636   0.972  0.00  0.00    +0.000 A 
ATOM     32  N   UNL     1      12.476  11.512   0.003  0.00  0.00    +0.000 NA
ATOM     33  C   UNL     1      12.932  10.313  -0.145  0.00  0.00    +0.000 A 
ATOM     34  N   UNL     1      12.535   9.228   0.593  0.00  0.00    +0.000 N 
ATOM     35  C   UNL     1      11.603   9.309   1.598  0.00  0.00    +0.000 A 
ATOM     36  O   UNL     1      11.305   8.331   2.278  0.00  0.00    +0.000 OA
ATOM     37  C   UNL     1      11.046  10.634   1.793  0.00  0.00    +0.000 A 
ATOM     38  H   UNL     1      12.944   8.319   0.436  0.00  0.00    +0.000 HD
ENDBRANCH  25  28
ENDBRANCH  23  24
ENDBRANCH   4  23
TORSDOF 7
