REMARK  Name = 
REMARK  6 active torsions:
REMARK  status: ('A' for Active; 'I' for Inactive)
REMARK    1  A    between atoms: C_2  and  C_25
REMARK    2  A    between atoms: N_3  and  C_4
REMARK    3  A    between atoms: C_4  and  C_5
REMARK    4  A    between atoms: C_8  and  C_9
REMARK    5  A    between atoms: C_9  and  N_10
REMARK    6  A    between atoms: C_11  and  C_13
REMARK                            x       y       z     vdW  Elec       q    Type
REMARK                         _______ _______ _______ _____ _____    ______ ____
ROOT
ATOM      1  C   UNL     1       3.115   2.691   2.484  0.00  0.00    +0.000 A 
ATOM      2  C   UNL     1       2.943   4.077   2.366  0.00  0.00    +0.000 A 
ATOM      3  C   UNL     1       3.705   4.963   3.140  0.00  0.00    +0.000 A 
ATOM      4  C   UNL     1       4.671   4.484   4.036  0.00  0.00    +0.000 A 
ATOM      5  C   UNL     1       4.852   3.099   4.142  0.00  0.00    +0.000 A 
ATOM      6  C   UNL     1       4.091   2.213   3.369  0.00  0.00    +0.000 A 
ENDROOT
BRANCH   1   7
ATOM      7  C   UNL     1       2.221   1.742   1.734  0.00  0.00    +0.000 C 
BRANCH   7  10
ATOM      8  O   UNL     1       0.869   0.039   0.020  0.00  0.00    +0.000 OA
ATOM      9  C   UNL     1       1.914   0.552  -0.373  0.00  0.00    +0.000 C 
ATOM     10  N   UNL     1       2.676   1.402   0.408  0.00  0.00    +0.000 N 
ATOM     11  H   UNL     1       3.512   1.818   0.008  0.00  0.00    +0.000 HD
BRANCH   9  12
ATOM     12  C   UNL     1       2.408   0.279  -1.750  0.00  0.00    +0.000 A 
ATOM     13  C   UNL     1       1.651  -0.526  -2.594  0.00  0.00    +0.000 A 
ATOM     14  N   UNL     1       2.036  -0.815  -3.864  0.00  0.00    +0.000 NA
ATOM     15  C   UNL     1       3.211  -0.267  -4.246  0.00  0.00    +0.000 A 
ATOM     16  C   UNL     1       3.968   0.535  -3.403  0.00  0.00    +0.000 A 
ATOM     17  N   UNL     1       3.591   0.836  -2.134  0.00  0.00    +0.000 NA
ENDBRANCH   9  12
ENDBRANCH   7  10
ENDBRANCH   1   7
BRANCH   4  18
ATOM     18  C   UNL     1       5.512   5.433   4.853  0.00  0.00    +0.000 C 
BRANCH  18  19
ATOM     19  N   UNL     1       4.951   5.728   6.148  0.00  0.00    +0.000 N 
ATOM     20  C   UNL     1       5.582   6.598   7.018  0.00  0.00    +0.000 C 
ATOM     21  O   UNL     1       6.648   7.140   6.745  0.00  0.00    +0.000 OA
ATOM     22  H   UNL     1       4.078   5.316   6.461  0.00  0.00    +0.000 HD
BRANCH  20  23
ATOM     23  C   UNL     1       4.853   6.820   8.281  0.00  0.00    +0.000 A 
ATOM     24  N   UNL     1       3.649   6.231   8.500  0.00  0.00    +0.000 NA
ATOM     25  N   UNL     1       3.275   6.680   9.718  0.00  0.00    +0.000 N 
ATOM     26  C   UNL     1       4.183   7.515  10.289  0.00  0.00    +0.000 A 
ATOM     27  N   UNL     1       4.047   8.105  11.501  0.00  0.00    +0.000 NA
ATOM     28  C   UNL     1       5.058   8.862  11.800  0.00  0.00    +0.000 A 
ATOM     29  N   UNL     1       6.162   9.060  10.996  0.00  0.00    +0.000 N 
ATOM     30  C   UNL     1       6.336   8.456   9.760  0.00  0.00    +0.000 A 
ATOM     31  O   UNL     1       7.349   8.636   9.103  0.00  0.00    +0.000 OA
ATOM     32  C   UNL     1       5.220   7.621   9.392  0.00  0.00    +0.000 A 
ATOM     33  H   UNL     1       2.388   6.385  10.107  0.00  0.00    +0.000 HD
ATOM     34  H   UNL     1       6.918   9.657  11.296  0.00  0.00    +0.000 HD
ENDBRANCH  20  23
ENDBRANCH  18  19
ENDBRANCH   4  18
TORSDOF 6
