REMARK  Name = 
REMARK  6 active torsions:
REMARK  status: ('A' for Active; 'I' for Inactive)
REMARK    1  A    between atoms: N_1  and  C_2
REMARK    2  A    between atoms: C_6  and  C_7
REMARK    3  A    between atoms: C_7  and  C_8
REMARK    4  A    between atoms: C_11  and  C_12
REMARK    5  A    between atoms: C_12  and  N_13
REMARK    6  A    between atoms: C_14  and  C_16
REMARK                            x       y       z     vdW  Elec       q    Type
REMARK                         _______ _______ _______ _____ _____    ______ ____
ROOT
ATOM      1  C   UNL     1       2.881  -1.350  -2.129  0.00  0.00    +0.000 A 
ATOM      2  C   UNL     1       3.877  -1.478  -1.167  0.00  0.00    +0.000 A 
ATOM      3  C   UNL     1       5.211  -1.348  -1.551  0.00  0.00    +0.000 A 
ATOM      4  C   UNL     1       5.540  -1.181  -2.898  0.00  0.00    +0.000 A 
ATOM      5  C   UNL     1       4.480  -1.120  -3.796  0.00  0.00    +0.000 A 
ATOM      6  N   UNL     1       3.171  -1.185  -3.443  0.00  0.00    +0.000 NA
ENDROOT
BRANCH   1   7
ATOM      7  C   UNL     1       1.421  -1.334  -1.732  0.00  0.00    +0.000 C 
BRANCH   7  12
ATOM      8  C   UNL     1      -1.414   0.098  -1.457  0.00  0.00    +0.000 C 
ATOM      9  C   UNL     1      -1.087   1.469  -2.064  0.00  0.00    +0.000 C 
ATOM     10  C   UNL     1       0.375   1.570  -2.490  0.00  0.00    +0.000 C 
ATOM     11  C   UNL     1       1.306   1.224  -1.333  0.00  0.00    +0.000 C 
ATOM     12  C   UNL     1       1.039  -0.182  -0.764  0.00  0.00    +0.000 C 
ATOM     13  C   UNL     1      -0.438  -0.275  -0.332  0.00  0.00    +0.000 C 
BRANCH   8  14
ATOM     14  N   UNL     1      -2.783   0.094  -0.937  0.00  0.00    +0.000 NA
ATOM     15  H   UNL     1      -3.428   0.358  -1.682  0.00  0.00    +0.000 HD
ATOM     16  H   UNL     1      -2.880   0.812  -0.220  0.00  0.00    +0.000 HD
ENDBRANCH   8  14
ENDBRANCH   7  12
ENDBRANCH   1   7
BRANCH   4  17
ATOM     17  C   UNL     1       6.969  -1.057  -3.347  0.00  0.00    +0.000 C 
BRANCH  17  18
ATOM     18  N   UNL     1       7.422   0.312  -3.329  0.00  0.00    +0.000 N 
ATOM     19  C   UNL     1       8.682   0.664  -3.748  0.00  0.00    +0.000 C 
ATOM     20  O   UNL     1       9.486  -0.157  -4.182  0.00  0.00    +0.000 OA
ATOM     21  H   UNL     1       6.946   0.939  -2.689  0.00  0.00    +0.000 HD
BRANCH  19  22
ATOM     22  C   UNL     1       8.999   2.103  -3.703  0.00  0.00    +0.000 A 
ATOM     23  C   UNL     1       9.929   2.638  -4.582  0.00  0.00    +0.000 A 
ATOM     24  S   UNL     1      10.135   4.325  -4.411  0.00  0.00    +0.000 S 
ATOM     25  C   UNL     1       9.016   4.386  -3.124  0.00  0.00    +0.000 A 
ATOM     26  N   UNL     1       8.746   5.554  -2.488  0.00  0.00    +0.000 NA
ATOM     27  C   UNL     1       7.903   5.447  -1.513  0.00  0.00    +0.000 A 
ATOM     28  N   UNL     1       7.299   4.280  -1.128  0.00  0.00    +0.000 N 
ATOM     29  C   UNL     1       7.519   3.085  -1.764  0.00  0.00    +0.000 A 
ATOM     30  O   UNL     1       6.919   2.064  -1.431  0.00  0.00    +0.000 OA
ATOM     31  C   UNL     1       8.478   3.140  -2.850  0.00  0.00    +0.000 A 
ATOM     32  H   UNL     1       6.634   4.268  -0.369  0.00  0.00    +0.000 HD
ENDBRANCH  19  22
ENDBRANCH  17  18
ENDBRANCH   4  17
TORSDOF 6
