REMARK  Name = 
REMARK  7 active torsions:
REMARK  status: ('A' for Active; 'I' for Inactive)
REMARK    1  A    between atoms: C_1  and  C_2
REMARK    2  A    between atoms: C_2  and  N_3
REMARK    3  A    between atoms: C_2  and  C_17
REMARK    4  A    between atoms: C_4  and  C_6
REMARK    5  A    between atoms: N_12  and  C_13
REMARK    6  A    between atoms: C_20  and  C_21
REMARK    7  A    between atoms: C_21  and  C_22
REMARK                            x       y       z     vdW  Elec       q    Type
REMARK                         _______ _______ _______ _____ _____    ______ ____
ROOT
ATOM      1  C   UNL     1       2.986   1.430   0.300  0.00  0.00    +0.000 C 
ATOM      2  C   UNL     1       2.515  -0.009   0.067  0.00  0.00    +0.000 C 
ENDROOT
BRANCH   2   3
ATOM      3  C   UNL     1       2.924  -0.971   1.152  0.00  0.00    +0.000 A 
ATOM      4  C   UNL     1       3.167  -2.302   0.870  0.00  0.00    +0.000 A 
ATOM      5  N   UNL     1       3.511  -3.225   1.794  0.00  0.00    +0.000 NA
ATOM      6  C   UNL     1       3.601  -2.800   3.071  0.00  0.00    +0.000 A 
ATOM      7  N   UNL     1       3.375  -1.529   3.457  0.00  0.00    +0.000 NA
ATOM      8  C   UNL     1       3.040  -0.650   2.490  0.00  0.00    +0.000 A 
BRANCH   6   9
ATOM      9  C   UNL     1       3.925  -3.821   4.132  0.00  0.00    +0.000 C 
BRANCH   9  10
ATOM     10  C   UNL     1       5.399  -3.983   4.416  0.00  0.00    +0.000 A 
ATOM     11  C   UNL     1       6.274  -4.423   3.423  0.00  0.00    +0.000 A 
ATOM     12  C   UNL     1       7.615  -4.622   3.742  0.00  0.00    +0.000 A 
ATOM     13  C   UNL     1       8.050  -4.382   5.039  0.00  0.00    +0.000 A 
ATOM     14  C   UNL     1       7.121  -3.949   5.968  0.00  0.00    +0.000 A 
ATOM     15  N   UNL     1       5.813  -3.754   5.690  0.00  0.00    +0.000 NA
ENDBRANCH   9  10
ENDBRANCH   6   9
ENDBRANCH   2   3
BRANCH   2  16
ATOM     16  N   UNL     1       1.073   0.000  -0.082  0.00  0.00    +0.000 N 
ATOM     17  C   UNL     1       0.385  -0.827  -0.930  0.00  0.00    +0.000 C 
ATOM     18  O   UNL     1       0.950  -1.577  -1.721  0.00  0.00    +0.000 OA
ATOM     19  H   UNL     1       0.561   0.429   0.681  0.00  0.00    +0.000 HD
BRANCH  17  20
ATOM     20  C   UNL     1      -1.078  -0.725  -0.869  0.00  0.00    +0.000 A 
ATOM     21  C   UNL     1      -1.853  -1.027  -1.981  0.00  0.00    +0.000 A 
ATOM     22  S   UNL     1      -3.530  -0.854  -1.707  0.00  0.00    +0.000 S 
ATOM     23  C   UNL     1      -3.278  -0.401  -0.086  0.00  0.00    +0.000 A 
ATOM     24  N   UNL     1      -4.320  -0.138   0.744  0.00  0.00    +0.000 NA
ATOM     25  C   UNL     1      -3.981   0.170   1.953  0.00  0.00    +0.000 A 
ATOM     26  N   UNL     1      -2.687   0.258   2.422  0.00  0.00    +0.000 N 
ATOM     27  C   UNL     1      -2.408   0.645   3.792  0.00  0.00    +0.000 C 
ATOM     28  C   UNL     1      -1.598   0.050   1.589  0.00  0.00    +0.000 A 
ATOM     29  O   UNL     1      -0.443   0.233   1.956  0.00  0.00    +0.000 OA
ATOM     30  C   UNL     1      -1.935  -0.347   0.232  0.00  0.00    +0.000 A 
ENDBRANCH  17  20
ENDBRANCH   2  16
TORSDOF 5
