REMARK  Name = 
REMARK  8 active torsions:
REMARK  status: ('A' for Active; 'I' for Inactive)
REMARK    1  A    between atoms: C_1  and  C_2
REMARK    2  A    between atoms: C_2  and  O_3
REMARK    3  A    between atoms: O_3  and  C_4
REMARK    4  A    between atoms: C_4  and  C_5
REMARK    5  A    between atoms: C_4  and  C_19
REMARK    6  A    between atoms: C_5  and  N_6
REMARK    7  A    between atoms: N_9  and  C_10
REMARK    8  A    between atoms: C_10  and  C_11
REMARK                            x       y       z     vdW  Elec       q    Type
REMARK                         _______ _______ _______ _____ _____    ______ ____
ROOT
ATOM      1  C   UNL     1       4.183  -1.431  -0.613  0.00  0.00    +0.000 C 
ENDROOT
BRANCH   1   2
ATOM      2  C   UNL     1       4.766  -2.849  -0.674  0.00  0.00    +0.000 A 
ATOM      3  C   UNL     1       4.074  -3.992  -0.309  0.00  0.00    +0.000 A 
ATOM      4  S   UNL     1       5.118  -5.172   0.374  0.00  0.00    +0.000 S 
ATOM      5  C   UNL     1       6.505  -4.241   0.031  0.00  0.00    +0.000 A 
ATOM      6  N   UNL     1       7.737  -4.583   0.497  0.00  0.00    +0.000 NA
ATOM      7  C   UNL     1       8.692  -3.805   0.107  0.00  0.00    +0.000 A 
ATOM      8  N   UNL     1       8.535  -2.734  -0.728  0.00  0.00    +0.000 N 
ATOM      9  C   UNL     1       7.293  -2.296  -1.157  0.00  0.00    +0.000 A 
ATOM     10  O   UNL     1       7.163  -1.270  -1.822  0.00  0.00    +0.000 OA
ATOM     11  C   UNL     1       6.190  -3.122  -0.716  0.00  0.00    +0.000 A 
ATOM     12  H   UNL     1       9.329  -2.190  -1.039  0.00  0.00    +0.000 HD
ENDBRANCH   1   2
BRANCH   1  13
ATOM     13  O   UNL     1       2.738  -1.408  -0.790  0.00  0.00    +0.000 OA
BRANCH  13  15
ATOM     14  C   UNL     1       0.685  -0.013  -0.863  0.00  0.00    +0.000 C 
ATOM     15  C   UNL     1       2.181  -0.098  -0.620  0.00  0.00    +0.000 C 
ENDBRANCH  13  15
ENDBRANCH   1  13
BRANCH   1  16
ATOM     16  C   UNL     1       4.640  -0.982   0.838  0.00  0.00    +0.000 C 
BRANCH  16  17
ATOM     17  N   UNL     1       4.343   0.349   1.365  0.00  0.00    +0.000 NA
ATOM     18  C   UNL     1       4.896   1.424   0.531  0.00  0.00    +0.000 C 
ATOM     19  C   UNL     1       6.332   1.863   0.884  0.00  0.00    +0.000 C 
ATOM     20  N   UNL     1       6.512   2.174   2.323  0.00  0.00    +0.000 NA
ATOM     21  C   UNL     1       6.169   0.937   3.060  0.00  0.00    +0.000 C 
ATOM     22  C   UNL     1       4.743   0.415   2.789  0.00  0.00    +0.000 C 
BRANCH  20  23
ATOM     23  C   UNL     1       5.632   3.309   2.682  0.00  0.00    +0.000 C 
BRANCH  23  24
ATOM     24  C   UNL     1       5.700   3.792   4.094  0.00  0.00    +0.000 A 
ATOM     25  C   UNL     1       6.847   3.846   4.853  0.00  0.00    +0.000 A 
ATOM     26  N   UNL     1       6.889   4.322   6.112  0.00  0.00    +0.000 NA
ATOM     27  C   UNL     1       5.728   4.789   6.601  0.00  0.00    +0.000 A 
ATOM     28  N   UNL     1       4.550   4.811   5.956  0.00  0.00    +0.000 NA
ATOM     29  C   UNL     1       4.568   4.319   4.703  0.00  0.00    +0.000 A 
ENDBRANCH  23  24
ENDBRANCH  20  23
ENDBRANCH  16  17
ENDBRANCH   1  16
TORSDOF 7
