REMARK  Name = 
REMARK  9 active torsions:
REMARK  status: ('A' for Active; 'I' for Inactive)
REMARK    1  A    between atoms: C_1  and  O_2
REMARK    2  A    between atoms: O_2  and  C_3
REMARK    3  A    between atoms: C_10  and  C_11
REMARK    4  A    between atoms: N_13  and  C_14
REMARK    5  A    between atoms: C_14  and  C_15
REMARK    6  A    between atoms: C_18  and  N_19
REMARK    7  A    between atoms: N_19  and  C_20
REMARK    8  A    between atoms: C_20  and  C_21
REMARK    9  A    between atoms: C_21  and  C_22
REMARK                            x       y       z     vdW  Elec       q    Type
REMARK                         _______ _______ _______ _____ _____    ______ ____
ROOT
ATOM      1  C   UNL     1       2.957  -1.151  -3.178  0.00  0.00    +0.000 C 
ENDROOT
BRANCH   1   2
ATOM      2  C   UNL     1       1.782  -1.974  -2.722  0.00  0.00    +0.000 A 
ATOM      3  C   UNL     1       1.876  -3.367  -2.646  0.00  0.00    +0.000 A 
ATOM      4  C   UNL     1       0.826  -4.124  -2.113  0.00  0.00    +0.000 A 
ATOM      5  C   UNL     1      -0.333  -3.509  -1.629  0.00  0.00    +0.000 A 
ATOM      6  C   UNL     1      -0.473  -2.132  -1.829  0.00  0.00    +0.000 A 
ATOM      7  C   UNL     1       0.576  -1.366  -2.355  0.00  0.00    +0.000 A 
BRANCH   5   8
ATOM      8  N   UNL     1      -1.409  -4.213  -1.056  0.00  0.00    +0.000 N 
ATOM      9  H   UNL     1      -2.088  -4.437  -1.782  0.00  0.00    +0.000 HD
BRANCH   8  10
ATOM     10  C   UNL     1      -1.054  -5.398  -0.252  0.00  0.00    +0.000 C 
BRANCH  10  11
ATOM     11  C   UNL     1      -2.290  -5.992   0.416  0.00  0.00    +0.000 C 
BRANCH  11  12
ATOM     12  C   UNL     1      -1.902  -7.175   1.261  0.00  0.00    +0.000 A 
ATOM     13  N   UNL     1      -1.604  -6.951   2.556  0.00  0.00    +0.000 NA
ATOM     14  C   UNL     1      -1.254  -8.027   3.287  0.00  0.00    +0.000 A 
ATOM     15  C   UNL     1      -1.186  -9.301   2.779  0.00  0.00    +0.000 A 
ATOM     16  C   UNL     1      -1.495  -9.422   1.445  0.00  0.00    +0.000 A 
ATOM     17  N   UNL     1      -1.850  -8.382   0.665  0.00  0.00    +0.000 NA
ENDBRANCH  11  12
ENDBRANCH  10  11
ENDBRANCH   8  10
ENDBRANCH   5   8
ENDBRANCH   1   2
BRANCH   1  20
ATOM     18  C   UNL     1       4.004  -0.313  -5.224  0.00  0.00    +0.000 C 
ATOM     19  O   UNL     1       4.925   0.175  -4.574  0.00  0.00    +0.000 OA
ATOM     20  N   UNL     1       2.983  -0.985  -4.607  0.00  0.00    +0.000 N 
ATOM     21  H   UNL     1       2.201  -1.338  -5.142  0.00  0.00    +0.000 HD
BRANCH  18  29
ATOM     22  C   UNL     1       1.831  -1.469  -7.639  0.00  0.00    +0.000 A 
ATOM     23  N   UNL     1       1.210  -1.850  -8.773  0.00  0.00    +0.000 NA
ATOM     24  C   UNL     1       1.751  -1.491  -9.941  0.00  0.00    +0.000 A 
ATOM     25  N   UNL     1       2.857  -0.776 -10.125  0.00  0.00    +0.000 NA
ATOM     26  C   UNL     1       3.452  -0.426  -8.972  0.00  0.00    +0.000 A 
ATOM     27  S   UNL     1       4.874   0.501  -9.016  0.00  0.00    +0.000 S 
ATOM     28  C   UNL     1       4.990   0.492  -7.323  0.00  0.00    +0.000 A 
ATOM     29  C   UNL     1       3.967  -0.207  -6.691  0.00  0.00    +0.000 A 
ATOM     30  C   UNL     1       3.030  -0.733  -7.681  0.00  0.00    +0.000 A 
BRANCH  22  32
ATOM     31  C   UNL     1       0.016  -2.500  -6.552  0.00  0.00    +0.000 C 
ATOM     32  O   UNL     1       1.251  -1.796  -6.430  0.00  0.00    +0.000 OA
ENDBRANCH  22  32
ENDBRANCH  18  29
ENDBRANCH   1  20
TORSDOF 8
