REMARK  Name = 
REMARK  5 active torsions:
REMARK  status: ('A' for Active; 'I' for Inactive)
REMARK    1  A    between atoms: C_2  and  C_4
REMARK    2  A    between atoms: C_7  and  S_8
REMARK    3  A    between atoms: S_8  and  C_9
REMARK    4  A    between atoms: C_9  and  C_10
REMARK    5  A    between atoms: C_14  and  C_15
REMARK                            x       y       z     vdW  Elec       q    Type
REMARK                         _______ _______ _______ _____ _____    ______ ____
ROOT
ATOM      1  C   UNL     1       4.921   1.231   6.380  0.00  0.00    +0.000 C 
ENDROOT
BRANCH   1   2
ATOM      2  C   UNL     1       5.651   1.671   7.618  0.00  0.00    +0.000 A 
ATOM      3  C   UNL     1       6.327   0.760   8.420  0.00  0.00    +0.000 A 
ATOM      4  N   UNL     1       6.993   1.093   9.545  0.00  0.00    +0.000 NA
ATOM      5  C   UNL     1       7.008   2.404   9.879  0.00  0.00    +0.000 A 
ATOM      6  C   UNL     1       6.384   3.422   9.154  0.00  0.00    +0.000 A 
ATOM      7  C   UNL     1       5.692   3.017   8.002  0.00  0.00    +0.000 A 
BRANCH   6   8
ATOM      8  C   UNL     1       6.441   4.830   9.576  0.00  0.00    +0.000 A 
ATOM      9  C   UNL     1       6.390   5.886   8.655  0.00  0.00    +0.000 A 
ATOM     10  C   UNL     1       6.430   7.208   9.089  0.00  0.00    +0.000 A 
ATOM     11  C   UNL     1       6.525   7.448  10.447  0.00  0.00    +0.000 A 
ATOM     12  N   UNL     1       6.594   6.474  11.380  0.00  0.00    +0.000 NA
ATOM     13  C   UNL     1       6.548   5.200  10.920  0.00  0.00    +0.000 A 
ENDBRANCH   6   8
ENDBRANCH   1   2
BRANCH   1  14
ATOM     14  S   UNL     1       6.005   1.280   4.914  0.00  0.00    +0.000 S 
BRANCH  14  18
ATOM     15  C   UNL     1       3.581  -0.173   1.353  0.00  0.00    +0.000 A 
ATOM     16  C   UNL     1       2.918  -0.108   2.574  0.00  0.00    +0.000 A 
ATOM     17  C   UNL     1       3.619   0.340   3.699  0.00  0.00    +0.000 A 
ATOM     18  C   UNL     1       4.959   0.711   3.584  0.00  0.00    +0.000 A 
ATOM     19  C   UNL     1       5.525   0.613   2.308  0.00  0.00    +0.000 A 
ATOM     20  N   UNL     1       4.881   0.181   1.192  0.00  0.00    +0.000 NA
BRANCH  15  22
ATOM     21  N   UNL     1       3.589  -0.747  -1.023  0.00  0.00    +0.000 N 
ATOM     22  C   UNL     1       2.866  -0.674   0.137  0.00  0.00    +0.000 C 
ATOM     23  O   UNL     1       1.691  -1.032   0.173  0.00  0.00    +0.000 OA
ATOM     24  H   UNL     1       3.150  -1.171  -1.828  0.00  0.00    +0.000 HD
ATOM     25  H   UNL     1       4.597  -0.634  -1.000  0.00  0.00    +0.000 HD
ENDBRANCH  15  22
ENDBRANCH  14  18
ENDBRANCH   1  14
TORSDOF 5
