REMARK  Name = 
REMARK  11 active torsions:
REMARK  status: ('A' for Active; 'I' for Inactive)
REMARK    1  A    between atoms: C_1  and  O_2
REMARK    2  A    between atoms: O_2  and  C_3
REMARK    3  A    between atoms: C_8  and  C_9
REMARK    4  A    between atoms: C_9  and  C_10
REMARK    5  A    between atoms: C_10  and  O_11
REMARK    6  A    between atoms: O_11  and  C_12
REMARK    7  A    between atoms: C_15  and  C_16
REMARK    8  A    between atoms: C_16  and  N_17
REMARK    9  A    between atoms: C_18  and  C_20
REMARK   10  A    between atoms: C_27  and  O_28
REMARK   11  A    between atoms: O_28  and  C_29
REMARK                            x       y       z     vdW  Elec       q    Type
REMARK                         _______ _______ _______ _____ _____    ______ ____
ROOT
ATOM      1  C   UNL     1       3.459  -3.455  -2.140  0.00  0.00    +0.000 A 
ATOM      2  C   UNL     1       2.063  -3.459  -2.169  0.00  0.00    +0.000 A 
ATOM      3  C   UNL     1       1.352  -4.652  -2.035  0.00  0.00    +0.000 A 
ATOM      4  C   UNL     1       2.019  -5.867  -1.858  0.00  0.00    +0.000 A 
ATOM      5  C   UNL     1       3.420  -5.869  -1.856  0.00  0.00    +0.000 A 
ATOM      6  C   UNL     1       4.134  -4.668  -1.991  0.00  0.00    +0.000 A 
ENDROOT
BRANCH   1   7
ATOM      7  O   UNL     1       4.243  -2.330  -2.242  0.00  0.00    +0.000 OA
BRANCH   7   8
ATOM      8  C   UNL     1       3.528  -1.100  -2.424  0.00  0.00    +0.000 C 
BRANCH   8   9
ATOM      9  C   UNL     1       4.485   0.082  -2.557  0.00  0.00    +0.000 C 
BRANCH   9  15
ATOM     10  C   UNL     1       3.227   2.172  -1.841  0.00  0.00    +0.000 A 
ATOM     11  C   UNL     1       2.533   3.289  -2.277  0.00  0.00    +0.000 A 
ATOM     12  N   UNL     1       2.273   3.569  -3.571  0.00  0.00    +0.000 NA
ATOM     13  C   UNL     1       2.753   2.687  -4.456  0.00  0.00    +0.000 A 
ATOM     14  N   UNL     1       3.465   1.588  -4.164  0.00  0.00    +0.000 NA
ATOM     15  C   UNL     1       3.714   1.346  -2.851  0.00  0.00    +0.000 A 
BRANCH  10  17
ATOM     16  C   UNL     1       2.635   2.475   0.428  0.00  0.00    +0.000 C 
ATOM     17  O   UNL     1       3.465   1.837  -0.541  0.00  0.00    +0.000 OA
ENDBRANCH  10  17
ENDBRANCH   9  15
ENDBRANCH   8   9
ENDBRANCH   7   8
ENDBRANCH   1   7
BRANCH   4  18
ATOM     18  C   UNL     1       1.217  -7.126  -1.674  0.00  0.00    +0.000 C 
BRANCH  18  19
ATOM     19  N   UNL     1       0.848  -7.722  -2.931  0.00  0.00    +0.000 N 
ATOM     20  C   UNL     1       0.115  -8.880  -2.967  0.00  0.00    +0.000 C 
ATOM     21  O   UNL     1      -0.305  -9.399  -1.935  0.00  0.00    +0.000 OA
ATOM     22  H   UNL     1       1.028  -7.206  -3.782  0.00  0.00    +0.000 HD
BRANCH  20  23
ATOM     23  C   UNL     1      -0.064  -9.529  -4.272  0.00  0.00    +0.000 A 
ATOM     24  C   UNL     1      -0.718 -10.754  -4.330  0.00  0.00    +0.000 A 
ATOM     25  S   UNL     1      -0.560 -11.533  -5.834  0.00  0.00    +0.000 S 
ATOM     26  C   UNL     1       0.323 -10.228  -6.468  0.00  0.00    +0.000 A 
ATOM     27  N   UNL     1       0.835 -10.305  -7.707  0.00  0.00    +0.000 NA
ATOM     28  C   UNL     1       1.450  -9.184  -8.079  0.00  0.00    +0.000 A 
ATOM     29  N   UNL     1       1.519  -8.035  -7.397  0.00  0.00    +0.000 NA
ATOM     30  C   UNL     1       0.986  -8.003  -6.159  0.00  0.00    +0.000 A 
ATOM     31  C   UNL     1       0.412  -9.152  -5.593  0.00  0.00    +0.000 A 
BRANCH  30  32
ATOM     32  O   UNL     1       0.964  -6.806  -5.468  0.00  0.00    +0.000 OA
ATOM     33  C   UNL     1       1.754  -5.785  -6.075  0.00  0.00    +0.000 C 
ENDBRANCH  30  32
ENDBRANCH  20  23
ENDBRANCH  18  19
ENDBRANCH   4  18
TORSDOF 9
