REMARK  Name = 
REMARK  5 active torsions:
REMARK  status: ('A' for Active; 'I' for Inactive)
REMARK    1  A    between atoms: C_2  and  C_4
REMARK    2  A    between atoms: C_8  and  O_9
REMARK    3  A    between atoms: O_9  and  C_10
REMARK    4  A    between atoms: C_10  and  C_11
REMARK    5  A    between atoms: C_15  and  C_16
REMARK                            x       y       z     vdW  Elec       q    Type
REMARK                         _______ _______ _______ _____ _____    ______ ____
ROOT
ATOM      1  C   UNL     1       2.090  -3.567   3.788  0.00  0.00    +0.000 C 
ENDROOT
BRANCH   1   2
ATOM      2  C   UNL     1       2.037  -4.696   4.794  0.00  0.00    +0.000 A 
ATOM      3  C   UNL     1       2.281  -6.001   4.381  0.00  0.00    +0.000 A 
ATOM      4  C   UNL     1       2.218  -7.022   5.318  0.00  0.00    +0.000 A 
ATOM      5  C   UNL     1       1.941  -6.709   6.645  0.00  0.00    +0.000 A 
ATOM      6  C   UNL     1       1.733  -5.378   7.010  0.00  0.00    +0.000 A 
ATOM      7  N   UNL     1       1.758  -4.379   6.089  0.00  0.00    +0.000 NA
BRANCH   6   8
ATOM      8  C   UNL     1       1.469  -4.976   8.406  0.00  0.00    +0.000 A 
ATOM      9  C   UNL     1       2.023  -5.670   9.491  0.00  0.00    +0.000 A 
ATOM     10  C   UNL     1       1.717  -5.274  10.785  0.00  0.00    +0.000 A 
ATOM     11  N   UNL     1       0.907  -4.238  11.078  0.00  0.00    +0.000 NA
ATOM     12  C   UNL     1       0.398  -3.560  10.031  0.00  0.00    +0.000 A 
ATOM     13  C   UNL     1       0.648  -3.881   8.704  0.00  0.00    +0.000 A 
ENDBRANCH   6   8
ENDBRANCH   1   2
BRANCH   1  14
ATOM     14  O   UNL     1       3.434  -3.093   3.682  0.00  0.00    +0.000 OA
BRANCH  14  19
ATOM     15  C   UNL     1       3.156  -0.496   1.053  0.00  0.00    +0.000 A 
ATOM     16  C   UNL     1       4.493  -0.123   1.051  0.00  0.00    +0.000 A 
ATOM     17  N   UNL     1       5.417  -0.655   1.885  0.00  0.00    +0.000 NA
ATOM     18  C   UNL     1       4.981  -1.619   2.732  0.00  0.00    +0.000 A 
ATOM     19  C   UNL     1       3.670  -2.085   2.792  0.00  0.00    +0.000 A 
ATOM     20  C   UNL     1       2.739  -1.501   1.935  0.00  0.00    +0.000 A 
BRANCH  15  22
ATOM     21  N   UNL     1       0.922   0.254   0.463  0.00  0.00    +0.000 N 
ATOM     22  C   UNL     1       2.236   0.156   0.098  0.00  0.00    +0.000 C 
ATOM     23  O   UNL     1       2.636   0.617  -0.962  0.00  0.00    +0.000 OA
ATOM     24  H   UNL     1       0.334   0.806  -0.151  0.00  0.00    +0.000 HD
ATOM     25  H   UNL     1       0.618   0.151   1.421  0.00  0.00    +0.000 HD
ENDBRANCH  15  22
ENDBRANCH  14  19
ENDBRANCH   1  14
TORSDOF 5
