REMARK  Name = 
REMARK  7 active torsions:
REMARK  status: ('A' for Active; 'I' for Inactive)
REMARK    1  A    between atoms: C_2  and  C_3
REMARK    2  A    between atoms: C_6  and  C_7
REMARK    3  A    between atoms: N_9  and  C_10
REMARK    4  A    between atoms: C_10  and  C_11
REMARK    5  A    between atoms: C_14  and  C_15
REMARK    6  A    between atoms: C_15  and  N_16
REMARK    7  A    between atoms: C_17  and  C_19
REMARK                            x       y       z     vdW  Elec       q    Type
REMARK                         _______ _______ _______ _____ _____    ______ ____
ROOT
ATOM      1  C   UNL     1      13.854  -1.345   1.441  0.00  0.00    +0.000 C 
ATOM      2  C   UNL     1      13.361  -0.756   2.778  0.00  0.00    +0.000 C 
ATOM      3  C   UNL     1      12.671   0.602   2.628  0.00  0.00    +0.000 C 
ATOM      4  C   UNL     1      11.525   0.593   1.602  0.00  0.00    +0.000 C 
ATOM      5  C   UNL     1      12.049   0.043   0.265  0.00  0.00    +0.000 C 
ATOM      6  C   UNL     1      12.711  -1.331   0.409  0.00  0.00    +0.000 C 
ENDROOT
BRANCH   1   7
ATOM      7  C   UNL     1      15.109  -0.641   0.881  0.00  0.00    +0.000 C 
BRANCH   7  10
ATOM      8  C   UNL     1      17.112  -1.785   1.831  0.00  0.00    +0.000 C 
ATOM      9  O   UNL     1      17.049  -2.753   1.082  0.00  0.00    +0.000 OA
ATOM     10  N   UNL     1      16.248  -0.711   1.777  0.00  0.00    +0.000 N 
ATOM     11  H   UNL     1      16.424   0.085   2.375  0.00  0.00    +0.000 HD
BRANCH   8  15
ATOM     12  C   UNL     1      19.615  -2.759   4.500  0.00  0.00    +0.000 C 
ATOM     13  C   UNL     1      18.378  -2.325   5.286  0.00  0.00    +0.000 C 
ATOM     14  C   UNL     1      17.496  -1.545   4.311  0.00  0.00    +0.000 C 
ATOM     15  C   UNL     1      18.158  -1.641   2.931  0.00  0.00    +0.000 C 
ATOM     16  C   UNL     1      19.119  -2.826   3.056  0.00  0.00    +0.000 C 
BRANCH  12  18
ATOM     17  N   UNL     1      21.565  -1.012   4.792  0.00  0.00    +0.000 NA
ATOM     18  C   UNL     1      20.712  -1.787   4.659  0.00  0.00    +0.000 C 
ENDBRANCH  12  18
ENDBRANCH   8  15
ENDBRANCH   7  10
ENDBRANCH   1   7
BRANCH   4  19
ATOM     19  C   UNL     1      10.283  -0.192   2.072  0.00  0.00    +0.000 C 
BRANCH  19  20
ATOM     20  N   UNL     1       9.687   0.355   3.275  0.00  0.00    +0.000 N 
ATOM     21  C   UNL     1       8.607   1.203   3.254  0.00  0.00    +0.000 C 
ATOM     22  O   UNL     1       8.106   1.594   2.203  0.00  0.00    +0.000 OA
ATOM     23  H   UNL     1      10.137   0.142   4.160  0.00  0.00    +0.000 HD
BRANCH  21  24
ATOM     24  C   UNL     1       8.035   1.583   4.554  0.00  0.00    +0.000 A 
ATOM     25  C   UNL     1       6.717   2.014   4.616  0.00  0.00    +0.000 A 
ATOM     26  S   UNL     1       6.201   2.433   6.184  0.00  0.00    +0.000 S 
ATOM     27  C   UNL     1       7.730   2.083   6.837  0.00  0.00    +0.000 A 
ATOM     28  N   UNL     1       7.983   2.274   8.162  0.00  0.00    +0.000 NA
ATOM     29  C   UNL     1       9.189   1.995   8.519  0.00  0.00    +0.000 A 
ATOM     30  N   UNL     1      10.166   1.534   7.676  0.00  0.00    +0.000 N 
ATOM     31  C   UNL     1       9.936   1.255   6.348  0.00  0.00    +0.000 A 
ATOM     32  O   UNL     1      10.791   0.714   5.657  0.00  0.00    +0.000 OA
ATOM     33  C   UNL     1       8.612   1.609   5.880  0.00  0.00    +0.000 A 
ATOM     34  H   UNL     1      11.081   1.297   8.031  0.00  0.00    +0.000 HD
ENDBRANCH  21  24
ENDBRANCH  19  20
ENDBRANCH   4  19
TORSDOF 7
