REMARK  Name = 
REMARK  6 active torsions:
REMARK  status: ('A' for Active; 'I' for Inactive)
REMARK    1  A    between atoms: C_2  and  C_20
REMARK    2  A    between atoms: N_3  and  C_4
REMARK    3  A    between atoms: C_4  and  C_5
REMARK    4  A    between atoms: C_8  and  C_9
REMARK    5  A    between atoms: C_9  and  O_10
REMARK    6  A    between atoms: O_10  and  C_11
REMARK                            x       y       z     vdW  Elec       q    Type
REMARK                         _______ _______ _______ _____ _____    ______ ____
ROOT
ATOM      1  C   UNL     1       2.179  -0.796   2.513  0.00  0.00    +0.000 C 
ENDROOT
BRANCH   1   2
ATOM      2  C   UNL     1       3.142  -1.256   3.572  0.00  0.00    +0.000 A 
ATOM      3  C   UNL     1       3.920  -0.347   4.291  0.00  0.00    +0.000 A 
ATOM      4  C   UNL     1       4.783  -0.805   5.284  0.00  0.00    +0.000 A 
ATOM      5  C   UNL     1       4.831  -2.171   5.560  0.00  0.00    +0.000 A 
ATOM      6  N   UNL     1       4.061  -3.070   4.896  0.00  0.00    +0.000 NA
ATOM      7  C   UNL     1       3.247  -2.598   3.924  0.00  0.00    +0.000 A 
BRANCH   5   8
ATOM      8  C   UNL     1       5.794  -2.700   6.598  0.00  0.00    +0.000 C 
BRANCH   8   9
ATOM      9  O   UNL     1       7.086  -2.801   6.003  0.00  0.00    +0.000 OA
BRANCH   9  10
ATOM     10  C   UNL     1       7.978  -3.523   6.777  0.00  0.00    +0.000 A 
ATOM     11  N   UNL     1       7.691  -3.714   8.107  0.00  0.00    +0.000 NA
ATOM     12  C   UNL     1       8.561  -4.411   8.865  0.00  0.00    +0.000 A 
ATOM     13  C   UNL     1       9.733  -4.944   8.383  0.00  0.00    +0.000 A 
ATOM     14  C   UNL     1      10.025  -4.725   7.047  0.00  0.00    +0.000 A 
ATOM     15  N   UNL     1       9.167  -4.010   6.224  0.00  0.00    +0.000 N 
ATOM     16  O   UNL     1       9.493  -3.833   5.004  0.00  0.00    +0.000 OA
ENDBRANCH   9  10
ENDBRANCH   8   9
ENDBRANCH   5   8
ENDBRANCH   1   2
BRANCH   1  19
ATOM     17  O   UNL     1       1.247   1.753   3.266  0.00  0.00    +0.000 OA
ATOM     18  C   UNL     1       0.614   0.754   3.598  0.00  0.00    +0.000 C 
ATOM     19  N   UNL     1       0.897  -0.494   3.103  0.00  0.00    +0.000 N 
ATOM     20  H   UNL     1       0.387  -1.292   3.468  0.00  0.00    +0.000 HD
BRANCH  18  21
ATOM     21  C   UNL     1      -0.457   0.831   4.597  0.00  0.00    +0.000 A 
ATOM     22  C   UNL     1      -1.103   2.034   4.848  0.00  0.00    +0.000 A 
ATOM     23  S   UNL     1      -2.178   1.962   6.173  0.00  0.00    +0.000 S 
ATOM     24  C   UNL     1      -1.730   0.355   6.512  0.00  0.00    +0.000 A 
ATOM     25  N   UNL     1      -2.131  -0.268   7.652  0.00  0.00    +0.000 NA
ATOM     26  C   UNL     1      -1.639  -1.454   7.810  0.00  0.00    +0.000 A 
ATOM     27  N   UNL     1      -0.853  -2.104   6.897  0.00  0.00    +0.000 N 
ATOM     28  C   UNL     1      -0.554  -1.570   5.667  0.00  0.00    +0.000 A 
ATOM     29  O   UNL     1      -0.078  -2.249   4.764  0.00  0.00    +0.000 OA
ATOM     30  C   UNL     1      -0.914  -0.170   5.528  0.00  0.00    +0.000 A 
ATOM     31  H   UNL     1      -0.580  -3.066   7.038  0.00  0.00    +0.000 HD
ENDBRANCH  18  21
ENDBRANCH   1  19
TORSDOF 6
