REMARK  Name = 
REMARK  6 active torsions:
REMARK  status: ('A' for Active; 'I' for Inactive)
REMARK    1  A    between atoms: C_1  and  C_2
REMARK    2  A    between atoms: C_2  and  C_3
REMARK    3  A    between atoms: C_2  and  N_9
REMARK    4  A    between atoms: N_9  and  C_10
REMARK    5  A    between atoms: N_9  and  C_11
REMARK    6  A    between atoms: C_14  and  C_15
REMARK                            x       y       z     vdW  Elec       q    Type
REMARK                         _______ _______ _______ _____ _____    ______ ____
ROOT
ATOM      1  C   UNL     1       4.459   0.889   1.402  0.00  0.00    +0.000 A 
ATOM      2  C   UNL     1       5.000   1.979   2.109  0.00  0.00    +0.000 A 
ATOM      3  C   UNL     1       6.370   2.085   2.406  0.00  0.00    +0.000 A 
ATOM      4  C   UNL     1       7.251   1.071   2.027  0.00  0.00    +0.000 A 
ATOM      5  C   UNL     1       6.750  -0.018   1.317  0.00  0.00    +0.000 A 
ATOM      6  C   UNL     1       5.381  -0.091   0.998  0.00  0.00    +0.000 A 
ENDROOT
BRANCH   4   7
ATOM      7  C   UNL     1       8.688   1.217   2.370  0.00  0.00    +0.000 C 
ATOM      8  N   UNL     1       9.429   0.071   2.481  0.00  0.00    +0.000 N 
ATOM      9  O   UNL     1       9.197   2.311   2.577  0.00  0.00    +0.000 OA
ATOM     10  H   UNL     1       9.004  -0.839   2.572  0.00  0.00    +0.000 HD
ATOM     11  H   UNL     1      10.374   0.186   2.828  0.00  0.00    +0.000 HD
ENDBRANCH   4   7
BRANCH   1  12
ATOM     12  N   UNL     1       3.094   0.817   1.120  0.00  0.00    +0.000 N 
ATOM     13  C   UNL     1       2.166   1.364   2.114  0.00  0.00    +0.000 C 
BRANCH  12  15
ATOM     14  C   UNL     1       2.317  -1.478   0.465  0.00  0.00    +0.000 C 
ATOM     15  C   UNL     1       2.547  -0.027   0.024  0.00  0.00    +0.000 C 
BRANCH  15  16
ATOM     16  C   UNL     1       1.255   0.544  -0.593  0.00  0.00    +0.000 A 
ATOM     17  C   UNL     1       1.317   1.623  -1.470  0.00  0.00    +0.000 A 
ATOM     18  C   UNL     1       0.137   2.093  -2.048  0.00  0.00    +0.000 A 
ATOM     19  C   UNL     1      -1.073   1.489  -1.727  0.00  0.00    +0.000 A 
ATOM     20  C   UNL     1      -1.059   0.443  -0.826  0.00  0.00    +0.000 A 
ATOM     21  N   UNL     1       0.067  -0.036  -0.257  0.00  0.00    +0.000 NA
ENDBRANCH  15  16
ENDBRANCH  12  15
ENDBRANCH   1  12
TORSDOF 4
