REMARK  Name = 
REMARK  11 active torsions:
REMARK  status: ('A' for Active; 'I' for Inactive)
REMARK    1  A    between atoms: C_1  and  O_2
REMARK    2  A    between atoms: O_2  and  C_3
REMARK    3  A    between atoms: C_10  and  C_11
REMARK    4  A    between atoms: N_13  and  C_14
REMARK    5  A    between atoms: C_14  and  C_15
REMARK    6  A    between atoms: C_18  and  C_19
REMARK    7  A    between atoms: C_19  and  N_20
REMARK    8  A    between atoms: N_20  and  CA_21
REMARK    9  A    between atoms: CA_21  and  C_22
REMARK   10  A    between atoms: CA_21  and  C_24
REMARK   11  A    between atoms: C_22  and  O_23
REMARK                            x       y       z     vdW  Elec       q    Type
REMARK                         _______ _______ _______ _____ _____    ______ ____
ROOT
ATOM      1  C   UNL     1       1.246   3.811 -11.524  0.00  0.00    +0.000 A 
ATOM      2  C   UNL     1       0.288   2.790 -11.476  0.00  0.00    +0.000 A 
ATOM      3  C   UNL     1       0.079   2.062 -10.299  0.00  0.00    +0.000 A 
ATOM      4  C   UNL     1       0.816   2.347  -9.142  0.00  0.00    +0.000 A 
ATOM      5  C   UNL     1       1.755   3.390  -9.186  0.00  0.00    +0.000 A 
ATOM      6  C   UNL     1       1.963   4.117 -10.361  0.00  0.00    +0.000 A 
ENDROOT
BRANCH   1   7
ATOM      7  C   UNL     1       1.479   4.590 -12.792  0.00  0.00    +0.000 C 
BRANCH   7  10
ATOM      8  C   UNL     1       0.657   6.595 -13.937  0.00  0.00    +0.000 C 
ATOM      9  O   UNL     1       1.385   6.384 -14.902  0.00  0.00    +0.000 OA
ATOM     10  N   UNL     1       0.633   5.754 -12.854  0.00  0.00    +0.000 N 
ATOM     11  H   UNL     1       0.043   5.962 -12.059  0.00  0.00    +0.000 HD
BRANCH   8  19
ATOM     12  C   UNL     1      -1.695   7.790 -11.666  0.00  0.00    +0.000 A 
ATOM     13  N   UNL     1      -2.587   8.557 -10.998  0.00  0.00    +0.000 NA
ATOM     14  C   UNL     1      -2.966   9.714 -11.561  0.00  0.00    +0.000 A 
ATOM     15  N   UNL     1      -2.580  10.218 -12.745  0.00  0.00    +0.000 NA
ATOM     16  C   UNL     1      -1.688   9.424 -13.353  0.00  0.00    +0.000 A 
ATOM     17  N   UNL     1      -1.138   9.696 -14.570  0.00  0.00    +0.000 N 
ATOM     18  C   UNL     1      -0.254   8.709 -14.899  0.00  0.00    +0.000 A 
ATOM     19  C   UNL     1      -0.222   7.763 -13.876  0.00  0.00    +0.000 A 
ATOM     20  C   UNL     1      -1.172   8.219 -12.892  0.00  0.00    +0.000 A 
ATOM     21  H   UNL     1      -1.365  10.509 -15.123  0.00  0.00    +0.000 HD
BRANCH  12  23
ATOM     22  C   UNL     1      -2.290   6.040 -10.250  0.00  0.00    +0.000 C 
ATOM     23  O   UNL     1      -1.290   6.597 -11.101  0.00  0.00    +0.000 OA
ENDBRANCH  12  23
ENDBRANCH   8  19
ENDBRANCH   7  10
ENDBRANCH   1   7
BRANCH   4  24
ATOM     24  C   UNL     1       0.587   1.580  -7.853  0.00  0.00    +0.000 C 
BRANCH  24  25
ATOM     25  N   UNL     1       0.907   0.163  -8.003  0.00  0.00    +0.000 NA
ATOM     26  H   UNL     1       1.878   0.085  -8.308  0.00  0.00    +0.000 HD
BRANCH  25  27
ATOM     27  CA  UNL     1       0.768  -0.651  -6.764  0.00  0.00    +0.000 C 
BRANCH  27  28
ATOM     28  C   UNL     1       1.691  -0.264  -5.607  0.00  0.00    +0.000 A 
ATOM     29  C   UNL     1       1.416   0.811  -4.757  0.00  0.00    +0.000 A 
ATOM     30  C   UNL     1       2.317   1.137  -3.745  0.00  0.00    +0.000 A 
ATOM     31  C   UNL     1       3.461   0.370  -3.583  0.00  0.00    +0.000 A 
ATOM     32  C   UNL     1       3.660  -0.690  -4.448  0.00  0.00    +0.000 A 
ATOM     33  N   UNL     1       2.815  -1.013  -5.454  0.00  0.00    +0.000 NA
ENDBRANCH  27  28
BRANCH  27  34
ATOM     34  C   UNL     1      -0.693  -0.952  -6.341  0.00  0.00    +0.000 C 
BRANCH  34  35
ATOM     35  O   UNL     1      -1.383   0.164  -5.782  0.00  0.00    +0.000 OA
ATOM     36  H   UNL     1      -2.315  -0.102  -5.700  0.00  0.00    +0.000 HD
ENDBRANCH  34  35
ENDBRANCH  27  34
ENDBRANCH  25  27
ENDBRANCH  24  25
ENDBRANCH   4  24
TORSDOF 10
