REMARK  Name = 
REMARK  6 active torsions:
REMARK  status: ('A' for Active; 'I' for Inactive)
REMARK    1  A    between atoms: C_1  and  C_2
REMARK    2  A    between atoms: C_4  and  C_5
REMARK    3  A    between atoms: C_5  and  O_6
REMARK    4  A    between atoms: O_6  and  C_7
REMARK    5  A    between atoms: C_10  and  C_11
REMARK    6  A    between atoms: C_15  and  C_16
REMARK                            x       y       z     vdW  Elec       q    Type
REMARK                         _______ _______ _______ _____ _____    ______ ____
ROOT
ATOM      1  C   UNL     1      -1.832  -4.783   0.163  0.00  0.00    +0.000 A 
ATOM      2  N   UNL     1      -1.217  -5.836  -0.434  0.00  0.00    +0.000 NA
ATOM      3  C   UNL     1      -1.786  -7.057  -0.266  0.00  0.00    +0.000 A 
ATOM      4  C   UNL     1      -2.941  -7.228   0.469  0.00  0.00    +0.000 A 
ATOM      5  N   UNL     1      -3.575  -6.190   1.077  0.00  0.00    +0.000 NA
ATOM      6  C   UNL     1      -2.999  -4.965   0.930  0.00  0.00    +0.000 A 
ATOM      7  C   UNL     1      -3.706  -3.885   1.685  0.00  0.00    +0.000 C 
ENDROOT
BRANCH   4   8
ATOM      8  C   UNL     1      -3.546  -8.574   0.652  0.00  0.00    +0.000 C 
ATOM      9  N   UNL     1      -4.680  -8.602   1.421  0.00  0.00    +0.000 N 
ATOM     10  O   UNL     1      -3.065  -9.584   0.158  0.00  0.00    +0.000 OA
ATOM     11  H   UNL     1      -5.039  -7.738   1.826  0.00  0.00    +0.000 HD
ATOM     12  H   UNL     1      -5.140  -9.482   1.606  0.00  0.00    +0.000 HD
ENDBRANCH   4   8
BRANCH   1  13
ATOM     13  O   UNL     1      -1.148  -3.619  -0.037  0.00  0.00    +0.000 OA
BRANCH  13  14
ATOM     14  C   UNL     1      -1.940  -2.445  -0.157  0.00  0.00    +0.000 C 
BRANCH  14  18
ATOM     15  C   UNL     1       1.128  -0.774  -3.789  0.00  0.00    +0.000 C 
ATOM     16  C   UNL     1       0.187  -0.531  -2.650  0.00  0.00    +0.000 A 
ATOM     17  C   UNL     1      -0.360  -1.600  -1.949  0.00  0.00    +0.000 A 
ATOM     18  C   UNL     1      -1.239  -1.339  -0.899  0.00  0.00    +0.000 A 
ATOM     19  C   UNL     1      -1.551  -0.008  -0.601  0.00  0.00    +0.000 A 
ATOM     20  C   UNL     1      -0.962   0.994  -1.350  0.00  0.00    +0.000 A 
ATOM     21  N   UNL     1      -0.105   0.761  -2.363  0.00  0.00    +0.000 NA
ENDBRANCH  14  18
ENDBRANCH  13  14
ENDBRANCH   1  13
TORSDOF 4
