REMARK  Name = 
REMARK  7 active torsions:
REMARK  status: ('A' for Active; 'I' for Inactive)
REMARK    1  A    between atoms: N_1  and  C_2
REMARK    2  A    between atoms: C_2  and  C_3
REMARK    3  A    between atoms: C_6  and  C_7
REMARK    4  A    between atoms: C_7  and  C_8
REMARK    5  A    between atoms: C_8  and  C_9
REMARK    6  A    between atoms: C_9  and  C_10
REMARK    7  A    between atoms: C_14  and  C_15
REMARK                            x       y       z     vdW  Elec       q    Type
REMARK                         _______ _______ _______ _____ _____    ______ ____
ROOT
ATOM      1  C   UNL     1       3.217   6.223  -0.254  0.00  0.00    +0.000 C 
ENDROOT
BRANCH   1   2
ATOM      2  C   UNL     1       4.320   5.250  -0.673  0.00  0.00    +0.000 C 
BRANCH   2   6
ATOM      3  C   UNL     1       2.995   1.276  -0.132  0.00  0.00    +0.000 A 
ATOM      4  C   UNL     1       2.815   1.966  -1.314  0.00  0.00    +0.000 A 
ATOM      5  N   UNL     1       3.233   3.233  -1.520  0.00  0.00    +0.000 NA
ATOM      6  C   UNL     1       3.870   3.825  -0.492  0.00  0.00    +0.000 A 
ATOM      7  N   UNL     1       4.091   3.250   0.705  0.00  0.00    +0.000 NA
ATOM      8  C   UNL     1       3.646   1.987   0.854  0.00  0.00    +0.000 A 
BRANCH   3   9
ATOM      9  C   UNL     1       2.505  -0.120   0.071  0.00  0.00    +0.000 C 
BRANCH   9  10
ATOM     10  N   UNL     1       3.132  -1.053  -0.857  0.00  0.00    +0.000 NA
ATOM     11  H   UNL     1       2.812  -1.999  -0.652  0.00  0.00    +0.000 HD
ATOM     12  H   UNL     1       4.140  -1.057  -0.704  0.00  0.00    +0.000 HD
ENDBRANCH   9  10
ENDBRANCH   3   9
ENDBRANCH   2   6
ENDBRANCH   1   2
BRANCH   1  13
ATOM     13  C   UNL     1       3.660   7.679  -0.406  0.00  0.00    +0.000 C 
BRANCH  13  14
ATOM     14  C   UNL     1       2.564   8.643  -0.037  0.00  0.00    +0.000 A 
ATOM     15  C   UNL     1       1.643   9.071  -0.987  0.00  0.00    +0.000 A 
ATOM     16  N   UNL     1       0.634   9.933  -0.731  0.00  0.00    +0.000 NA
ATOM     17  C   UNL     1       0.530  10.392   0.541  0.00  0.00    +0.000 A 
ATOM     18  C   UNL     1       1.380  10.026   1.574  0.00  0.00    +0.000 A 
ATOM     19  C   UNL     1       2.414   9.130   1.269  0.00  0.00    +0.000 A 
BRANCH  18  20
ATOM     20  C   UNL     1       1.246  10.537   2.961  0.00  0.00    +0.000 C 
ATOM     21  N   UNL     1       0.239  11.414   3.259  0.00  0.00    +0.000 N 
ATOM     22  O   UNL     1       2.024  10.185   3.843  0.00  0.00    +0.000 OA
ATOM     23  H   UNL     1      -0.453  11.767   2.617  0.00  0.00    +0.000 HD
ATOM     24  H   UNL     1       0.191  11.734   4.218  0.00  0.00    +0.000 HD
ENDBRANCH  18  20
ENDBRANCH  13  14
ENDBRANCH   1  13
TORSDOF 7
