REMARK  Name = 
REMARK  6 active torsions:
REMARK  status: ('A' for Active; 'I' for Inactive)
REMARK    1  A    between atoms: C_1  and  C_2
REMARK    2  A    between atoms: C_4  and  C_5
REMARK    3  A    between atoms: C_10  and  N_11
REMARK    4  A    between atoms: N_11  and  C_12
REMARK    5  A    between atoms: C_12  and  C_13
REMARK    6  A    between atoms: C_17  and  C_18
REMARK                            x       y       z     vdW  Elec       q    Type
REMARK                         _______ _______ _______ _____ _____    ______ ____
ROOT
ATOM      1  N   UNL     1       0.862  -2.275  -0.082  0.00  0.00    +0.000 N 
ATOM      2  H   UNL     1       0.415  -2.751  -0.853  0.00  0.00    +0.000 HD
ENDROOT
BRANCH   1   9
ATOM      3  C   UNL     1      -2.006  -1.719  -0.269  0.00  0.00    +0.000 C 
ATOM      4  C   UNL     1      -1.276  -1.952   1.025  0.00  0.00    +0.000 A 
ATOM      5  C   UNL     1      -1.997  -1.862   2.230  0.00  0.00    +0.000 A 
ATOM      6  C   UNL     1      -1.355  -2.047   3.455  0.00  0.00    +0.000 A 
ATOM      7  C   UNL     1      -0.003  -2.314   3.413  0.00  0.00    +0.000 A 
ATOM      8  N   UNL     1       0.719  -2.410   2.268  0.00  0.00    +0.000 NA
ATOM      9  C   UNL     1       0.093  -2.239   1.084  0.00  0.00    +0.000 A 
BRANCH   6  10
ATOM     10  C   UNL     1      -2.142  -1.943   4.707  0.00  0.00    +0.000 C 
ATOM     11  N   UNL     1      -1.512  -2.117   5.907  0.00  0.00    +0.000 N 
ATOM     12  O   UNL     1      -3.345  -1.707   4.679  0.00  0.00    +0.000 OA
ATOM     13  H   UNL     1      -0.534  -2.314   6.045  0.00  0.00    +0.000 HD
ATOM     14  H   UNL     1      -2.092  -2.041   6.734  0.00  0.00    +0.000 HD
ENDBRANCH   6  10
ENDBRANCH   1   9
BRANCH   1  15
ATOM     15  C   UNL     1       2.293  -2.550   0.035  0.00  0.00    +0.000 C 
BRANCH  15  16
ATOM     16  C   UNL     1       2.693  -4.006  -0.058  0.00  0.00    +0.000 A 
ATOM     17  C   UNL     1       3.928  -4.331  -0.614  0.00  0.00    +0.000 A 
ATOM     18  N   UNL     1       4.429  -5.583  -0.698  0.00  0.00    +0.000 NA
ATOM     19  C   UNL     1       3.666  -6.576  -0.184  0.00  0.00    +0.000 A 
ATOM     20  C   UNL     1       2.425  -6.400   0.430  0.00  0.00    +0.000 A 
ATOM     21  C   UNL     1       1.958  -5.069   0.489  0.00  0.00    +0.000 A 
BRANCH  20  22
ATOM     22  C   UNL     1       1.650  -7.537   0.976  0.00  0.00    +0.000 A 
ATOM     23  C   UNL     1       2.275  -8.660   1.543  0.00  0.00    +0.000 A 
ATOM     24  C   UNL     1       1.499  -9.710   2.016  0.00  0.00    +0.000 A 
ATOM     25  N   UNL     1       0.153  -9.725   1.979  0.00  0.00    +0.000 NA
ATOM     26  C   UNL     1      -0.443  -8.642   1.442  0.00  0.00    +0.000 A 
ATOM     27  C   UNL     1       0.249  -7.550   0.936  0.00  0.00    +0.000 A 
ENDBRANCH  20  22
ENDBRANCH  15  16
ENDBRANCH   1  15
TORSDOF 5
