REMARK  Name = 
REMARK  5 active torsions:
REMARK  status: ('A' for Active; 'I' for Inactive)
REMARK    1  A    between atoms: C_2  and  C_4
REMARK    2  A    between atoms: C_8  and  N_9
REMARK    3  A    between atoms: N_9  and  C_10
REMARK    4  A    between atoms: C_10  and  C_11
REMARK    5  A    between atoms: C_13  and  C_14
REMARK                            x       y       z     vdW  Elec       q    Type
REMARK                         _______ _______ _______ _____ _____    ______ ____
ROOT
ATOM      1  N   UNL     1       4.349  -5.154   1.390  0.00  0.00    +0.000 N 
ATOM      2  H   UNL     1       4.291  -5.551   0.459  0.00  0.00    +0.000 HD
ENDROOT
BRANCH   1   7
ATOM      3  C   UNL     1       6.328  -2.378   0.430  0.00  0.00    +0.000 A 
ATOM      4  N   UNL     1       6.321  -1.526   1.470  0.00  0.00    +0.000 NA
ATOM      5  C   UNL     1       5.579  -1.908   2.513  0.00  0.00    +0.000 A 
ATOM      6  C   UNL     1       4.879  -3.093   2.550  0.00  0.00    +0.000 A 
ATOM      7  C   UNL     1       4.948  -3.914   1.438  0.00  0.00    +0.000 A 
ATOM      8  N   UNL     1       5.666  -3.563   0.359  0.00  0.00    +0.000 NA
BRANCH   3  10
ATOM      9  N   UNL     1       7.147  -2.870  -1.822  0.00  0.00    +0.000 N 
ATOM     10  C   UNL     1       7.168  -1.988  -0.768  0.00  0.00    +0.000 C 
ATOM     11  O   UNL     1       7.837  -0.962  -0.834  0.00  0.00    +0.000 OA
ATOM     12  H   UNL     1       7.692  -2.655  -2.649  0.00  0.00    +0.000 HD
ATOM     13  H   UNL     1       6.599  -3.716  -1.771  0.00  0.00    +0.000 HD
ENDBRANCH   3  10
ENDBRANCH   1   7
BRANCH   1  14
ATOM     14  C   UNL     1       3.398  -5.612   2.388  0.00  0.00    +0.000 C 
BRANCH  14  15
ATOM     15  C   UNL     1       2.823  -6.973   2.052  0.00  0.00    +0.000 A 
ATOM     16  C   UNL     1       3.532  -8.137   2.362  0.00  0.00    +0.000 A 
ATOM     17  C   UNL     1       2.980  -9.399   2.085  0.00  0.00    +0.000 A 
ATOM     18  C   UNL     1       1.712  -9.413   1.489  0.00  0.00    +0.000 A 
ATOM     19  C   UNL     1       1.074  -8.215   1.206  0.00  0.00    +0.000 A 
ATOM     20  N   UNL     1       1.601  -7.003   1.468  0.00  0.00    +0.000 NA
BRANCH  17  21
ATOM     21  C   UNL     1       3.703 -10.656   2.400  0.00  0.00    +0.000 A 
ATOM     22  C   UNL     1       3.016 -11.830   2.766  0.00  0.00    +0.000 A 
ATOM     23  C   UNL     1       3.694 -13.026   3.029  0.00  0.00    +0.000 A 
ATOM     24  C   UNL     1       5.081 -13.073   2.949  0.00  0.00    +0.000 A 
ATOM     25  C   UNL     1       5.789 -11.926   2.608  0.00  0.00    +0.000 A 
ATOM     26  C   UNL     1       5.107 -10.735   2.332  0.00  0.00    +0.000 A 
ENDBRANCH  17  21
ENDBRANCH  14  15
ENDBRANCH   1  14
TORSDOF 5
