REMARK  Name = 
REMARK  4 active torsions:
REMARK  status: ('A' for Active; 'I' for Inactive)
REMARK    1  A    between atoms: C_2  and  C_4
REMARK    2  A    between atoms: N_8  and  C_9
REMARK    3  A    between atoms: C_9  and  C_10
REMARK    4  A    between atoms: C_12  and  C_13
REMARK                            x       y       z     vdW  Elec       q    Type
REMARK                         _______ _______ _______ _____ _____    ______ ____
ROOT
ATOM      1  C   UNL     1       3.526   3.010   5.120  0.00  0.00    +0.000 A 
ATOM      2  C   UNL     1       3.734   2.293   6.294  0.00  0.00    +0.000 A 
ATOM      3  C   UNL     1       4.331   1.034   6.223  0.00  0.00    +0.000 A 
ATOM      4  C   UNL     1       4.690   0.508   4.986  0.00  0.00    +0.000 A 
ATOM      5  N   UNL     1       5.345  -0.694   4.826  0.00  0.00    +0.000 N 
ATOM      6  N   UNL     1       4.474   1.186   3.843  0.00  0.00    +0.000 NA
ATOM      7  C   UNL     1       3.892   2.411   3.927  0.00  0.00    +0.000 A 
ATOM      8  H   UNL     1       5.353  -0.927   3.838  0.00  0.00    +0.000 HD
ENDROOT
BRANCH   1  10
ATOM      9  N   UNL     1       3.100   5.129   6.218  0.00  0.00    +0.000 N 
ATOM     10  C   UNL     1       2.930   4.360   5.102  0.00  0.00    +0.000 C 
ATOM     11  O   UNL     1       2.339   4.782   4.119  0.00  0.00    +0.000 OA
ATOM     12  H   UNL     1       2.779   6.088   6.153  0.00  0.00    +0.000 HD
ATOM     13  H   UNL     1       3.787   4.916   6.927  0.00  0.00    +0.000 HD
ENDBRANCH   1  10
BRANCH   5  14
ATOM     14  C   UNL     1       5.119  -1.800   5.746  0.00  0.00    +0.000 C 
BRANCH  14  15
ATOM     15  C   UNL     1       6.095  -1.787   6.912  0.00  0.00    +0.000 A 
ATOM     16  C   UNL     1       7.406  -1.338   6.733  0.00  0.00    +0.000 A 
ATOM     17  C   UNL     1       8.313  -1.333   7.802  0.00  0.00    +0.000 A 
ATOM     18  C   UNL     1       7.838  -1.806   9.032  0.00  0.00    +0.000 A 
ATOM     19  C   UNL     1       6.529  -2.254   9.130  0.00  0.00    +0.000 A 
ATOM     20  N   UNL     1       5.652  -2.252   8.104  0.00  0.00    +0.000 NA
BRANCH  17  21
ATOM     21  C   UNL     1       9.702  -0.884   7.614  0.00  0.00    +0.000 A 
ATOM     22  C   UNL     1      10.075   0.113   6.721  0.00  0.00    +0.000 A 
ATOM     23  N   UNL     1      11.347   0.506   6.487  0.00  0.00    +0.000 NA
ATOM     24  C   UNL     1      12.290  -0.130   7.194  0.00  0.00    +0.000 A 
ATOM     25  N   UNL     1      12.073  -1.089   8.102  0.00  0.00    +0.000 NA
ATOM     26  C   UNL     1      10.782  -1.440   8.284  0.00  0.00    +0.000 A 
ENDBRANCH  17  21
ENDBRANCH  14  15
ENDBRANCH   5  14
TORSDOF 4
