REMARK  Name = 
REMARK  8 active torsions:
REMARK  status: ('A' for Active; 'I' for Inactive)
REMARK    1  A    between atoms: C_1  and  N_2
REMARK    2  A    between atoms: N_2  and  C_3
REMARK    3  A    between atoms: N_2  and  S_4
REMARK    4  A    between atoms: S_4  and  C_7
REMARK    5  A    between atoms: C_10  and  N_11
REMARK    6  A    between atoms: N_11  and  C_12
REMARK    7  A    between atoms: C_12  and  C_13
REMARK    8  A    between atoms: C_16  and  O_17
REMARK                            x       y       z     vdW  Elec       q    Type
REMARK                         _______ _______ _______ _____ _____    ______ ____
ROOT
ATOM      1  N   UNL     1       8.902  -1.627   0.783  0.00  0.00    +0.000 N 
ATOM      2  H   UNL     1       9.276  -1.113  -0.008  0.00  0.00    +0.000 HD
ENDROOT
BRANCH   1   6
ATOM      3  C   UNL     1       4.796  -1.402   0.702  0.00  0.00    +0.000 A 
ATOM      4  C   UNL     1       5.451  -1.538   1.906  0.00  0.00    +0.000 A 
ATOM      5  N   UNL     1       6.807  -1.583   1.975  0.00  0.00    +0.000 NA
ATOM      6  C   UNL     1       7.491  -1.513   0.809  0.00  0.00    +0.000 A 
ATOM      7  C   UNL     1       6.790  -1.404  -0.400  0.00  0.00    +0.000 A 
ATOM      8  N   UNL     1       5.440  -1.333  -0.493  0.00  0.00    +0.000 NA
BRANCH   3   9
ATOM      9  S   UNL     1       3.018  -1.454   0.642  0.00  0.00    +0.000 S 
ATOM     10  O   UNL     1       2.555  -0.189   0.110  0.00  0.00    +0.000 OA
ATOM     11  O   UNL     1       2.565  -1.918   1.938  0.00  0.00    +0.000 OA
BRANCH   9  13
ATOM     12  C   UNL     1       2.881  -2.385  -1.903  0.00  0.00    +0.000 C 
ATOM     13  N   UNL     1       2.650  -2.698  -0.481  0.00  0.00    +0.000 NA
ATOM     14  C   UNL     1       3.094  -4.049  -0.100  0.00  0.00    +0.000 C 
ENDBRANCH   9  13
ENDBRANCH   3   9
ENDBRANCH   1   6
BRANCH   1  15
ATOM     15  C   UNL     1       9.654  -1.392   2.052  0.00  0.00    +0.000 C 
ATOM     16  C   UNL     1       9.535  -0.031   2.731  0.00  0.00    +0.000 C 
ATOM     17  C   UNL     1      10.797  -0.379   2.030  0.00  0.00    +0.000 C 
ATOM     18  F   UNL     1      11.912  -0.604   2.818  0.00  0.00    +0.000 F 
BRANCH  15  19
ATOM     19  C   UNL     1       9.861  -2.633   2.919  0.00  0.00    +0.000 A 
ATOM     20  C   UNL     1      10.887  -3.557   2.643  0.00  0.00    +0.000 A 
ATOM     21  C   UNL     1      11.151  -4.636   3.495  0.00  0.00    +0.000 A 
ATOM     22  C   UNL     1      10.376  -4.810   4.634  0.00  0.00    +0.000 A 
ATOM     23  C   UNL     1       9.326  -3.948   4.913  0.00  0.00    +0.000 A 
ATOM     24  C   UNL     1       9.070  -2.875   4.057  0.00  0.00    +0.000 A 
BRANCH  22  25
ATOM     25  O   UNL     1      10.624  -5.818   5.518  0.00  0.00    +0.000 OA
ATOM     26  H   UNL     1      11.448  -6.260   5.254  0.00  0.00    +0.000 HD
ENDBRANCH  22  25
ENDBRANCH  15  19
ENDBRANCH   1  15
TORSDOF 6
