REMARK  Name = 
REMARK  10 active torsions:
REMARK  status: ('A' for Active; 'I' for Inactive)
REMARK    1  A    between atoms: C_2  and  C_3
REMARK    2  A    between atoms: C_3  and  N_4
REMARK    3  A    between atoms: C_5  and  C_7
REMARK    4  A    between atoms: N_17  and  CA_18
REMARK    5  A    between atoms: CA_18  and  C_19
REMARK    6  A    between atoms: CA_18  and  C_21
REMARK    7  A    between atoms: C_19  and  O_20
REMARK    8  A    between atoms: C_24  and  C_25
REMARK    9  A    between atoms: C_25  and  N_26
REMARK   10  A    between atoms: C_27  and  C_29
REMARK                            x       y       z     vdW  Elec       q    Type
REMARK                         _______ _______ _______ _____ _____    ______ ____
ROOT
ATOM      1  O   UNL     1       4.972   0.684   1.283  0.00  0.00    +0.000 OA
ATOM      2  C   UNL     1       5.162  -0.532   1.257  0.00  0.00    +0.000 C 
ATOM      3  N   UNL     1       4.988  -1.293   0.120  0.00  0.00    +0.000 N 
ATOM      4  H   UNL     1       5.310  -2.256   0.129  0.00  0.00    +0.000 HD
ENDROOT
BRANCH   2   5
ATOM      5  C   UNL     1       5.700  -1.305   2.467  0.00  0.00    +0.000 C 
BRANCH   5   6
ATOM      6  N   UNL     1       7.149  -1.305   2.502  0.00  0.00    +0.000 N 
ATOM      7  C   UNL     1       7.886  -2.236   1.820  0.00  0.00    +0.000 C 
ATOM      8  O   UNL     1       7.345  -3.092   1.122  0.00  0.00    +0.000 OA
ATOM      9  H   UNL     1       7.604  -0.651   3.132  0.00  0.00    +0.000 HD
BRANCH   7  10
ATOM     10  C   UNL     1       9.347  -2.125   1.914  0.00  0.00    +0.000 A 
ATOM     11  C   UNL     1      10.139  -2.643   0.899  0.00  0.00    +0.000 A 
ATOM     12  S   UNL     1      11.811  -2.430   1.154  0.00  0.00    +0.000 S 
ATOM     13  C   UNL     1      11.541  -1.675   2.655  0.00  0.00    +0.000 A 
ATOM     14  N   UNL     1      12.584  -1.269   3.428  0.00  0.00    +0.000 NA
ATOM     15  C   UNL     1      12.238  -0.745   4.557  0.00  0.00    +0.000 A 
ATOM     16  N   UNL     1      10.943  -0.579   4.975  0.00  0.00    +0.000 N 
ATOM     17  C   UNL     1       9.856  -0.922   4.203  0.00  0.00    +0.000 A 
ATOM     18  O   UNL     1       8.711  -0.673   4.562  0.00  0.00    +0.000 OA
ATOM     19  C   UNL     1      10.192  -1.556   2.941  0.00  0.00    +0.000 A 
ATOM     20  H   UNL     1      10.741  -0.135   5.859  0.00  0.00    +0.000 HD
ENDBRANCH   7  10
ENDBRANCH   5   6
ENDBRANCH   2   5
BRANCH   3  21
ATOM     21  CA  UNL     1       4.449  -0.729  -1.112  0.00  0.00    +0.000 C 
BRANCH  21  22
ATOM     22  C   UNL     1       4.976  -1.475  -2.330  0.00  0.00    +0.000 A 
ATOM     23  C   UNL     1       5.829  -0.828  -3.237  0.00  0.00    +0.000 A 
ATOM     24  C   UNL     1       6.244  -1.466  -4.413  0.00  0.00    +0.000 A 
ATOM     25  C   UNL     1       5.811  -2.763  -4.715  0.00  0.00    +0.000 A 
ATOM     26  C   UNL     1       5.014  -3.435  -3.779  0.00  0.00    +0.000 A 
ATOM     27  C   UNL     1       4.600  -2.799  -2.603  0.00  0.00    +0.000 A 
BRANCH  25  28
ATOM     28  C   UNL     1       6.186  -3.424  -6.018  0.00  0.00    +0.000 C 
BRANCH  28  29
ATOM     29  N   UNL     1       7.434  -4.128  -5.918  0.00  0.00    +0.000 N 
ATOM     30  C   UNL     1       7.933  -4.893  -6.959  0.00  0.00    +0.000 C 
ATOM     31  O   UNL     1       7.344  -4.985  -8.031  0.00  0.00    +0.000 OA
ATOM     32  H   UNL     1       7.985  -4.050  -5.076  0.00  0.00    +0.000 HD
BRANCH  30  33
ATOM     33  C   UNL     1       9.195  -5.572  -6.677  0.00  0.00    +0.000 A 
ATOM     34  C   UNL     1       9.942  -6.354  -7.542  0.00  0.00    +0.000 A 
ATOM     35  C   UNL     1      11.113  -6.891  -6.927  0.00  0.00    +0.000 A 
ATOM     36  C   UNL     1      11.228  -6.500  -5.613  0.00  0.00    +0.000 A 
ATOM     37  S   UNL     1       9.942  -5.488  -5.131  0.00  0.00    +0.000 S 
ENDBRANCH  30  33
ENDBRANCH  28  29
ENDBRANCH  25  28
ENDBRANCH  21  22
BRANCH  21  38
ATOM     38  C   UNL     1       2.895  -0.692  -1.118  0.00  0.00    +0.000 C 
BRANCH  38  39
ATOM     39  O   UNL     1       2.329   0.058  -0.042  0.00  0.00    +0.000 OA
ATOM     40  H   UNL     1       2.854   0.873   0.064  0.00  0.00    +0.000 HD
ENDBRANCH  38  39
ENDBRANCH  21  38
ENDBRANCH   3  21
TORSDOF 10
