REMARK  Name = 
REMARK  4 active torsions:
REMARK  status: ('A' for Active; 'I' for Inactive)
REMARK    1  A    between atoms: N_1  and  C_2
REMARK    2  A    between atoms: C_2  and  C_3
REMARK    3  A    between atoms: C_7  and  C_8
REMARK    4  A    between atoms: C_8  and  N_9
REMARK                            x       y       z     vdW  Elec       q    Type
REMARK                         _______ _______ _______ _____ _____    ______ ____
ROOT
ATOM      1  C   UNL     1       3.492   2.012  -3.470  0.00  0.00    +0.000 A 
ATOM      2  C   UNL     1       2.510   1.853  -2.499  0.00  0.00    +0.000 A 
ATOM      3  C   UNL     1       2.196   0.571  -2.065  0.00  0.00    +0.000 A 
ATOM      4  C   UNL     1       2.863  -0.523  -2.613  0.00  0.00    +0.000 A 
ATOM      5  C   UNL     1       3.838  -0.290  -3.582  0.00  0.00    +0.000 A 
ATOM      6  N   UNL     1       4.170   0.957  -3.993  0.00  0.00    +0.000 NA
ENDROOT
BRANCH   1   7
ATOM      7  C   UNL     1       3.882   3.387  -3.959  0.00  0.00    +0.000 C 
BRANCH   7   8
ATOM      8  N   UNL     1       4.915   4.004  -3.123  0.00  0.00    +0.000 NA
ATOM      9  H   UNL     1       5.246   4.849  -3.587  0.00  0.00    +0.000 HD
ATOM     10  H   UNL     1       5.712   3.367  -3.103  0.00  0.00    +0.000 HD
ENDBRANCH   7   8
ENDBRANCH   1   7
BRANCH   5  11
ATOM     11  C   UNL     1       4.632  -1.429  -4.158  0.00  0.00    +0.000 C 
BRANCH  11  12
ATOM     12  N   UNL     1       4.104  -1.967  -5.414  0.00  0.00    +0.000 N 
ATOM     13  C   UNL     1       3.668  -3.267  -5.531  0.00  0.00    +0.000 A 
ATOM     14  C   UNL     1       3.890  -3.664  -6.831  0.00  0.00    +0.000 A 
ATOM     15  C   UNL     1       4.326  -2.528  -7.563  0.00  0.00    +0.000 A 
ATOM     16  C   UNL     1       4.709  -2.313  -8.894  0.00  0.00    +0.000 A 
ATOM     17  N   UNL     1       4.994  -1.067  -9.341  0.00  0.00    +0.000 NA
ATOM     18  C   UNL     1       4.910  -0.032  -8.475  0.00  0.00    +0.000 A 
ATOM     19  C   UNL     1       4.613  -0.151  -7.124  0.00  0.00    +0.000 A 
ATOM     20  C   UNL     1       4.338  -1.444  -6.674  0.00  0.00    +0.000 A 
ENDBRANCH  11  12
ENDBRANCH   5  11
TORSDOF 4
