REMARK  Name = 
REMARK  3 active torsions:
REMARK  status: ('A' for Active; 'I' for Inactive)
REMARK    1  A    between atoms: C_3  and  C_4
REMARK    2  A    between atoms: C_4  and  N_5
REMARK    3  A    between atoms: C_10  and  C_11
REMARK                            x       y       z     vdW  Elec       q    Type
REMARK                         _______ _______ _______ _____ _____    ______ ____
ROOT
ATOM      1  N   UNL     1       3.376   1.587  -0.203  0.00  0.00    +0.000 N 
ATOM      2  C   UNL     1       4.740   1.845  -0.182  0.00  0.00    +0.000 A 
ATOM      3  N   UNL     1       5.139   2.866   0.608  0.00  0.00    +0.000 NA
ATOM      4  N   UNL     1       6.443   3.235   0.646  0.00  0.00    +0.000 NA
ATOM      5  C   UNL     1       7.310   2.556  -0.120  0.00  0.00    +0.000 A 
ATOM      6  C   UNL     1       6.899   1.494  -0.903  0.00  0.00    +0.000 A 
ATOM      7  N   UNL     1       5.591   1.130  -0.939  0.00  0.00    +0.000 NA
ATOM      8  H   UNL     1       2.972   2.024   0.618  0.00  0.00    +0.000 HD
ENDROOT
BRANCH   6   9
ATOM      9  C   UNL     1       7.830   0.712  -1.745  0.00  0.00    +0.000 A 
ATOM     10  C   UNL     1       9.196   0.590  -1.438  0.00  0.00    +0.000 A 
ATOM     11  C   UNL     1      10.025  -0.144  -2.274  0.00  0.00    +0.000 A 
ATOM     12  N   UNL     1       9.599  -0.767  -3.388  0.00  0.00    +0.000 NA
ATOM     13  C   UNL     1       8.289  -0.658  -3.676  0.00  0.00    +0.000 A 
ATOM     14  C   UNL     1       7.384   0.054  -2.901  0.00  0.00    +0.000 A 
ENDBRANCH   6   9
BRANCH   1  15
ATOM     15  C   UNL     1       2.990   0.210  -0.413  0.00  0.00    +0.000 C 
BRANCH  15  18
ATOM     16  C   UNL     1      -0.685   0.680  -1.239  0.00  0.00    +0.000 A 
ATOM     17  C   UNL     1       0.695   0.799  -1.306  0.00  0.00    +0.000 A 
ATOM     18  C   UNL     1       1.480   0.111  -0.374  0.00  0.00    +0.000 A 
ATOM     19  C   UNL     1       0.829  -0.668   0.588  0.00  0.00    +0.000 A 
ATOM     20  C   UNL     1      -0.558  -0.727   0.572  0.00  0.00    +0.000 A 
ATOM     21  N   UNL     1      -1.328  -0.071  -0.320  0.00  0.00    +0.000 NA
ENDBRANCH  15  18
ENDBRANCH   1  15
TORSDOF 3
