REMARK  Name = 
REMARK  2 active torsions:
REMARK  status: ('A' for Active; 'I' for Inactive)
REMARK    1  A    between atoms: N_9  and  C_10
REMARK    2  A    between atoms: C_10  and  C_11
REMARK                            x       y       z     vdW  Elec       q    Type
REMARK                         _______ _______ _______ _____ _____    ______ ____
ROOT
ATOM      1  N   UNL     1       1.322  -0.481   0.019  0.00  0.00    +0.000 N 
ATOM      2  C   UNL     1       2.376   0.358   0.137  0.00  0.00    +0.000 C 
ATOM      3  O   UNL     1       2.726   0.992  -0.853  0.00  0.00    +0.000 OA
ATOM      4  N   UNL     1       3.008   0.403   1.360  0.00  0.00    +0.000 N 
ATOM      5  C   UNL     1       2.753  -0.531   2.499  0.00  0.00    +0.000 C 
ATOM      6  C   UNL     1       3.856  -1.619   2.746  0.00  0.00    +0.000 C 
ATOM      7  C   UNL     1       5.028  -1.350   1.849  0.00  0.00    +0.000 C 
ATOM      8  C   UNL     1       5.957  -1.945   0.937  0.00  0.00    +0.000 C 
ATOM      9  N   UNL     1       6.129  -0.718   0.362  0.00  0.00    +0.000 N 
ATOM     10  C   UNL     1       5.283  -0.189   1.217  0.00  0.00    +0.000 C 
ATOM     11  C   UNL     1       4.348   1.024   1.336  0.00  0.00    +0.000 C 
ATOM     12  H   UNL     1       0.877  -0.410  -0.884  0.00  0.00    +0.000 HD
ATOM     13  H   UNL     1       0.673  -0.521   0.789  0.00  0.00    +0.000 HD
ENDROOT
BRANCH   9  14
ATOM     14  C   UNL     1       6.005  -0.465  -1.074  0.00  0.00    +0.000 C 
BRANCH  14  15
ATOM     15  C   UNL     1       7.343  -0.601  -1.820  0.00  0.00    +0.000 C 
ATOM     16  C   UNL     1       8.371   0.421  -1.305  0.00  0.00    +0.000 C 
ATOM     17  C   UNL     1       9.556   0.571  -2.247  0.00  0.00    +0.000 C 
ATOM     18  O   UNL     1       9.115   0.877  -3.567  0.00  0.00    +0.000 OA
ATOM     19  C   UNL     1       8.355  -0.191  -4.124  0.00  0.00    +0.000 C 
ATOM     20  C   UNL     1       7.082  -0.417  -3.326  0.00  0.00    +0.000 C 
ENDBRANCH  14  15
ENDBRANCH   9  14
TORSDOF 2
