REMARK  Name = 
REMARK  10 active torsions:
REMARK  status: ('A' for Active; 'I' for Inactive)
REMARK    1  A    between atoms: C_1  and  C_2
REMARK    2  A    between atoms: C_5  and  C_6
REMARK    3  A    between atoms: C_10  and  C_11
REMARK    4  A    between atoms: C_11  and  C_12
REMARK    5  A    between atoms: C_11  and  C_13
REMARK    6  A    between atoms: C_11  and  C_14
REMARK    7  A    between atoms: C_14  and  N_15
REMARK    8  A    between atoms: N_15  and  C_16
REMARK    9  A    between atoms: C_19  and  C_20
REMARK   10  A    between atoms: C_21  and  C_22
REMARK                            x       y       z     vdW  Elec       q    Type
REMARK                         _______ _______ _______ _____ _____    ______ ____
ROOT
ATOM      1  C   UNL     1      -6.167  -1.169   1.948  0.00  0.00    +0.000 C 
ATOM      2  C   UNL     1      -7.068  -0.091   2.590  0.00  0.00    +0.000 C 
ATOM      3  C   UNL     1      -7.027  -2.300   1.342  0.00  0.00    +0.000 C 
ENDROOT
BRANCH   1   8
ATOM      4  C   UNL     1      -3.295   0.065  -0.093  0.00  0.00    +0.000 A 
ATOM      5  C   UNL     1      -3.968   0.651  -1.163  0.00  0.00    +0.000 A 
ATOM      6  N   UNL     1      -5.313   0.673  -1.278  0.00  0.00    +0.000 NA
ATOM      7  C   UNL     1      -5.978   0.084  -0.263  0.00  0.00    +0.000 A 
ATOM      8  C   UNL     1      -5.347  -0.523   0.825  0.00  0.00    +0.000 A 
ATOM      9  N   UNL     1      -3.990  -0.541   0.908  0.00  0.00    +0.000 NA
BRANCH   4  14
ATOM     10  C   UNL     1       2.505  -0.033   0.081  0.00  0.00    +0.000 C 
ATOM     11  C   UNL     1       1.007   0.015   0.073  0.00  0.00    +0.000 A 
ATOM     12  C   UNL     1       0.333   1.093  -0.503  0.00  0.00    +0.000 A 
ATOM     13  C   UNL     1      -1.061   1.116  -0.532  0.00  0.00    +0.000 A 
ATOM     14  C   UNL     1      -1.826   0.063   0.003  0.00  0.00    +0.000 A 
ATOM     15  C   UNL     1      -1.135  -0.998   0.607  0.00  0.00    +0.000 A 
ATOM     16  C   UNL     1       0.264  -1.026   0.637  0.00  0.00    +0.000 A 
ENDBRANCH   4  14
ENDBRANCH   1   8
BRANCH   1  17
ATOM     17  C   UNL     1      -5.227  -1.757   3.042  0.00  0.00    +0.000 C 
BRANCH  17  18
ATOM     18  N   UNL     1      -5.971  -2.349   4.156  0.00  0.00    +0.000 N 
ATOM     19  H   UNL     1      -6.956  -2.547   4.022  0.00  0.00    +0.000 HD
BRANCH  18  20
ATOM     20  C   UNL     1      -5.355  -2.995   5.215  0.00  0.00    +0.000 A 
ATOM     21  C   UNL     1      -3.982  -3.017   5.420  0.00  0.00    +0.000 A 
ATOM     22  C   UNL     1      -3.441  -3.608   6.569  0.00  0.00    +0.000 A 
ATOM     23  C   UNL     1      -4.299  -4.164   7.511  0.00  0.00    +0.000 A 
ATOM     24  N   UNL     1      -5.638  -4.172   7.340  0.00  0.00    +0.000 NA
ATOM     25  C   UNL     1      -6.121  -3.590   6.219  0.00  0.00    +0.000 A 
BRANCH  23  26
ATOM     26  C   UNL     1      -3.799  -4.767   8.759  0.00  0.00    +0.000 C 
ATOM     27  C   UNL     1      -4.622  -5.294   9.681  0.00  0.00    +0.000 C 
BRANCH  27  28
ATOM     28  C   UNL     1      -4.112  -5.894  10.931  0.00  0.00    +0.000 C 
ATOM     29  N   UNL     1      -5.086  -6.389  11.747  0.00  0.00    +0.000 N 
ATOM     30  O   UNL     1      -2.928  -5.952  11.227  0.00  0.00    +0.000 OA
ATOM     31  H   UNL     1      -6.074  -6.361  11.543  0.00  0.00    +0.000 HD
ATOM     32  H   UNL     1      -4.788  -6.812  12.617  0.00  0.00    +0.000 HD
ENDBRANCH  27  28
ENDBRANCH  23  26
ENDBRANCH  18  20
ENDBRANCH  17  18
ENDBRANCH   1  17
TORSDOF 7
