REMARK  Name = 
REMARK  3 active torsions:
REMARK  status: ('A' for Active; 'I' for Inactive)
REMARK    1  A    between atoms: C_2  and  C_5
REMARK    2  A    between atoms: C_7  and  C_8
REMARK    3  A    between atoms: C_12  and  N_13
REMARK                            x       y       z     vdW  Elec       q    Type
REMARK                         _______ _______ _______ _____ _____    ______ ____
ROOT
ATOM      1  C   UNL     1       4.732  -2.086   3.941  0.00  0.00    +0.000 A 
ATOM      2  C   UNL     1       4.389  -1.319   5.045  0.00  0.00    +0.000 A 
ATOM      3  N   UNL     1       5.179  -1.210   6.141  0.00  0.00    +0.000 NA
ATOM      4  C   UNL     1       6.334  -1.920   6.093  0.00  0.00    +0.000 A 
ATOM      5  C   UNL     1       6.693  -2.739   5.024  0.00  0.00    +0.000 A 
ATOM      6  N   UNL     1       5.890  -2.788   3.937  0.00  0.00    +0.000 NA
ENDROOT
BRANCH   5   7
ATOM      7  N   UNL     1       7.889  -3.477   5.050  0.00  0.00    +0.000 N 
ATOM      8  C   UNL     1       8.169  -4.644   4.327  0.00  0.00    +0.000 A 
ATOM      9  C   UNL     1       7.640  -4.912   3.064  0.00  0.00    +0.000 A 
ATOM     10  C   UNL     1       7.835  -6.158   2.473  0.00  0.00    +0.000 A 
ATOM     11  C   UNL     1       8.613  -7.094   3.132  0.00  0.00    +0.000 A 
ATOM     12 CL   UNL     1       8.854  -8.655   2.467  0.00  0.00    +0.000 Cl
ATOM     13  C   UNL     1       9.175  -6.730   4.344  0.00  0.00    +0.000 A 
ATOM     14  N   UNL     1       8.967  -5.534   4.953  0.00  0.00    +0.000 NA
ATOM     15  H   UNL     1       8.284  -3.609   5.975  0.00  0.00    +0.000 HD
ENDBRANCH   5   7
BRANCH   1  18
ATOM     16  C   UNL     1       3.759  -2.549   0.307  0.00  0.00    +0.000 A 
ATOM     17  C   UNL     1       4.531  -2.404   1.462  0.00  0.00    +0.000 A 
ATOM     18  C   UNL     1       3.918  -2.218   2.717  0.00  0.00    +0.000 A 
ATOM     19  C   UNL     1       2.522  -2.197   2.747  0.00  0.00    +0.000 A 
ATOM     20  C   UNL     1       1.818  -2.347   1.563  0.00  0.00    +0.000 A 
ATOM     21  N   UNL     1       2.399  -2.514   0.359  0.00  0.00    +0.000 NA
BRANCH  16  23
ATOM     22  F   UNL     1       5.799  -2.791  -0.969  0.00  0.00    +0.000 F 
ATOM     23  C   UNL     1       4.434  -2.749  -1.045  0.00  0.00    +0.000 C 
ATOM     24  F   UNL     1       4.154  -1.752  -1.934  0.00  0.00    +0.000 F 
ATOM     25  F   UNL     1       4.073  -3.913  -1.658  0.00  0.00    +0.000 F 
ENDBRANCH  16  23
ENDBRANCH   1  18
TORSDOF 3
