REMARK  Name = 
REMARK  8 active torsions:
REMARK  status: ('A' for Active; 'I' for Inactive)
REMARK    1  A    between atoms: C_1  and  C_2
REMARK    2  A    between atoms: C_5  and  C_6
REMARK    3  A    between atoms: C_6  and  N_7
REMARK    4  A    between atoms: N_7  and  C_8
REMARK    5  A    between atoms: C_8  and  C_9
REMARK    6  A    between atoms: C_12  and  C_13
REMARK    7  A    between atoms: C_13  and  N_14
REMARK    8  A    between atoms: C_15  and  C_17
REMARK                            x       y       z     vdW  Elec       q    Type
REMARK                         _______ _______ _______ _____ _____    ______ ____
ROOT
ATOM      1  C   UNL     1      -6.017  -2.434  -0.025  0.00  0.00    +0.000 A 
ATOM      2  C   UNL     1      -7.403  -2.584  -0.063  0.00  0.00    +0.000 A 
ATOM      3  C   UNL     1      -7.960  -3.859  -0.086  0.00  0.00    +0.000 A 
ATOM      4  C   UNL     1      -7.114  -4.964  -0.084  0.00  0.00    +0.000 A 
ATOM      5  N   UNL     1      -5.762  -4.845  -0.028  0.00  0.00    +0.000 NA
ATOM      6  C   UNL     1      -5.249  -3.593   0.000  0.00  0.00    +0.000 A 
ENDROOT
BRANCH   1   7
ATOM      7  C   UNL     1      -5.382  -1.071  -0.045  0.00  0.00    +0.000 C 
BRANCH   7   8
ATOM      8  N   UNL     1      -4.487  -0.858  -1.183  0.00  0.00    +0.000 NA
ATOM      9  H   UNL     1      -4.086   0.078  -1.111  0.00  0.00    +0.000 HD
BRANCH   8  10
ATOM     10  C   UNL     1      -5.180  -0.959  -2.471  0.00  0.00    +0.000 C 
BRANCH  10  15
ATOM     11  C   UNL     1      -1.684   0.130  -6.911  0.00  0.00    +0.000 C 
ATOM     12  C   UNL     1      -2.561  -0.189  -5.739  0.00  0.00    +0.000 A 
ATOM     13  C   UNL     1      -2.250  -1.237  -4.879  0.00  0.00    +0.000 A 
ATOM     14  C   UNL     1      -3.099  -1.497  -3.808  0.00  0.00    +0.000 A 
ATOM     15  C   UNL     1      -4.232  -0.706  -3.609  0.00  0.00    +0.000 A 
ATOM     16  C   UNL     1      -4.462   0.313  -4.525  0.00  0.00    +0.000 A 
ATOM     17  N   UNL     1      -3.658   0.588  -5.576  0.00  0.00    +0.000 NA
ENDBRANCH  10  15
ENDBRANCH   8  10
ENDBRANCH   7   8
ENDBRANCH   1   7
BRANCH   4  18
ATOM     18  C   UNL     1      -7.687  -6.358  -0.137  0.00  0.00    +0.000 C 
BRANCH  18  19
ATOM     19  N   UNL     1      -7.922  -6.908   1.178  0.00  0.00    +0.000 N 
ATOM     20  C   UNL     1      -9.140  -6.859   1.798  0.00  0.00    +0.000 C 
ATOM     21  O   UNL     1     -10.123  -6.343   1.272  0.00  0.00    +0.000 OA
ATOM     22  H   UNL     1      -7.086  -7.109   1.719  0.00  0.00    +0.000 HD
BRANCH  20  23
ATOM     23  C   UNL     1      -9.227  -7.522   3.105  0.00  0.00    +0.000 A 
ATOM     24  C   UNL     1     -10.452  -7.996   3.557  0.00  0.00    +0.000 A 
ATOM     25  S   UNL     1     -10.370  -8.761   5.079  0.00  0.00    +0.000 S 
ATOM     26  C   UNL     1      -8.699  -8.458   5.204  0.00  0.00    +0.000 A 
ATOM     27  N   UNL     1      -7.998  -8.843   6.303  0.00  0.00    +0.000 NA
ATOM     28  C   UNL     1      -6.744  -8.532   6.271  0.00  0.00    +0.000 A 
ATOM     29  N   UNL     1      -6.129  -7.878   5.236  0.00  0.00    +0.000 N 
ATOM     30  C   UNL     1      -6.787  -7.510   4.086  0.00  0.00    +0.000 A 
ATOM     31  O   UNL     1      -6.186  -7.012   3.143  0.00  0.00    +0.000 OA
ATOM     32  C   UNL     1      -8.207  -7.807   4.086  0.00  0.00    +0.000 A 
ATOM     33  H   UNL     1      -5.138  -7.686   5.259  0.00  0.00    +0.000 HD
ENDBRANCH  20  23
ENDBRANCH  18  19
ENDBRANCH   4  18
TORSDOF 7
