REMARK  Name = 
REMARK  5 active torsions:
REMARK  status: ('A' for Active; 'I' for Inactive)
REMARK    1  A    between atoms: C_1  and  O_2
REMARK    2  A    between atoms: O_2  and  C_3
REMARK    3  A    between atoms: N_7  and  C_8
REMARK    4  A    between atoms: C_8  and  C_9
REMARK    5  A    between atoms: C_13  and  C_14
REMARK                            x       y       z     vdW  Elec       q    Type
REMARK                         _______ _______ _______ _____ _____    ______ ____
ROOT
ATOM      1  C   UNL     1       6.103   3.510   6.019  0.00  0.00    +0.000 A 
ATOM      2  C   UNL     1       6.513   4.786   5.652  0.00  0.00    +0.000 A 
ATOM      3  N   UNL     1       7.443   5.483   6.344  0.00  0.00    +0.000 NA
ATOM      4  C   UNL     1       7.974   4.839   7.410  0.00  0.00    +0.000 A 
ATOM      5  C   UNL     1       7.593   3.557   7.802  0.00  0.00    +0.000 A 
ATOM      6  N   UNL     1       6.629   2.888   7.112  0.00  0.00    +0.000 NA
ENDROOT
BRANCH   5   7
ATOM      7  C   UNL     1       8.177   2.846   8.940  0.00  0.00    +0.000 A 
ATOM      8  C   UNL     1       7.479   1.892   9.662  0.00  0.00    +0.000 A 
ATOM      9  N   UNL     1       7.970   1.211  10.724  0.00  0.00    +0.000 NA
ATOM     10  C   UNL     1       9.231   1.502  11.067  0.00  0.00    +0.000 A 
ATOM     11  N   UNL     1      10.022   2.390  10.451  0.00  0.00    +0.000 NA
ATOM     12  C   UNL     1       9.472   3.036   9.398  0.00  0.00    +0.000 A 
ENDBRANCH   5   7
BRANCH   1  13
ATOM     13  C   UNL     1       5.092   2.760   5.176  0.00  0.00    +0.000 C 
BRANCH  13  18
ATOM     14  C   UNL     1       7.802  -0.655   2.495  0.00  0.00    +0.000 A 
ATOM     15  C   UNL     1       7.905  -0.285   3.827  0.00  0.00    +0.000 A 
ATOM     16  C   UNL     1       7.153   0.792   4.301  0.00  0.00    +0.000 A 
ATOM     17  C   UNL     1       6.292   1.471   3.449  0.00  0.00    +0.000 A 
ATOM     18  N   UNL     1       5.564   2.584   3.813  0.00  0.00    +0.000 N 
ATOM     19  N   UNL     1       6.158   1.106   2.159  0.00  0.00    +0.000 NA
ATOM     20  C   UNL     1       6.911   0.066   1.716  0.00  0.00    +0.000 A 
ATOM     21  H   UNL     1       4.897   2.771   3.070  0.00  0.00    +0.000 HD
BRANCH  14  23
ATOM     22  C   UNL     1       9.466  -2.333   2.673  0.00  0.00    +0.000 C 
ATOM     23  O   UNL     1       8.497  -1.654   1.880  0.00  0.00    +0.000 OA
ENDBRANCH  14  23
ENDBRANCH  13  18
ENDBRANCH   1  13
TORSDOF 4
