REMARK  Name = 
REMARK  7 active torsions:
REMARK  status: ('A' for Active; 'I' for Inactive)
REMARK    1  A    between atoms: C_1  and  S_2
REMARK    2  A    between atoms: S_2  and  C_5
REMARK    3  A    between atoms: C_8  and  C_9
REMARK    4  A    between atoms: C_13  and  C_14
REMARK    5  A    between atoms: C_14  and  C_15
REMARK    6  A    between atoms: C_15  and  C_16
REMARK    7  A    between atoms: C_20  and  C_21
REMARK                            x       y       z     vdW  Elec       q    Type
REMARK                         _______ _______ _______ _____ _____    ______ ____
ROOT
ATOM      1  C   UNL     1       4.391   5.440   1.885  0.00  0.00    +0.000 A 
ATOM      2  C   UNL     1       5.696   5.852   2.158  0.00  0.00    +0.000 A 
ATOM      3  N   UNL     1       6.041   7.062   2.661  0.00  0.00    +0.000 NA
ATOM      4  C   UNL     1       5.035   7.930   2.902  0.00  0.00    +0.000 A 
ATOM      5  C   UNL     1       3.692   7.650   2.681  0.00  0.00    +0.000 A 
ATOM      6  C   UNL     1       3.391   6.386   2.158  0.00  0.00    +0.000 A 
ENDROOT
BRANCH   1  10
ATOM      7  C   UNL     1       3.421   1.557   0.318  0.00  0.00    +0.000 A 
ATOM      8  C   UNL     1       4.512   1.703   1.173  0.00  0.00    +0.000 A 
ATOM      9  C   UNL     1       4.821   2.967   1.686  0.00  0.00    +0.000 A 
ATOM     10  C   UNL     1       4.066   4.104   1.342  0.00  0.00    +0.000 A 
ATOM     11  C   UNL     1       2.978   3.919   0.464  0.00  0.00    +0.000 A 
ATOM     12  C   UNL     1       2.651   2.659  -0.044  0.00  0.00    +0.000 A 
BRANCH   7  14
ATOM     13  C   UNL     1       1.934  -0.736   0.825  0.00  0.00    +0.000 C 
ATOM     14  S   UNL     1       3.046  -0.037  -0.366  0.00  0.00    +0.000 S 
ATOM     15  O   UNL     1       4.270  -0.815  -0.354  0.00  0.00    +0.000 OA
ATOM     16  O   UNL     1       2.311   0.177  -1.598  0.00  0.00    +0.000 OA
ENDBRANCH   7  14
ENDBRANCH   1  10
BRANCH   5  17
ATOM     17  C   UNL     1       2.641   8.706   2.930  0.00  0.00    +0.000 C 
BRANCH  17  18
ATOM     18  C   UNL     1       1.264   8.161   3.336  0.00  0.00    +0.000 C 
BRANCH  18  19
ATOM     19  C   UNL     1       0.262   9.249   3.596  0.00  0.00    +0.000 A 
ATOM     20  C   UNL     1       0.067   9.763   4.872  0.00  0.00    +0.000 A 
ATOM     21  N   UNL     1      -0.833  10.726   5.167  0.00  0.00    +0.000 NA
ATOM     22  C   UNL     1      -1.577  11.206   4.139  0.00  0.00    +0.000 A 
ATOM     23  C   UNL     1      -1.459  10.779   2.825  0.00  0.00    +0.000 A 
ATOM     24  C   UNL     1      -0.516   9.782   2.558  0.00  0.00    +0.000 A 
BRANCH  23  25
ATOM     25  C   UNL     1      -2.272  11.318   1.706  0.00  0.00    +0.000 C 
ATOM     26  N   UNL     1      -3.190  12.298   1.963  0.00  0.00    +0.000 N 
ATOM     27  O   UNL     1      -2.129  10.899   0.563  0.00  0.00    +0.000 OA
ATOM     28  H   UNL     1      -3.385  12.713   2.860  0.00  0.00    +0.000 HD
ATOM     29  H   UNL     1      -3.715  12.643   1.169  0.00  0.00    +0.000 HD
ENDBRANCH  23  25
ENDBRANCH  18  19
ENDBRANCH  17  18
ENDBRANCH   5  17
TORSDOF 6
