REMARK  Name = 
REMARK  6 active torsions:
REMARK  status: ('A' for Active; 'I' for Inactive)
REMARK    1  A    between atoms: C_2  and  C_4
REMARK    2  A    between atoms: N_8  and  C_9
REMARK    3  A    between atoms: C_9  and  C_10
REMARK    4  A    between atoms: C_13  and  O_14
REMARK    5  A    between atoms: O_14  and  C_15
REMARK    6  A    between atoms: C_15  and  C_16
REMARK                            x       y       z     vdW  Elec       q    Type
REMARK                         _______ _______ _______ _____ _____    ______ ____
ROOT
ATOM      1  C   UNL     1       3.708   3.775   0.067  0.00  0.00    +0.000 A 
ATOM      2  C   UNL     1       2.928   3.854   1.217  0.00  0.00    +0.000 A 
ATOM      3  C   UNL     1       3.500   3.549   2.454  0.00  0.00    +0.000 A 
ATOM      4  C   UNL     1       4.833   3.161   2.521  0.00  0.00    +0.000 A 
ATOM      5  N   UNL     1       5.454   2.739   3.698  0.00  0.00    +0.000 N 
ATOM      6  N   UNL     1       5.597   3.076   1.410  0.00  0.00    +0.000 NA
ATOM      7  C   UNL     1       5.026   3.378   0.214  0.00  0.00    +0.000 A 
ATOM      8  H   UNL     1       6.428   2.570   3.455  0.00  0.00    +0.000 HD
ENDROOT
BRANCH   1  10
ATOM      9  N   UNL     1       2.084   4.859  -1.381  0.00  0.00    +0.000 N 
ATOM     10  C   UNL     1       3.181   4.048  -1.285  0.00  0.00    +0.000 C 
ATOM     11  O   UNL     1       3.717   3.590  -2.287  0.00  0.00    +0.000 OA
ATOM     12  H   UNL     1       1.781   5.102  -2.316  0.00  0.00    +0.000 HD
ATOM     13  H   UNL     1       1.761   5.440  -0.621  0.00  0.00    +0.000 HD
ENDBRANCH   1  10
BRANCH   5  14
ATOM     14  C   UNL     1       5.174   3.254   5.044  0.00  0.00    +0.000 C 
ATOM     15  C   UNL     1       5.043   2.177   6.120  0.00  0.00    +0.000 C 
ATOM     16  C   UNL     1       3.862   3.017   5.773  0.00  0.00    +0.000 C 
BRANCH  14  17
ATOM     17  C   UNL     1       5.951   4.512   5.410  0.00  0.00    +0.000 A 
ATOM     18  C   UNL     1       5.445   5.801   5.191  0.00  0.00    +0.000 A 
ATOM     19  C   UNL     1       6.149   6.924   5.626  0.00  0.00    +0.000 A 
ATOM     20  C   UNL     1       7.371   6.733   6.245  0.00  0.00    +0.000 A 
ATOM     21  N   UNL     1       7.921   5.521   6.449  0.00  0.00    +0.000 NA
ATOM     22  C   UNL     1       7.204   4.455   6.025  0.00  0.00    +0.000 A 
BRANCH  20  23
ATOM     23  O   UNL     1       8.008   7.852   6.738  0.00  0.00    +0.000 OA
BRANCH  23  24
ATOM     24  C   UNL     1       9.420   7.655   6.867  0.00  0.00    +0.000 C 
BRANCH  24  25
ATOM     25  C   UNL     1      10.038   8.884   7.511  0.00  0.00    +0.000 C 
ATOM     26  F   UNL     1       9.862   9.965   6.703  0.00  0.00    +0.000 F 
ENDBRANCH  24  25
ENDBRANCH  23  24
ENDBRANCH  20  23
ENDBRANCH  14  17
ENDBRANCH   5  14
TORSDOF 6
