REMARK  Name = 
REMARK  10 active torsions:
REMARK  status: ('A' for Active; 'I' for Inactive)
REMARK    1  A    between atoms: C_1  and  C_2
REMARK    2  A    between atoms: C_2  and  N_3
REMARK    3  A    between atoms: C_2  and  C_20
REMARK    4  A    between atoms: N_3  and  C_4
REMARK    5  A    between atoms: C_4  and  C_5
REMARK    6  A    between atoms: C_9  and  C_10
REMARK    7  A    between atoms: C_10  and  N_11
REMARK    8  A    between atoms: N_11  and  C_12
REMARK    9  A    between atoms: C_12  and  C_13
REMARK   10  A    between atoms: C_13  and  C_14
REMARK                            x       y       z     vdW  Elec       q    Type
REMARK                         _______ _______ _______ _____ _____    ______ ____
ROOT
ATOM      1  C   UNL     1      -1.043  -0.945  -1.103  0.00  0.00    +0.000 A 
ATOM      2  C   UNL     1      -1.669  -2.073  -1.624  0.00  0.00    +0.000 A 
ATOM      3  C   UNL     1      -3.059  -2.104  -1.673  0.00  0.00    +0.000 A 
ATOM      4  C   UNL     1      -3.786  -1.018  -1.194  0.00  0.00    +0.000 A 
ATOM      5  C   UNL     1      -3.101   0.083  -0.686  0.00  0.00    +0.000 A 
ATOM      6  N   UNL     1      -1.745   0.123  -0.646  0.00  0.00    +0.000 NA
ENDROOT
BRANCH   1   7
ATOM      7  C   UNL     1       0.472  -0.833  -1.114  0.00  0.00    +0.000 C 
BRANCH   7   8
ATOM      8  N   UNL     1       1.061  -0.684   0.221  0.00  0.00    +0.000 NA
ATOM      9  H   UNL     1       0.768  -1.464   0.806  0.00  0.00    +0.000 HD
BRANCH   8  11
ATOM     10  C   UNL     1       3.042   0.540  -0.688  0.00  0.00    +0.000 C 
ATOM     11  C   UNL     1       2.525  -0.601   0.205  0.00  0.00    +0.000 C 
BRANCH  11  12
ATOM     12  C   UNL     1       2.979  -0.386   1.637  0.00  0.00    +0.000 A 
ATOM     13  C   UNL     1       2.587   0.694   2.415  0.00  0.00    +0.000 A 
ATOM     14  S   UNL     1       3.325   0.734   3.951  0.00  0.00    +0.000 S 
ATOM     15  C   UNL     1       4.173  -0.708   3.646  0.00  0.00    +0.000 A 
ATOM     16  N   UNL     1       5.023  -1.230   4.572  0.00  0.00    +0.000 NA
ATOM     17  C   UNL     1       5.596  -2.328   4.208  0.00  0.00    +0.000 A 
ATOM     18  N   UNL     1       5.387  -2.957   3.005  0.00  0.00    +0.000 N 
ATOM     19  C   UNL     1       4.534  -2.472   2.040  0.00  0.00    +0.000 A 
ATOM     20  O   UNL     1       4.352  -3.080   0.989  0.00  0.00    +0.000 OA
ATOM     21  C   UNL     1       3.885  -1.223   2.394  0.00  0.00    +0.000 A 
ATOM     22  H   UNL     1       5.855  -3.828   2.794  0.00  0.00    +0.000 HD
ENDBRANCH  11  12
ENDBRANCH   8  11
ENDBRANCH   7   8
ENDBRANCH   1   7
BRANCH   5  23
ATOM     23  C   UNL     1      -3.879   1.262  -0.113  0.00  0.00    +0.000 C 
BRANCH  23  24
ATOM     24  N   UNL     1      -3.157   2.540  -0.207  0.00  0.00    +0.000 NA
ATOM     25  H   UNL     1      -2.863   2.664  -1.173  0.00  0.00    +0.000 HD
BRANCH  24  26
ATOM     26  C   UNL     1      -3.958   3.663   0.277  0.00  0.00    +0.000 C 
BRANCH  26  27
ATOM     27  C   UNL     1      -3.267   5.044   0.141  0.00  0.00    +0.000 C 
ATOM     28  C   UNL     1      -2.990   5.385  -1.330  0.00  0.00    +0.000 C 
ATOM     29  C   UNL     1      -2.034   5.174   1.013  0.00  0.00    +0.000 C 
ATOM     30  C   UNL     1      -2.034   6.625   1.431  0.00  0.00    +0.000 C 
ATOM     31  N   UNL     1      -3.378   7.148   1.201  0.00  0.00    +0.000 NA
ATOM     32  O   UNL     1      -4.168   6.040   0.659  0.00  0.00    +0.000 OA
ATOM     33  H   UNL     1      -3.376   7.798   0.412  0.00  0.00    +0.000 HD
ENDBRANCH  26  27
ENDBRANCH  24  26
ENDBRANCH  23  24
ENDBRANCH   5  23
TORSDOF 8
