REMARK  Name = 
REMARK  7 active torsions:
REMARK  status: ('A' for Active; 'I' for Inactive)
REMARK    1  A    between atoms: C_1  and  C_2
REMARK    2  A    between atoms: C_2  and  N_3
REMARK    3  A    between atoms: C_2  and  C_16
REMARK    4  A    between atoms: C_4  and  C_6
REMARK    5  A    between atoms: C_19  and  C_20
REMARK    6  A    between atoms: C_20  and  N_21
REMARK    7  A    between atoms: C_22  and  C_24
REMARK                            x       y       z     vdW  Elec       q    Type
REMARK                         _______ _______ _______ _____ _____    ______ ____
ROOT
ATOM      1  C   UNL     1       0.156   2.611 -12.756  0.00  0.00    +0.000 A 
ATOM      2  C   UNL     1       0.620   2.704 -11.440  0.00  0.00    +0.000 A 
ATOM      3  C   UNL     1       1.740   1.974 -11.039  0.00  0.00    +0.000 A 
ATOM      4  C   UNL     1       2.385   1.163 -11.968  0.00  0.00    +0.000 A 
ATOM      5  N   UNL     1       1.947   1.037 -13.246  0.00  0.00    +0.000 NA
ATOM      6  C   UNL     1       0.868   1.772 -13.610  0.00  0.00    +0.000 A 
ENDROOT
BRANCH   1   8
ATOM      7  C   UNL     1      -0.439   4.776 -13.802  0.00  0.00    +0.000 C 
ATOM      8  C   UNL     1      -1.002   3.466 -13.234  0.00  0.00    +0.000 C 
BRANCH   8   9
ATOM      9  N   UNL     1      -1.844   2.754 -14.191  0.00  0.00    +0.000 N 
ATOM     10  C   UNL     1      -2.984   3.319 -14.713  0.00  0.00    +0.000 C 
ATOM     11  O   UNL     1      -3.338   4.464 -14.441  0.00  0.00    +0.000 OA
ATOM     12  H   UNL     1      -1.810   1.739 -14.166  0.00  0.00    +0.000 HD
BRANCH  10  13
ATOM     13  C   UNL     1      -3.750   2.513 -15.667  0.00  0.00    +0.000 A 
ATOM     14  C   UNL     1      -4.494   3.150 -16.652  0.00  0.00    +0.000 A 
ATOM     15  S   UNL     1      -5.363   2.080 -17.653  0.00  0.00    +0.000 S 
ATOM     16  C   UNL     1      -4.801   0.729 -16.785  0.00  0.00    +0.000 A 
ATOM     17  N   UNL     1      -5.223  -0.524 -17.096  0.00  0.00    +0.000 NA
ATOM     18  C   UNL     1      -4.741  -1.453 -16.335  0.00  0.00    +0.000 A 
ATOM     19  N   UNL     1      -3.855  -1.239 -15.310  0.00  0.00    +0.000 N 
ATOM     20  C   UNL     1      -3.364   0.005 -14.993  0.00  0.00    +0.000 A 
ATOM     21  O   UNL     1      -2.505   0.162 -14.131  0.00  0.00    +0.000 OA
ATOM     22  C   UNL     1      -3.919   1.087 -15.780  0.00  0.00    +0.000 A 
ATOM     23  H   UNL     1      -3.491  -2.015 -14.777  0.00  0.00    +0.000 HD
ENDBRANCH  10  13
ENDBRANCH   8   9
ENDBRANCH   1   8
BRANCH   4  24
ATOM     24  C   UNL     1       3.628   0.390 -11.589  0.00  0.00    +0.000 C 
BRANCH  24  25
ATOM     25  N   UNL     1       3.339  -0.934 -11.079  0.00  0.00    +0.000 N 
ATOM     26  C   UNL     1       3.181  -1.167  -9.731  0.00  0.00    +0.000 C 
ATOM     27  O   UNL     1       3.337  -0.273  -8.899  0.00  0.00    +0.000 OA
ATOM     28  H   UNL     1       2.916  -1.582 -11.726  0.00  0.00    +0.000 HD
BRANCH  26  29
ATOM     29  C   UNL     1       2.910  -2.638  -9.323  0.00  0.00    +0.000 C 
ATOM     30  C   UNL     1       2.071  -2.711  -8.042  0.00  0.00    +0.000 C 
ATOM     31  C   UNL     1       0.628  -2.288  -8.309  0.00  0.00    +0.000 C 
ATOM     32  C   UNL     1       0.031  -3.115  -9.444  0.00  0.00    +0.000 C 
ATOM     33  C   UNL     1       0.917  -3.106 -10.688  0.00  0.00    +0.000 C 
ATOM     34  N   UNL     1       2.298  -3.465 -10.386  0.00  0.00    +0.000 NA
ATOM     35  H   UNL     1       2.888  -3.501 -11.213  0.00  0.00    +0.000 HD
ENDBRANCH  26  29
ENDBRANCH  24  25
ENDBRANCH   4  24
TORSDOF 6
