REMARK  Name = 
REMARK  9 active torsions:
REMARK  status: ('A' for Active; 'I' for Inactive)
REMARK    1  A    between atoms: N_1  and  C_2
REMARK    2  A    between atoms: C_2  and  C_3
REMARK    3  A    between atoms: C_3  and  C_4
REMARK    4  A    between atoms: C_4  and  N_5
REMARK    5  A    between atoms: C_4  and  C_18
REMARK    6  A    between atoms: C_6  and  C_8
REMARK    7  A    between atoms: C_21  and  O_22
REMARK    8  A    between atoms: O_22  and  C_23
REMARK    9  A    between atoms: C_23  and  C_24
REMARK                            x       y       z     vdW  Elec       q    Type
REMARK                         _______ _______ _______ _____ _____    ______ ____
ROOT
ATOM      1  C   UNL     1       4.435  -0.500   1.273  0.00  0.00    +0.000 C 
ENDROOT
BRANCH   1   2
ATOM      2  C   UNL     1       5.005  -0.856   2.639  0.00  0.00    +0.000 A 
ATOM      3  C   UNL     1       5.834  -1.971   2.830  0.00  0.00    +0.000 A 
ATOM      4  C   UNL     1       6.358  -2.249   4.098  0.00  0.00    +0.000 A 
ATOM      5  C   UNL     1       6.072  -1.409   5.176  0.00  0.00    +0.000 A 
ATOM      6  C   UNL     1       5.195  -0.342   5.004  0.00  0.00    +0.000 A 
ATOM      7  C   UNL     1       4.682  -0.058   3.747  0.00  0.00    +0.000 A 
BRANCH   5   8
ATOM      8  O   UNL     1       6.704  -1.685   6.360  0.00  0.00    +0.000 OA
BRANCH   8   9
ATOM      9  C   UNL     1       6.850  -0.542   7.220  0.00  0.00    +0.000 C 
BRANCH   9  10
ATOM     10  C   UNL     1       7.995  -0.716   8.184  0.00  0.00    +0.000 A 
ATOM     11  C   UNL     1       8.299  -1.961   8.713  0.00  0.00    +0.000 A 
ATOM     12  C   UNL     1       9.376  -2.075   9.587  0.00  0.00    +0.000 A 
ATOM     13  C   UNL     1      10.104  -0.937   9.919  0.00  0.00    +0.000 A 
ATOM     14  C   UNL     1       9.718   0.272   9.373  0.00  0.00    +0.000 A 
ATOM     15  N   UNL     1       8.682   0.407   8.520  0.00  0.00    +0.000 NA
ENDBRANCH   9  10
ENDBRANCH   8   9
ENDBRANCH   5   8
ENDBRANCH   1   2
BRANCH   1  16
ATOM     16  N   UNL     1       4.946   0.825   0.919  0.00  0.00    +0.000 N 
ATOM     17  C   UNL     1       4.624   1.473  -0.251  0.00  0.00    +0.000 C 
ATOM     18  O   UNL     1       3.887   0.996  -1.098  0.00  0.00    +0.000 OA
ATOM     19  H   UNL     1       5.773   1.140   1.405  0.00  0.00    +0.000 HD
BRANCH  17  20
ATOM     20  C   UNL     1       5.193   2.817  -0.375  0.00  0.00    +0.000 A 
ATOM     21  C   UNL     1       5.423   3.658   0.703  0.00  0.00    +0.000 A 
ATOM     22  S   UNL     1       5.961   5.213   0.240  0.00  0.00    +0.000 S 
ATOM     23  C   UNL     1       5.890   4.809  -1.413  0.00  0.00    +0.000 A 
ATOM     24  N   UNL     1       6.192   5.719  -2.375  0.00  0.00    +0.000 NA
ATOM     25  C   UNL     1       6.068   5.273  -3.581  0.00  0.00    +0.000 A 
ATOM     26  N   UNL     1       5.688   3.998  -3.911  0.00  0.00    +0.000 N 
ATOM     27  C   UNL     1       5.475   3.013  -2.974  0.00  0.00    +0.000 A 
ATOM     28  O   UNL     1       5.351   1.841  -3.312  0.00  0.00    +0.000 OA
ATOM     29  C   UNL     1       5.507   3.494  -1.604  0.00  0.00    +0.000 A 
ATOM     30  H   UNL     1       5.677   3.692  -4.873  0.00  0.00    +0.000 HD
ENDBRANCH  17  20
ENDBRANCH   1  16
BRANCH   1  31
ATOM     31  C   UNL     1       2.887  -0.556   1.301  0.00  0.00    +0.000 C 
BRANCH  31  32
ATOM     32  C   UNL     1       2.359  -1.947   1.657  0.00  0.00    +0.000 C 
BRANCH  32  33
ATOM     33  N   UNL     1       0.899  -1.952   1.677  0.00  0.00    +0.000 NA
ATOM     34  H   UNL     1       0.570  -2.888   1.908  0.00  0.00    +0.000 HD
ATOM     35  H   UNL     1       0.544  -1.746   0.743  0.00  0.00    +0.000 HD
ENDBRANCH  32  33
ENDBRANCH  31  32
ENDBRANCH   1  31
TORSDOF 9
