REMARK  Name = 
REMARK  7 active torsions:
REMARK  status: ('A' for Active; 'I' for Inactive)
REMARK    1  A    between atoms: C_1  and  C_2
REMARK    2  A    between atoms: C_2  and  C_3
REMARK    3  A    between atoms: C_2  and  C_24
REMARK    4  A    between atoms: C_3  and  N_4
REMARK    5  A    between atoms: C_7  and  C_8
REMARK    6  A    between atoms: C_8  and  N_9
REMARK    7  A    between atoms: C_10  and  C_12
REMARK                            x       y       z     vdW  Elec       q    Type
REMARK                         _______ _______ _______ _____ _____    ______ ____
ROOT
ATOM      1  C   UNL     1      -1.640   4.104   0.288  0.00  0.00    +0.000 C 
ENDROOT
BRANCH   1   5
ATOM      2  N   UNL     1       0.502   1.112   0.879  0.00  0.00    +0.000 NA
ATOM      3  C   UNL     1       1.011   2.419   0.449  0.00  0.00    +0.000 C 
ATOM      4  C   UNL     1       0.578   3.510   1.425  0.00  0.00    +0.000 C 
ATOM      5  C   UNL     1      -0.948   3.584   1.562  0.00  0.00    +0.000 C 
ATOM      6  C   UNL     1      -1.470   2.189   1.932  0.00  0.00    +0.000 C 
ATOM      7  C   UNL     1      -0.965   1.101   0.976  0.00  0.00    +0.000 C 
BRANCH   2   8
ATOM      8  C   UNL     1       0.973   0.005   0.018  0.00  0.00    +0.000 C 
BRANCH   8  10
ATOM      9  C   UNL     1       3.102  -0.373   1.380  0.00  0.00    +0.000 C 
ATOM     10  C   UNL     1       2.511  -0.171  -0.018  0.00  0.00    +0.000 C 
BRANCH  10  11
ATOM     11  C   UNL     1       2.888  -1.316  -0.939  0.00  0.00    +0.000 A 
ATOM     12  C   UNL     1       3.713  -1.084  -2.040  0.00  0.00    +0.000 A 
ATOM     13  C   UNL     1       4.033  -2.146  -2.881  0.00  0.00    +0.000 A 
ATOM     14  C   UNL     1       3.530  -3.409  -2.599  0.00  0.00    +0.000 A 
ATOM     15  C   UNL     1       2.724  -3.560  -1.484  0.00  0.00    +0.000 A 
ATOM     16  N   UNL     1       2.391  -2.548  -0.656  0.00  0.00    +0.000 NA
ENDBRANCH  10  11
ENDBRANCH   8  10
ENDBRANCH   2   8
ENDBRANCH   1   5
BRANCH   1  17
ATOM     17  N   UNL     1      -1.178   5.416  -0.105  0.00  0.00    +0.000 N 
ATOM     18  C   UNL     1      -1.667   6.573   0.444  0.00  0.00    +0.000 C 
ATOM     19  O   UNL     1      -2.533   6.569   1.315  0.00  0.00    +0.000 OA
ATOM     20  H   UNL     1      -0.550   5.467  -0.901  0.00  0.00    +0.000 HD
BRANCH  18  21
ATOM     21  C   UNL     1      -1.053   7.823  -0.020  0.00  0.00    +0.000 A 
ATOM     22  C   UNL     1      -1.133   8.959   0.774  0.00  0.00    +0.000 A 
ATOM     23  S   UNL     1      -0.326  10.310   0.119  0.00  0.00    +0.000 S 
ATOM     24  C   UNL     1       0.120   9.438  -1.272  0.00  0.00    +0.000 A 
ATOM     25  N   UNL     1       0.835  10.030  -2.266  0.00  0.00    +0.000 NA
ATOM     26  C   UNL     1       1.073   9.267  -3.280  0.00  0.00    +0.000 A 
ATOM     27  N   UNL     1       0.663   7.963  -3.388  0.00  0.00    +0.000 N 
ATOM     28  C   UNL     1      -0.018   7.309  -2.390  0.00  0.00    +0.000 A 
ATOM     29  O   UNL     1      -0.299   6.116  -2.487  0.00  0.00    +0.000 OA
ATOM     30  C   UNL     1      -0.330   8.130  -1.234  0.00  0.00    +0.000 A 
ATOM     31  H   UNL     1       0.893   7.417  -4.205  0.00  0.00    +0.000 HD
ENDBRANCH  18  21
ENDBRANCH   1  17
TORSDOF 6
