REMARK  Name = 
REMARK  9 active torsions:
REMARK  status: ('A' for Active; 'I' for Inactive)
REMARK    1  A    between atoms: C_1  and  C_2
REMARK    2  A    between atoms: C_2  and  C_3
REMARK    3  A    between atoms: C_2  and  O_4
REMARK    4  A    between atoms: C_2  and  C_5
REMARK    5  A    between atoms: C_9  and  C_10
REMARK    6  A    between atoms: C_10  and  N_11
REMARK    7  A    between atoms: N_11  and  C_12
REMARK    8  A    between atoms: C_15  and  C_16
REMARK    9  A    between atoms: C_20  and  N_21
REMARK                            x       y       z     vdW  Elec       q    Type
REMARK                         _______ _______ _______ _____ _____    ______ ____
ROOT
ATOM      1  N   UNL     1       4.850  -1.056   5.473  0.00  0.00    +0.000 N 
ATOM      2  H   UNL     1       4.389  -0.317   5.992  0.00  0.00    +0.000 HD
ENDROOT
BRANCH   1   3
ATOM      3  C   UNL     1       5.309  -1.972   6.407  0.00  0.00    +0.000 A 
ATOM      4  N   UNL     1       5.198  -1.497   7.662  0.00  0.00    +0.000 NA
ATOM      5  C   UNL     1       5.745  -2.247   8.659  0.00  0.00    +0.000 A 
ATOM      6  C   UNL     1       6.362  -3.467   8.411  0.00  0.00    +0.000 A 
ATOM      7  N   UNL     1       6.451  -3.988   7.159  0.00  0.00    +0.000 NA
ATOM      8  C   UNL     1       5.933  -3.228   6.157  0.00  0.00    +0.000 A 
BRANCH   6   9
ATOM      9  C   UNL     1       6.982  -4.247   9.530  0.00  0.00    +0.000 C 
ATOM     10  N   UNL     1       7.582  -5.452   9.242  0.00  0.00    +0.000 N 
ATOM     11  O   UNL     1       6.967  -3.842  10.675  0.00  0.00    +0.000 OA
ATOM     12  H   UNL     1       7.617  -5.867   8.317  0.00  0.00    +0.000 HD
ATOM     13  H   UNL     1       7.964  -5.956  10.019  0.00  0.00    +0.000 HD
ENDBRANCH   6   9
BRANCH   8  14
ATOM     14  N   UNL     1       6.181  -3.751   4.890  0.00  0.00    +0.000 N 
ATOM     15  H   UNL     1       6.571  -4.676   5.006  0.00  0.00    +0.000 HD
ATOM     16  H   UNL     1       5.367  -3.767   4.291  0.00  0.00    +0.000 HD
ENDBRANCH   8  14
ENDBRANCH   1   3
BRANCH   1  17
ATOM     17  C   UNL     1       4.244  -1.457   4.223  0.00  0.00    +0.000 C 
BRANCH  17  22
ATOM     18  C   UNL     1       1.937   0.689   2.334  0.00  0.00    +0.000 A 
ATOM     19  N   UNL     1       2.688   1.700   1.849  0.00  0.00    +0.000 NA
ATOM     20  C   UNL     1       3.995   1.680   2.145  0.00  0.00    +0.000 A 
ATOM     21  C   UNL     1       4.590   0.702   2.912  0.00  0.00    +0.000 A 
ATOM     22  C   UNL     1       3.752  -0.290   3.391  0.00  0.00    +0.000 A 
ATOM     23  N   UNL     1       2.433  -0.301   3.103  0.00  0.00    +0.000 NA
BRANCH  18  25
ATOM     24  C   UNL     1      -0.152   1.983   2.688  0.00  0.00    +0.000 C 
ATOM     25  C   UNL     1       0.432   0.714   2.060  0.00  0.00    +0.000 C 
ATOM     26  C   UNL     1      -0.283  -0.525   2.617  0.00  0.00    +0.000 C 
BRANCH  25  27
ATOM     27  O   UNL     1       0.185   0.737   0.643  0.00  0.00    +0.000 OA
ATOM     28  H   UNL     1      -0.763   0.905   0.514  0.00  0.00    +0.000 HD
ENDBRANCH  25  27
ENDBRANCH  18  25
ENDBRANCH  17  22
ENDBRANCH   1  17
TORSDOF 7
