REMARK  Name = 
REMARK  5 active torsions:
REMARK  status: ('A' for Active; 'I' for Inactive)
REMARK    1  A    between atoms: C_2  and  C_4
REMARK    2  A    between atoms: C_7  and  O_8
REMARK    3  A    between atoms: O_8  and  C_9
REMARK    4  A    between atoms: C_9  and  C_10
REMARK    5  A    between atoms: C_14  and  C_15
REMARK                            x       y       z     vdW  Elec       q    Type
REMARK                         _______ _______ _______ _____ _____    ______ ____
ROOT
ATOM      1  C   UNL     1       4.993   5.465   2.286  0.00  0.00    +0.000 C 
ENDROOT
BRANCH   1   2
ATOM      2  C   UNL     1       5.938   6.629   2.438  0.00  0.00    +0.000 A 
ATOM      3  C   UNL     1       7.275   6.403   2.739  0.00  0.00    +0.000 A 
ATOM      4  N   UNL     1       8.176   7.383   2.953  0.00  0.00    +0.000 NA
ATOM      5  C   UNL     1       7.717   8.657   2.873  0.00  0.00    +0.000 A 
ATOM      6  C   UNL     1       6.401   9.026   2.582  0.00  0.00    +0.000 A 
ATOM      7  C   UNL     1       5.511   7.961   2.371  0.00  0.00    +0.000 A 
BRANCH   6   8
ATOM      8  C   UNL     1       5.971  10.439   2.501  0.00  0.00    +0.000 A 
ATOM      9  C   UNL     1       6.835  11.446   2.026  0.00  0.00    +0.000 A 
ATOM     10  C   UNL     1       6.428  12.784   1.941  0.00  0.00    +0.000 A 
ATOM     11  C   UNL     1       5.140  13.143   2.321  0.00  0.00    +0.000 A 
ATOM     12  C   UNL     1       4.275  12.164   2.787  0.00  0.00    +0.000 A 
ATOM     13  F   UNL     1       3.030  12.502   3.148  0.00  0.00    +0.000 F 
ATOM     14  C   UNL     1       4.677  10.834   2.885  0.00  0.00    +0.000 A 
ENDBRANCH   6   8
ENDBRANCH   1   2
BRANCH   1  15
ATOM     15  O   UNL     1       3.933   5.793   1.382  0.00  0.00    +0.000 OA
BRANCH  15  19
ATOM     16  C   UNL     1       1.201   2.752   0.907  0.00  0.00    +0.000 A 
ATOM     17  C   UNL     1       1.019   3.958   0.226  0.00  0.00    +0.000 A 
ATOM     18  C   UNL     1       1.952   4.982   0.398  0.00  0.00    +0.000 A 
ATOM     19  C   UNL     1       3.029   4.760   1.243  0.00  0.00    +0.000 A 
ATOM     20  N   UNL     1       3.226   3.608   1.918  0.00  0.00    +0.000 NA
ATOM     21  C   UNL     1       2.301   2.634   1.744  0.00  0.00    +0.000 A 
BRANCH  16  23
ATOM     22  N   UNL     1      -0.464   1.496  -0.344  0.00  0.00    +0.000 N 
ATOM     23  C   UNL     1       0.274   1.607   0.802  0.00  0.00    +0.000 C 
ATOM     24  O   UNL     1       0.189   0.771   1.691  0.00  0.00    +0.000 OA
ATOM     25  H   UNL     1      -1.011   0.649  -0.439  0.00  0.00    +0.000 HD
ATOM     26  H   UNL     1      -0.247   2.007  -1.187  0.00  0.00    +0.000 HD
ENDBRANCH  16  23
ENDBRANCH  15  19
ENDBRANCH   1  15
TORSDOF 5
