REMARK  Name = 
REMARK  7 active torsions:
REMARK  status: ('A' for Active; 'I' for Inactive)
REMARK    1  A    between atoms: C_1  and  C_2
REMARK    2  A    between atoms: N_7  and  C_8
REMARK    3  A    between atoms: C_8  and  C_9
REMARK    4  A    between atoms: C_8  and  C_10
REMARK    5  A    between atoms: C_13  and  C_14
REMARK    6  A    between atoms: C_14  and  N_15
REMARK    7  A    between atoms: C_16  and  C_18
REMARK                            x       y       z     vdW  Elec       q    Type
REMARK                         _______ _______ _______ _____ _____    ______ ____
ROOT
ATOM      1  C   UNL     1       3.415   4.031  -0.121  0.00  0.00    +0.000 A 
ATOM      2  C   UNL     1       2.450   5.015   0.110  0.00  0.00    +0.000 A 
ATOM      3  C   UNL     1       2.807   6.360   0.006  0.00  0.00    +0.000 A 
ATOM      4  C   UNL     1       4.117   6.707  -0.325  0.00  0.00    +0.000 A 
ATOM      5  C   UNL     1       5.019   5.667  -0.507  0.00  0.00    +0.000 A 
ATOM      6  N   UNL     1       4.697   4.355  -0.433  0.00  0.00    +0.000 NA
ENDROOT
BRANCH   1   7
ATOM      7  C   UNL     1       3.065   2.541  -0.081  0.00  0.00    +0.000 C 
ATOM      8  C   UNL     1       2.086   2.203  -1.212  0.00  0.00    +0.000 C 
BRANCH   7  15
ATOM      9  C   UNL     1       0.677  -1.256   3.884  0.00  0.00    +0.000 C 
ATOM     10  C   UNL     1       1.771  -0.802   2.967  0.00  0.00    +0.000 A 
ATOM     11  C   UNL     1       2.840  -1.620   2.681  0.00  0.00    +0.000 A 
ATOM     12  C   UNL     1       3.784  -1.087   1.834  0.00  0.00    +0.000 A 
ATOM     13  N   UNL     1       3.702   0.148   1.308  0.00  0.00    +0.000 NA
ATOM     14  C   UNL     1       2.637   0.883   1.653  0.00  0.00    +0.000 A 
ATOM     15  N   UNL     1       2.494   2.187   1.215  0.00  0.00    +0.000 N 
ATOM     16  N   UNL     1       1.659   0.445   2.459  0.00  0.00    +0.000 NA
ATOM     17  H   UNL     1       1.535   2.456   1.378  0.00  0.00    +0.000 HD
ENDBRANCH   7  15
ENDBRANCH   1   7
BRANCH   4  18
ATOM     18  C   UNL     1       4.559   8.136  -0.437  0.00  0.00    +0.000 C 
BRANCH  18  19
ATOM     19  N   UNL     1       5.002   8.646   0.834  0.00  0.00    +0.000 N 
ATOM     20  C   UNL     1       5.365   9.960   0.987  0.00  0.00    +0.000 C 
ATOM     21  O   UNL     1       5.274  10.769   0.067  0.00  0.00    +0.000 OA
ATOM     22  H   UNL     1       5.295   7.967   1.530  0.00  0.00    +0.000 HD
BRANCH  20  23
ATOM     23  C   UNL     1       5.811  10.366   2.326  0.00  0.00    +0.000 A 
ATOM     24  C   UNL     1       5.738  11.702   2.699  0.00  0.00    +0.000 A 
ATOM     25  S   UNL     1       6.243  11.993   4.302  0.00  0.00    +0.000 S 
ATOM     26  C   UNL     1       6.627  10.353   4.537  0.00  0.00    +0.000 A 
ATOM     27  N   UNL     1       7.142   9.917   5.718  0.00  0.00    +0.000 NA
ATOM     28  C   UNL     1       7.414   8.655   5.748  0.00  0.00    +0.000 A 
ATOM     29  N   UNL     1       7.212   7.787   4.707  0.00  0.00    +0.000 N 
ATOM     30  C   UNL     1       6.672   8.177   3.505  0.00  0.00    +0.000 A 
ATOM     31  O   UNL     1       6.472   7.373   2.601  0.00  0.00    +0.000 OA
ATOM     32  C   UNL     1       6.357   9.590   3.415  0.00  0.00    +0.000 A 
ATOM     33  H   UNL     1       7.439   6.807   4.796  0.00  0.00    +0.000 HD
ENDBRANCH  20  23
ENDBRANCH  18  19
ENDBRANCH   4  18
TORSDOF 5
