REMARK  Name = 
REMARK  6 active torsions:
REMARK  status: ('A' for Active; 'I' for Inactive)
REMARK    1  A    between atoms: C_2  and  C_22
REMARK    2  A    between atoms: N_3  and  C_4
REMARK    3  A    between atoms: C_4  and  C_5
REMARK    4  A    between atoms: C_8  and  C_9
REMARK    5  A    between atoms: C_9  and  C_10
REMARK    6  A    between atoms: C_13  and  C_14
REMARK                            x       y       z     vdW  Elec       q    Type
REMARK                         _______ _______ _______ _____ _____    ______ ____
ROOT
ATOM      1  C   UNL     1       3.141   2.001   3.053  0.00  0.00    +0.000 A 
ATOM      2  C   UNL     1       3.902   1.191   3.883  0.00  0.00    +0.000 A 
ATOM      3  C   UNL     1       4.725   1.787   4.833  0.00  0.00    +0.000 A 
ATOM      4  C   UNL     1       4.745   3.171   4.925  0.00  0.00    +0.000 A 
ATOM      5  N   UNL     1       3.981   3.934   4.112  0.00  0.00    +0.000 NA
ATOM      6  N   UNL     1       3.173   3.347   3.174  0.00  0.00    +0.000 NA
ENDROOT
BRANCH   1   7
ATOM      7  C   UNL     1       2.233   1.413   2.006  0.00  0.00    +0.000 C 
BRANCH   7  10
ATOM      8  O   UNL     1       1.371  -1.023   3.101  0.00  0.00    +0.000 OA
ATOM      9  C   UNL     1       0.586  -0.078   3.077  0.00  0.00    +0.000 C 
ATOM     10  N   UNL     1       0.913   1.130   2.520  0.00  0.00    +0.000 N 
ATOM     11  H   UNL     1       0.341   1.944   2.728  0.00  0.00    +0.000 HD
BRANCH   9  12
ATOM     12  C   UNL     1      -0.773  -0.196   3.610  0.00  0.00    +0.000 A 
ATOM     13  C   UNL     1      -1.406  -1.431   3.647  0.00  0.00    +0.000 A 
ATOM     14  S   UNL     1      -2.968  -1.373   4.334  0.00  0.00    +0.000 S 
ATOM     15  C   UNL     1      -2.838   0.299   4.628  0.00  0.00    +0.000 A 
ATOM     16  N   UNL     1      -3.835   0.986   5.247  0.00  0.00    +0.000 NA
ATOM     17  C   UNL     1      -3.585   2.241   5.429  0.00  0.00    +0.000 A 
ATOM     18  N   UNL     1      -2.435   2.874   5.031  0.00  0.00    +0.000 N 
ATOM     19  C   UNL     1      -1.434   2.236   4.346  0.00  0.00    +0.000 A 
ATOM     20  O   UNL     1      -0.479   2.855   3.893  0.00  0.00    +0.000 OA
ATOM     21  C   UNL     1      -1.639   0.811   4.169  0.00  0.00    +0.000 A 
ATOM     22  H   UNL     1      -2.315   3.867   5.166  0.00  0.00    +0.000 HD
ENDBRANCH   9  12
ENDBRANCH   7  10
ENDBRANCH   1   7
BRANCH   4  23
ATOM     23  C   UNL     1       5.605   3.888   5.933  0.00  0.00    +0.000 C 
BRANCH  23  24
ATOM     24  C   UNL     1       6.988   4.256   5.455  0.00  0.00    +0.000 A 
ATOM     25  C   UNL     1       8.132   3.804   6.116  0.00  0.00    +0.000 A 
ATOM     26  C   UNL     1       9.393   4.232   5.699  0.00  0.00    +0.000 A 
ATOM     27  C   UNL     1       9.496   5.105   4.615  0.00  0.00    +0.000 A 
ATOM     28  N   UNL     1       8.391   5.547   3.952  0.00  0.00    +0.000 NA
ATOM     29  C   UNL     1       7.177   5.123   4.383  0.00  0.00    +0.000 A 
BRANCH  27  30
ATOM     30  C   UNL     1      10.868   5.585   4.156  0.00  0.00    +0.000 C 
ATOM     31  F   UNL     1      11.895   5.058   4.891  0.00  0.00    +0.000 F 
ATOM     32  F   UNL     1      11.149   5.255   2.862  0.00  0.00    +0.000 F 
ATOM     33  F   UNL     1      11.024   6.937   4.244  0.00  0.00    +0.000 F 
ENDBRANCH  27  30
ENDBRANCH  23  24
ENDBRANCH   4  23
TORSDOF 6
