REMARK  Name = 
REMARK  11 active torsions:
REMARK  status: ('A' for Active; 'I' for Inactive)
REMARK    1  A    between atoms: N_1  and  C_2
REMARK    2  A    between atoms: C_2  and  C_3
REMARK    3  A    between atoms: C_3  and  N_4
REMARK    4  A    between atoms: C_3  and  C_28
REMARK    5  A    between atoms: N_4  and  CA_5
REMARK    6  A    between atoms: CA_5  and  C_6
REMARK    7  A    between atoms: CA_5  and  C_8
REMARK    8  A    between atoms: C_6  and  O_7
REMARK    9  A    between atoms: C_11  and  C_12
REMARK   10  A    between atoms: C_12  and  N_13
REMARK   11  A    between atoms: C_14  and  C_16
REMARK                            x       y       z     vdW  Elec       q    Type
REMARK                         _______ _______ _______ _____ _____    ______ ____
ROOT
ATOM      1  C   UNL     1       1.451  -2.174   0.603  0.00  0.00    +0.000 A 
ATOM      2  C   UNL     1       0.141  -2.132   1.084  0.00  0.00    +0.000 A 
ATOM      3  C   UNL     1      -0.756  -3.119   0.688  0.00  0.00    +0.000 A 
ATOM      4  C   UNL     1      -0.332  -4.138  -0.164  0.00  0.00    +0.000 A 
ATOM      5  C   UNL     1       0.985  -4.089  -0.612  0.00  0.00    +0.000 A 
ATOM      6  N   UNL     1       1.884  -3.141  -0.251  0.00  0.00    +0.000 NA
ENDROOT
BRANCH   1   7
ATOM      7  CA  UNL     1       2.481  -1.149   1.091  0.00  0.00    +0.000 C 
BRANCH   7   8
ATOM      8  N   UNL     1       3.578  -1.856   1.774  0.00  0.00    +0.000 NA
ATOM      9  H   UNL     1       3.934  -2.588   1.156  0.00  0.00    +0.000 HD
BRANCH   8  10
ATOM     10  C   UNL     1       4.709  -1.051   2.266  0.00  0.00    +0.000 C 
BRANCH  10  11
ATOM     11  C   UNL     1       5.683  -1.990   2.986  0.00  0.00    +0.000 A 
ATOM     12  C   UNL     1       7.036  -2.032   2.616  0.00  0.00    +0.000 A 
ATOM     13  C   UNL     1       7.927  -2.901   3.254  0.00  0.00    +0.000 A 
ATOM     14  C   UNL     1       7.480  -3.741   4.272  0.00  0.00    +0.000 A 
ATOM     15  C   UNL     1       6.141  -3.712   4.655  0.00  0.00    +0.000 A 
ATOM     16  C   UNL     1       5.251  -2.843   4.019  0.00  0.00    +0.000 A 
ENDBRANCH  10  11
BRANCH  10  17
ATOM     17  C   UNL     1       4.271   0.126   3.200  0.00  0.00    +0.000 C 
BRANCH  17  18
ATOM     18  N   UNL     1       5.339   1.074   3.541  0.00  0.00    +0.000 NA
ATOM     19  H   UNL     1       5.012   1.690   4.284  0.00  0.00    +0.000 HD
ATOM     20  H   UNL     1       5.534   1.672   2.739  0.00  0.00    +0.000 HD
ENDBRANCH  17  18
ENDBRANCH  10  17
ENDBRANCH   8  10
ENDBRANCH   7   8
BRANCH   7  21
ATOM     21  C   UNL     1       2.884  -0.216  -0.082  0.00  0.00    +0.000 C 
BRANCH  21  22
ATOM     22  O   UNL     1       3.696  -0.839  -1.076  0.00  0.00    +0.000 OA
ATOM     23  H   UNL     1       3.623  -1.804  -0.943  0.00  0.00    +0.000 HD
ENDBRANCH  21  22
ENDBRANCH   7  21
ENDBRANCH   1   7
BRANCH   4  24
ATOM     24  C   UNL     1      -1.264  -5.224  -0.615  0.00  0.00    +0.000 C 
BRANCH  24  25
ATOM     25  N   UNL     1      -1.954  -4.848  -1.819  0.00  0.00    +0.000 N 
ATOM     26  C   UNL     1      -2.950  -5.641  -2.351  0.00  0.00    +0.000 C 
ATOM     27  O   UNL     1      -3.329  -6.661  -1.780  0.00  0.00    +0.000 OA
ATOM     28  H   UNL     1      -1.520  -4.147  -2.410  0.00  0.00    +0.000 HD
BRANCH  26  29
ATOM     29  C   UNL     1      -3.568  -5.175  -3.598  0.00  0.00    +0.000 A 
ATOM     30  C   UNL     1      -4.836  -5.624  -3.938  0.00  0.00    +0.000 A 
ATOM     31  S   UNL     1      -5.431  -4.953  -5.387  0.00  0.00    +0.000 S 
ATOM     32  C   UNL     1      -3.992  -4.080  -5.638  0.00  0.00    +0.000 A 
ATOM     33  N   UNL     1      -3.831  -3.299  -6.740  0.00  0.00    +0.000 NA
ATOM     34  C   UNL     1      -2.680  -2.719  -6.820  0.00  0.00    +0.000 A 
ATOM     35  N   UNL     1      -1.676  -2.844  -5.894  0.00  0.00    +0.000 N 
ATOM     36  C   UNL     1      -1.809  -3.592  -4.748  0.00  0.00    +0.000 A 
ATOM     37  O   UNL     1      -0.915  -3.641  -3.909  0.00  0.00    +0.000 OA
ATOM     38  C   UNL     1      -3.077  -4.281  -4.621  0.00  0.00    +0.000 A 
ATOM     39  H   UNL     1      -0.804  -2.351  -6.008  0.00  0.00    +0.000 HD
ENDBRANCH  26  29
ENDBRANCH  24  25
ENDBRANCH   4  24
TORSDOF 11
