REMARK  Name = 
REMARK  5 active torsions:
REMARK  status: ('A' for Active; 'I' for Inactive)
REMARK    1  A    between atoms: C_2  and  C_3
REMARK    2  A    between atoms: C_6  and  C_7
REMARK    3  A    between atoms: C_11  and  C_12
REMARK    4  A    between atoms: C_12  and  N_13
REMARK    5  A    between atoms: C_17  and  C_18
REMARK                            x       y       z     vdW  Elec       q    Type
REMARK                         _______ _______ _______ _____ _____    ______ ____
ROOT
ATOM      1  C   UNL     1      -6.459  -1.507   1.887  0.00  0.00    +0.000 C 
ATOM      2  C   UNL     1      -6.503  -1.003   3.320  0.00  0.00    +0.000 C 
ATOM      3  C   UNL     1      -5.711  -2.229   3.009  0.00  0.00    +0.000 C 
ENDROOT
BRANCH   1   4
ATOM      4  N   UNL     1      -7.552  -2.302   1.278  0.00  0.00    +0.000 N 
ATOM      5  C   UNL     1      -8.786  -1.771   0.895  0.00  0.00    +0.000 A 
ATOM      6  C   UNL     1      -9.507  -0.877   1.679  0.00  0.00    +0.000 A 
ATOM      7  C   UNL     1     -10.814  -0.538   1.316  0.00  0.00    +0.000 A 
ATOM      8  C   UNL     1     -11.367  -1.088   0.163  0.00  0.00    +0.000 A 
ATOM      9  C   UNL     1     -10.574  -1.950  -0.578  0.00  0.00    +0.000 A 
ATOM     10  N   UNL     1      -9.304  -2.294  -0.236  0.00  0.00    +0.000 NA
ATOM     11  H   UNL     1      -7.262  -2.897   0.501  0.00  0.00    +0.000 HD
BRANCH   8  12
ATOM     12  C   UNL     1     -12.760  -0.846  -0.266  0.00  0.00    +0.000 C 
ATOM     13  N   UNL     1     -13.364   0.303   0.164  0.00  0.00    +0.000 N 
ATOM     14  O   UNL     1     -13.350  -1.634  -0.993  0.00  0.00    +0.000 OA
ATOM     15  H   UNL     1     -12.863   1.069   0.589  0.00  0.00    +0.000 HD
ATOM     16  H   UNL     1     -14.292   0.490  -0.195  0.00  0.00    +0.000 HD
ENDBRANCH   8  12
ENDBRANCH   1   4
BRANCH   1  21
ATOM     17  C   UNL     1      -5.033   1.188  -0.199  0.00  0.00    +0.000 A 
ATOM     18  N   UNL     1      -3.982   0.625  -0.798  0.00  0.00    +0.000 NA
ATOM     19  C   UNL     1      -3.803  -0.656  -0.506  0.00  0.00    +0.000 A 
ATOM     20  N   UNL     1      -4.561  -1.381   0.306  0.00  0.00    +0.000 NA
ATOM     21  C   UNL     1      -5.583  -0.730   0.880  0.00  0.00    +0.000 A 
ATOM     22  N   UNL     1      -5.854   0.561   0.647  0.00  0.00    +0.000 NA
BRANCH  17  26
ATOM     23  C   UNL     1      -5.846   5.284  -0.947  0.00  0.00    +0.000 A 
ATOM     24  C   UNL     1      -4.747   4.715  -1.573  0.00  0.00    +0.000 A 
ATOM     25  C   UNL     1      -4.474   3.368  -1.334  0.00  0.00    +0.000 A 
ATOM     26  C   UNL     1      -5.291   2.607  -0.480  0.00  0.00    +0.000 A 
ATOM     27  C   UNL     1      -6.368   3.287   0.090  0.00  0.00    +0.000 A 
ATOM     28  N   UNL     1      -6.666   4.596  -0.118  0.00  0.00    +0.000 NA
BRANCH  23  30
ATOM     29  N   UNL     1      -6.402   7.792  -1.351  0.00  0.00    +0.000 NA
ATOM     30  C   UNL     1      -6.173   6.667  -1.156  0.00  0.00    +0.000 C 
ENDBRANCH  23  30
ENDBRANCH  17  26
ENDBRANCH   1  21
TORSDOF 5
