REMARK  Name = 
REMARK  9 active torsions:
REMARK  status: ('A' for Active; 'I' for Inactive)
REMARK    1  A    between atoms: N_1  and  C_2
REMARK    2  A    between atoms: C_2  and  C_3
REMARK    3  A    between atoms: C_3  and  N_4
REMARK    4  A    between atoms: C_3  and  C_27
REMARK    5  A    between atoms: C_5  and  C_7
REMARK    6  A    between atoms: C_10  and  C_11
REMARK    7  A    between atoms: C_11  and  N_12
REMARK    8  A    between atoms: C_13  and  C_15
REMARK    9  A    between atoms: C_27  and  C_29
REMARK                            x       y       z     vdW  Elec       q    Type
REMARK                         _______ _______ _______ _____ _____    ______ ____
ROOT
ATOM      1  C   UNL     1      -4.243   2.480   7.012  0.00  0.00    +0.000 C 
ATOM      2  C   UNL     1      -4.576   1.730   8.308  0.00  0.00    +0.000 C 
ATOM      3  C   UNL     1      -3.359   0.990   8.863  0.00  0.00    +0.000 C 
ATOM      4  C   UNL     1      -2.154   1.918   9.106  0.00  0.00    +0.000 C 
ATOM      5  C   UNL     1      -1.828   2.729   7.846  0.00  0.00    +0.000 C 
ATOM      6  C   UNL     1      -3.052   3.429   7.242  0.00  0.00    +0.000 C 
ENDROOT
BRANCH   1   8
ATOM      7  N   UNL     1      -4.996   0.693   5.488  0.00  0.00    +0.000 N 
ATOM      8  C   UNL     1      -3.965   1.527   5.846  0.00  0.00    +0.000 C 
ATOM      9  O   UNL     1      -2.889   1.486   5.255  0.00  0.00    +0.000 OA
ATOM     10  H   UNL     1      -5.909   0.750   5.930  0.00  0.00    +0.000 HD
BRANCH   7  11
ATOM     11  C   UNL     1      -4.782  -0.342   4.464  0.00  0.00    +0.000 C 
BRANCH  11  12
ATOM     12  C   UNL     1      -6.146  -0.757   3.890  0.00  0.00    +0.000 C 
ATOM     13  O   UNL     1      -7.148  -0.781   4.612  0.00  0.00    +0.000 OA
BRANCH  12  14
ATOM     14  C   UNL     1      -6.239  -1.040   2.472  0.00  0.00    +0.000 A 
ATOM     15  C   UNL     1      -5.289  -1.188   1.479  0.00  0.00    +0.000 A 
ATOM     16  N   UNL     1      -5.881  -1.401   0.255  0.00  0.00    +0.000 NA
ATOM     17  C   UNL     1      -7.171  -1.402   0.488  0.00  0.00    +0.000 A 
ATOM     18  N   UNL     1      -7.434  -1.218   1.814  0.00  0.00    +0.000 N 
ATOM     19  H   UNL     1      -8.345  -1.188   2.245  0.00  0.00    +0.000 HD
ENDBRANCH  12  14
ENDBRANCH  11  12
BRANCH  11  20
ATOM     20  C   UNL     1      -4.032  -1.553   5.061  0.00  0.00    +0.000 C 
BRANCH  20  21
ATOM     21  N   UNL     1      -3.447  -2.438   4.049  0.00  0.00    +0.000 NA
ATOM     22  H   UNL     1      -2.952  -3.198   4.519  0.00  0.00    +0.000 HD
ATOM     23  H   UNL     1      -2.722  -1.928   3.539  0.00  0.00    +0.000 HD
ENDBRANCH  20  21
ENDBRANCH  11  20
ENDBRANCH   7  11
ENDBRANCH   1   8
BRANCH   4  24
ATOM     24  C   UNL     1      -2.356   2.849  10.313  0.00  0.00    +0.000 C 
BRANCH  24  25
ATOM     25  N   UNL     1      -2.545   2.084  11.524  0.00  0.00    +0.000 N 
ATOM     26  C   UNL     1      -3.416   2.456  12.512  0.00  0.00    +0.000 C 
ATOM     27  O   UNL     1      -4.106   3.469  12.434  0.00  0.00    +0.000 OA
ATOM     28  H   UNL     1      -1.867   1.351  11.710  0.00  0.00    +0.000 HD
BRANCH  26  29
ATOM     29  C   UNL     1      -3.537   1.533  13.646  0.00  0.00    +0.000 A 
ATOM     30  C   UNL     1      -4.687   1.558  14.423  0.00  0.00    +0.000 A 
ATOM     31  S   UNL     1      -4.687   0.409  15.681  0.00  0.00    +0.000 S 
ATOM     32  C   UNL     1      -3.132  -0.135  15.257  0.00  0.00    +0.000 A 
ATOM     33  N   UNL     1      -2.517  -1.113  15.975  0.00  0.00    +0.000 NA
ATOM     34  C   UNL     1      -1.327  -1.405  15.566  0.00  0.00    +0.000 A 
ATOM     35  N   UNL     1      -0.702  -0.820  14.497  0.00  0.00    +0.000 N 
ATOM     36  C   UNL     1      -1.307   0.130  13.708  0.00  0.00    +0.000 A 
ATOM     37  O   UNL     1      -0.758   0.559  12.698  0.00  0.00    +0.000 OA
ATOM     38  C   UNL     1      -2.631   0.528  14.151  0.00  0.00    +0.000 A 
ATOM     39  H   UNL     1       0.221  -1.113  14.214  0.00  0.00    +0.000 HD
ENDBRANCH  26  29
ENDBRANCH  24  25
ENDBRANCH   4  24
TORSDOF 9
