REMARK  Name = 
REMARK  7 active torsions:
REMARK  status: ('A' for Active; 'I' for Inactive)
REMARK    1  A    between atoms: C_2  and  C_19
REMARK    2  A    between atoms: N_3  and  C_4
REMARK    3  A    between atoms: C_4  and  C_5
REMARK    4  A    between atoms: C_8  and  C_9
REMARK    5  A    between atoms: C_9  and  O_10
REMARK    6  A    between atoms: O_10  and  C_11
REMARK    7  A    between atoms: C_11  and  C_12
REMARK                            x       y       z     vdW  Elec       q    Type
REMARK                         _______ _______ _______ _____ _____    ______ ____
ROOT
ATOM      1  C   UNL     1       2.277   1.371   2.124  0.00  0.00    +0.000 C 
ENDROOT
BRANCH   1   2
ATOM      2  C   UNL     1       3.216   2.087   3.049  0.00  0.00    +0.000 A 
ATOM      3  C   UNL     1       3.199   3.477   3.163  0.00  0.00    +0.000 A 
ATOM      4  C   UNL     1       4.033   4.105   4.083  0.00  0.00    +0.000 A 
ATOM      5  C   UNL     1       4.873   3.324   4.872  0.00  0.00    +0.000 A 
ATOM      6  N   UNL     1       4.944   1.974   4.744  0.00  0.00    +0.000 NA
ATOM      7  C   UNL     1       4.130   1.393   3.833  0.00  0.00    +0.000 A 
BRANCH   5   8
ATOM      8  C   UNL     1       5.674   3.968   5.983  0.00  0.00    +0.000 C 
BRANCH   8   9
ATOM      9  O   UNL     1       4.847   4.678   6.925  0.00  0.00    +0.000 OA
BRANCH   9  10
ATOM     10  C   UNL     1       4.006   3.793   7.664  0.00  0.00    +0.000 C 
BRANCH  10  11
ATOM     11  C   UNL     1       3.213   4.519   8.742  0.00  0.00    +0.000 C 
ATOM     12  C   UNL     1       4.047   5.211   9.805  0.00  0.00    +0.000 C 
ATOM     13  C   UNL     1       2.981   6.024  10.511  0.00  0.00    +0.000 C 
ATOM     14  N   UNL     1       2.122   6.539   9.433  0.00  0.00    +0.000 NA
ATOM     15  C   UNL     1       2.323   5.660   8.260  0.00  0.00    +0.000 C 
ATOM     16  H   UNL     1       2.440   7.476   9.182  0.00  0.00    +0.000 HD
ENDBRANCH  10  11
ENDBRANCH   9  10
ENDBRANCH   8   9
ENDBRANCH   5   8
ENDBRANCH   1   2
BRANCH   1  19
ATOM     17  O   UNL     1       1.692   3.077  -0.030  0.00  0.00    +0.000 OA
ATOM     18  C   UNL     1       2.494   2.161  -0.199  0.00  0.00    +0.000 C 
ATOM     19  N   UNL     1       2.808   1.270   0.791  0.00  0.00    +0.000 N 
ATOM     20  H   UNL     1       3.583   0.629   0.656  0.00  0.00    +0.000 HD
BRANCH  18  21
ATOM     21  C   UNL     1       3.128   1.936  -1.503  0.00  0.00    +0.000 A 
ATOM     22  C   UNL     1       2.537   2.440  -2.654  0.00  0.00    +0.000 A 
ATOM     23  S   UNL     1       3.410   2.097  -4.077  0.00  0.00    +0.000 S 
ATOM     24  C   UNL     1       4.630   1.297  -3.201  0.00  0.00    +0.000 A 
ATOM     25  N   UNL     1       5.723   0.789  -3.831  0.00  0.00    +0.000 NA
ATOM     26  C   UNL     1       6.588   0.243  -3.043  0.00  0.00    +0.000 A 
ATOM     27  N   UNL     1       6.450   0.143  -1.683  0.00  0.00    +0.000 N 
ATOM     28  C   UNL     1       5.327   0.567  -1.014  0.00  0.00    +0.000 A 
ATOM     29  O   UNL     1       5.168   0.328   0.176  0.00  0.00    +0.000 OA
ATOM     30  C   UNL     1       4.355   1.250  -1.846  0.00  0.00    +0.000 A 
ATOM     31  H   UNL     1       7.145  -0.334  -1.128  0.00  0.00    +0.000 HD
ENDBRANCH  18  21
ENDBRANCH   1  19
TORSDOF 7
