REMARK  Name = 
REMARK  9 active torsions:
REMARK  status: ('A' for Active; 'I' for Inactive)
REMARK    1  A    between atoms: N_1  and  C_2
REMARK    2  A    between atoms: C_2  and  N_3
REMARK    3  A    between atoms: C_2  and  C_25
REMARK    4  A    between atoms: N_3  and  C_4
REMARK    5  A    between atoms: C_4  and  C_5
REMARK    6  A    between atoms: C_8  and  C_9
REMARK    7  A    between atoms: C_9  and  O_10
REMARK    8  A    between atoms: O_10  and  C_11
REMARK    9  A    between atoms: C_11  and  C_13
REMARK                            x       y       z     vdW  Elec       q    Type
REMARK                         _______ _______ _______ _____ _____    ______ ____
ROOT
ATOM      1  C   UNL     1       2.949   3.606   0.925  0.00  0.00    +0.000 A 
ATOM      2  C   UNL     1       2.796   4.890   0.381  0.00  0.00    +0.000 A 
ATOM      3  C   UNL     1       3.078   6.027   1.127  0.00  0.00    +0.000 A 
ATOM      4  C   UNL     1       3.521   5.908   2.443  0.00  0.00    +0.000 A 
ATOM      5  C   UNL     1       3.700   4.633   2.995  0.00  0.00    +0.000 A 
ATOM      6  C   UNL     1       3.421   3.490   2.241  0.00  0.00    +0.000 A 
ENDROOT
BRANCH   1   7
ATOM      7  C   UNL     1       2.535   2.354   0.172  0.00  0.00    +0.000 C 
BRANCH   7   8
ATOM      8  N   UNL     1       2.646   2.532  -1.274  0.00  0.00    +0.000 NA
ATOM      9  H   UNL     1       2.075   3.342  -1.490  0.00  0.00    +0.000 HD
BRANCH   8  10
ATOM     10  C   UNL     1       2.136   1.461  -2.098  0.00  0.00    +0.000 C 
BRANCH  10  11
ATOM     11  C   UNL     1       2.187   1.930  -3.587  0.00  0.00    +0.000 C 
ATOM     12  C   UNL     1       1.247   3.127  -3.863  0.00  0.00    +0.000 C 
ATOM     13  C   UNL     1      -0.217   2.710  -3.731  0.00  0.00    +0.000 C 
ATOM     14  N   UNL     1      -0.540   1.642  -4.678  0.00  0.00    +0.000 NA
ATOM     15  C   UNL     1       0.320   0.467  -4.491  0.00  0.00    +0.000 C 
ATOM     16  C   UNL     1       1.804   0.818  -4.582  0.00  0.00    +0.000 C 
ATOM     17  H   UNL     1      -0.395   1.998  -5.624  0.00  0.00    +0.000 HD
ENDBRANCH  10  11
BRANCH  10  18
ATOM     18  N   UNL     1       3.012   0.342  -1.874  0.00  0.00    +0.000 NA
ATOM     19  H   UNL     1       2.832  -0.021  -0.941  0.00  0.00    +0.000 HD
ATOM     20  H   UNL     1       3.953   0.729  -1.831  0.00  0.00    +0.000 HD
ENDBRANCH  10  18
ENDBRANCH   8  10
ENDBRANCH   7   8
ENDBRANCH   1   7
BRANCH   4  21
ATOM     21  C   UNL     1       3.746   7.148   3.262  0.00  0.00    +0.000 C 
BRANCH  21  22
ATOM     22  O   UNL     1       2.881   7.134   4.395  0.00  0.00    +0.000 OA
BRANCH  22  23
ATOM     23  C   UNL     1       1.615   7.569   4.169  0.00  0.00    +0.000 C 
ATOM     24  O   UNL     1       1.182   7.957   3.091  0.00  0.00    +0.000 OA
BRANCH  23  25
ATOM     25  C   UNL     1       0.778   7.458   5.353  0.00  0.00    +0.000 A 
ATOM     26  C   UNL     1      -0.571   7.149   5.258  0.00  0.00    +0.000 A 
ATOM     27  S   UNL     1      -1.346   7.047   6.776  0.00  0.00    +0.000 S 
ATOM     28  C   UNL     1       0.092   7.449   7.600  0.00  0.00    +0.000 A 
ATOM     29  N   UNL     1       0.117   7.569   8.952  0.00  0.00    +0.000 NA
ATOM     30  C   UNL     1       1.268   7.894   9.437  0.00  0.00    +0.000 A 
ATOM     31  N   UNL     1       2.398   8.109   8.694  0.00  0.00    +0.000 N 
ATOM     32  C   UNL     1       2.417   8.053   7.316  0.00  0.00    +0.000 A 
ATOM     33  O   UNL     1       3.419   8.368   6.689  0.00  0.00    +0.000 OA
ATOM     34  C   UNL     1       1.152   7.650   6.727  0.00  0.00    +0.000 A 
ATOM     35  H   UNL     1       3.260   8.395   9.133  0.00  0.00    +0.000 HD
ENDBRANCH  23  25
ENDBRANCH  22  23
ENDBRANCH  21  22
ENDBRANCH   4  21
TORSDOF 9
