REMARK  Name = 
REMARK  6 active torsions:
REMARK  status: ('A' for Active; 'I' for Inactive)
REMARK    1  A    between atoms: C_1  and  N_2
REMARK    2  A    between atoms: C_6  and  C_7
REMARK    3  A    between atoms: C_8  and  C_9
REMARK    4  A    between atoms: C_9  and  C_10
REMARK    5  A    between atoms: C_10  and  N_11
REMARK    6  A    between atoms: C_17  and  C_18
REMARK                            x       y       z     vdW  Elec       q    Type
REMARK                         _______ _______ _______ _____ _____    ______ ____
ROOT
ATOM      1  C   UNL     1       4.437  -5.532   2.073  0.00  0.00    +0.000 C 
ENDROOT
BRANCH   1   2
ATOM      2  N   UNL     1       4.017  -6.952   2.070  0.00  0.00    +0.000 N 
ATOM      3  C   UNL     1       4.963  -7.774   2.726  0.00  0.00    +0.000 A 
ATOM      4  C   UNL     1       4.762  -9.152   2.778  0.00  0.00    +0.000 A 
ATOM      5  C   UNL     1       5.698  -9.963   3.433  0.00  0.00    +0.000 A 
ATOM      6  C   UNL     1       6.815  -9.381   4.025  0.00  0.00    +0.000 A 
ATOM      7 CL   UNL     1       7.971 -10.386   4.811  0.00  0.00    +0.000 Cl
ATOM      8  C   UNL     1       6.939  -8.004   3.945  0.00  0.00    +0.000 A 
ATOM      9  N   UNL     1       6.035  -7.210   3.317  0.00  0.00    +0.000 NA
ATOM     10  H   UNL     1       3.880  -7.307   1.127  0.00  0.00    +0.000 HD
BRANCH   8  11
ATOM     11  C   UNL     1       8.055  -7.297   4.513  0.00  0.00    +0.000 C 
ATOM     12  N   UNL     1       8.959  -6.719   4.958  0.00  0.00    +0.000 NA
ENDBRANCH   8  11
ENDBRANCH   1   2
BRANCH   1  13
ATOM     13  C   UNL     1       3.465  -4.609   1.323  0.00  0.00    +0.000 C 
BRANCH  13  21
ATOM     14  C   UNL     1       7.960  -2.361   1.782  0.00  0.00    +0.000 C 
ATOM     15  N   UNL     1       7.005  -1.271   1.723  0.00  0.00    +0.000 N 
ATOM     16  C   UNL     1       5.649  -1.624   1.620  0.00  0.00    +0.000 A 
ATOM     17  C   UNL     1       4.704  -0.603   1.567  0.00  0.00    +0.000 A 
ATOM     18  N   UNL     1       3.375  -0.804   1.428  0.00  0.00    +0.000 NA
ATOM     19  C   UNL     1       2.977  -2.096   1.334  0.00  0.00    +0.000 A 
ATOM     20  C   UNL     1       1.506  -2.286   1.126  0.00  0.00    +0.000 C 
ATOM     21  C   UNL     1       3.896  -3.152   1.410  0.00  0.00    +0.000 A 
ATOM     22  N   UNL     1       5.241  -2.908   1.522  0.00  0.00    +0.000 NA
ATOM     23  H   UNL     1       7.127  -0.618   2.492  0.00  0.00    +0.000 HD
ENDBRANCH  13  21
ENDBRANCH   1  13
TORSDOF 4
