REMARK  Name = 
REMARK  8 active torsions:
REMARK  status: ('A' for Active; 'I' for Inactive)
REMARK    1  A    between atoms: C_1  and  C_2
REMARK    2  A    between atoms: C_2  and  N_3
REMARK    3  A    between atoms: N_3  and  C_4
REMARK    4  A    between atoms: C_4  and  C_5
REMARK    5  A    between atoms: C_8  and  C_9
REMARK    6  A    between atoms: C_9  and  O_10
REMARK    7  A    between atoms: C_9  and  C_11
REMARK    8  A    between atoms: C_20  and  C_22
REMARK                            x       y       z     vdW  Elec       q    Type
REMARK                         _______ _______ _______ _____ _____    ______ ____
ROOT
ATOM      1  C   UNL     1       1.987   1.725   1.764  0.00  0.00    +0.000 C 
ENDROOT
BRANCH   1   2
ATOM      2  C   UNL     1       0.532   1.338   1.706  0.00  0.00    +0.000 A 
ATOM      3  C   UNL     1       0.144   0.004   1.902  0.00  0.00    +0.000 A 
ATOM      4  C   UNL     1      -1.151  -0.401   1.586  0.00  0.00    +0.000 A 
ATOM      5  C   UNL     1      -2.074   0.518   1.069  0.00  0.00    +0.000 A 
ATOM      6  C   UNL     1      -1.724   1.876   1.022  0.00  0.00    +0.000 A 
ATOM      7  C   UNL     1      -0.429   2.282   1.338  0.00  0.00    +0.000 A 
BRANCH   5   8
ATOM      8  C   UNL     1      -3.415   0.023   0.563  0.00  0.00    +0.000 C 
BRANCH   8   9
ATOM      9  C   UNL     1      -3.879   0.751  -0.731  0.00  0.00    +0.000 C 
ATOM     10  O   UNL     1      -4.659   1.707  -0.663  0.00  0.00    +0.000 OA
ATOM     11  N   UNL     1      -3.395   0.296  -1.944  0.00  0.00    +0.000 N 
ATOM     12  C   UNL     1      -2.444  -0.777  -2.169  0.00  0.00    +0.000 C 
ATOM     13  C   UNL     1      -1.891  -0.483  -3.554  0.00  0.00    +0.000 C 
ATOM     14  C   UNL     1      -3.078   0.126  -4.290  0.00  0.00    +0.000 C 
ATOM     15  C   UNL     1      -3.877   0.839  -3.203  0.00  0.00    +0.000 C 
ENDBRANCH   8   9
BRANCH   8  16
ATOM     16  O   UNL     1      -4.342   0.149   1.634  0.00  0.00    +0.000 OA
ATOM     17  H   UNL     1      -4.524   1.103   1.708  0.00  0.00    +0.000 HD
ENDBRANCH   8  16
ENDBRANCH   5   8
ENDBRANCH   1   2
BRANCH   1  18
ATOM     18  N   UNL     1       2.682   1.786   0.463  0.00  0.00    +0.000 N 
ATOM     19  C   UNL     1       3.900   2.453   0.258  0.00  0.00    +0.000 C 
ATOM     20  O   UNL     1       4.430   2.498  -0.851  0.00  0.00    +0.000 OA
BRANCH  19  21
ATOM     21  C   UNL     1       4.588   3.067   1.394  0.00  0.00    +0.000 A 
ATOM     22  C   UNL     1       4.878   2.416   2.580  0.00  0.00    +0.000 A 
ATOM     23  S   UNL     1       5.822   3.356   3.650  0.00  0.00    +0.000 S 
ATOM     24  C   UNL     1       5.961   4.612   2.509  0.00  0.00    +0.000 A 
ATOM     25  N   UNL     1       6.739   5.699   2.747  0.00  0.00    +0.000 NA
ATOM     26  C   UNL     1       6.791   6.534   1.766  0.00  0.00    +0.000 A 
ATOM     27  N   UNL     1       6.107   6.405   0.581  0.00  0.00    +0.000 N 
ATOM     28  C   UNL     1       5.212   5.383   0.345  0.00  0.00    +0.000 A 
ATOM     29  O   UNL     1       4.451   5.416  -0.616  0.00  0.00    +0.000 OA
ATOM     30  C   UNL     1       5.216   4.361   1.372  0.00  0.00    +0.000 A 
ATOM     31  H   UNL     1       6.140   7.131  -0.120  0.00  0.00    +0.000 HD
ENDBRANCH  19  21
BRANCH  18  33
ATOM     32  C   UNL     1       1.432   2.031  -1.682  0.00  0.00    +0.000 C 
ATOM     33  C   UNL     1       2.132   1.090  -0.710  0.00  0.00    +0.000 C 
ENDBRANCH  18  33
ENDBRANCH   1  18
TORSDOF 7
