REMARK  Name = 
REMARK  7 active torsions:
REMARK  status: ('A' for Active; 'I' for Inactive)
REMARK    1  A    between atoms: C_1  and  C_2
REMARK    2  A    between atoms: C_5  and  C_6
REMARK    3  A    between atoms: N_8  and  C_9
REMARK    4  A    between atoms: C_9  and  C_10
REMARK    5  A    between atoms: C_13  and  C_14
REMARK    6  A    between atoms: C_14  and  N_15
REMARK    7  A    between atoms: C_16  and  C_18
REMARK                            x       y       z     vdW  Elec       q    Type
REMARK                         _______ _______ _______ _____ _____    ______ ____
ROOT
ATOM      1  C   UNL     1      -5.809   2.880  -0.080  0.00  0.00    +0.000 A 
ATOM      2  C   UNL     1      -7.116   3.151   0.348  0.00  0.00    +0.000 A 
ATOM      3  C   UNL     1      -7.588   4.468   0.419  0.00  0.00    +0.000 A 
ATOM      4  C   UNL     1      -6.770   5.541   0.045  0.00  0.00    +0.000 A 
ATOM      5  C   UNL     1      -5.458   5.271  -0.369  0.00  0.00    +0.000 A 
ATOM      6  C   UNL     1      -4.987   3.955  -0.442  0.00  0.00    +0.000 A 
ENDROOT
BRANCH   1   7
ATOM      7  C   UNL     1      -5.298   1.463  -0.149  0.00  0.00    +0.000 C 
BRANCH   7  10
ATOM      8  C   UNL     1      -5.236  -0.478  -1.664  0.00  0.00    +0.000 C 
ATOM      9  O   UNL     1      -4.733  -1.217  -0.827  0.00  0.00    +0.000 OA
ATOM     10  N   UNL     1      -5.559   0.842  -1.423  0.00  0.00    +0.000 N 
ATOM     11  H   UNL     1      -5.931   1.380  -2.201  0.00  0.00    +0.000 HD
BRANCH   8  16
ATOM     12  C   UNL     1      -6.463  -2.175  -7.012  0.00  0.00    +0.000 C 
ATOM     13  C   UNL     1      -6.127  -1.784  -5.607  0.00  0.00    +0.000 A 
ATOM     14  C   UNL     1      -5.544  -2.684  -4.712  0.00  0.00    +0.000 A 
ATOM     15  C   UNL     1      -5.250  -2.271  -3.415  0.00  0.00    +0.000 A 
ATOM     16  C   UNL     1      -5.544  -0.961  -3.053  0.00  0.00    +0.000 A 
ATOM     17  N   UNL     1      -6.114  -0.056  -3.897  0.00  0.00    +0.000 NA
ATOM     18  C   UNL     1      -6.392  -0.496  -5.147  0.00  0.00    +0.000 A 
ENDBRANCH   8  16
ENDBRANCH   7  10
ENDBRANCH   1   7
BRANCH   4  19
ATOM     19  C   UNL     1      -7.274   6.961   0.103  0.00  0.00    +0.000 C 
BRANCH  19  20
ATOM     20  N   UNL     1      -7.026   7.564   1.388  0.00  0.00    +0.000 N 
ATOM     21  C   UNL     1      -7.453   8.838   1.670  0.00  0.00    +0.000 C 
ATOM     22  O   UNL     1      -8.107   9.498   0.868  0.00  0.00    +0.000 OA
ATOM     23  H   UNL     1      -6.304   7.141   1.964  0.00  0.00    +0.000 HD
BRANCH  21  24
ATOM     24  C   UNL     1      -7.146   9.352   3.012  0.00  0.00    +0.000 A 
ATOM     25  C   UNL     1      -7.924  10.365   3.558  0.00  0.00    +0.000 A 
ATOM     26  S   UNL     1      -7.463  10.806   5.140  0.00  0.00    +0.000 S 
ATOM     27  C   UNL     1      -6.173   9.697   5.132  0.00  0.00    +0.000 A 
ATOM     28  N   UNL     1      -5.343   9.581   6.203  0.00  0.00    +0.000 NA
ATOM     29  C   UNL     1      -4.392   8.721   6.050  0.00  0.00    +0.000 A 
ATOM     30  N   UNL     1      -4.198   7.964   4.925  0.00  0.00    +0.000 N 
ATOM     31  C   UNL     1      -5.023   8.031   3.827  0.00  0.00    +0.000 A 
ATOM     32  O   UNL     1      -4.840   7.316   2.847  0.00  0.00    +0.000 OA
ATOM     33  C   UNL     1      -6.106   8.988   3.945  0.00  0.00    +0.000 A 
ATOM     34  H   UNL     1      -3.437   7.302   4.870  0.00  0.00    +0.000 HD
ENDBRANCH  21  24
ENDBRANCH  19  20
ENDBRANCH   4  19
TORSDOF 6
