REMARK  Name = 
REMARK  9 active torsions:
REMARK  status: ('A' for Active; 'I' for Inactive)
REMARK    1  A    between atoms: C_1  and  C_2
REMARK    2  A    between atoms: C_2  and  N_3
REMARK    3  A    between atoms: C_2  and  C_19
REMARK    4  A    between atoms: N_3  and  C_4
REMARK    5  A    between atoms: C_7  and  C_8
REMARK    6  A    between atoms: C_8  and  O_9
REMARK    7  A    between atoms: C_8  and  C_10
REMARK    8  A    between atoms: C_10  and  N_11
REMARK    9  A    between atoms: C_14  and  O_15
REMARK                            x       y       z     vdW  Elec       q    Type
REMARK                         _______ _______ _______ _____ _____    ______ ____
ROOT
ATOM      1  C   UNL     1       0.392  -1.060   0.798  0.00  0.00    +0.000 A 
ATOM      2  C   UNL     1       0.987  -2.095   1.524  0.00  0.00    +0.000 A 
ATOM      3  C   UNL     1       0.252  -3.198   1.960  0.00  0.00    +0.000 A 
ATOM      4  C   UNL     1      -1.117  -3.296   1.681  0.00  0.00    +0.000 A 
ATOM      5  C   UNL     1      -1.740  -2.206   1.053  0.00  0.00    +0.000 A 
ATOM      6  C   UNL     1      -0.993  -1.102   0.622  0.00  0.00    +0.000 A 
ENDROOT
BRANCH   1   7
ATOM      7  N   UNL     1       1.146  -0.104   0.145  0.00  0.00    +0.000 N 
ATOM      8  H   UNL     1       0.837   0.866   0.134  0.00  0.00    +0.000 HD
BRANCH   7  10
ATOM      9  C   UNL     1       2.441   0.189  -1.892  0.00  0.00    +0.000 C 
ATOM     10  C   UNL     1       2.420  -0.420  -0.489  0.00  0.00    +0.000 C 
BRANCH  10  11
ATOM     11  C   UNL     1       3.671  -0.092   0.308  0.00  0.00    +0.000 A 
ATOM     12  C   UNL     1       4.812  -0.880   0.295  0.00  0.00    +0.000 A 
ATOM     13  S   UNL     1       5.953  -0.422   1.483  0.00  0.00    +0.000 S 
ATOM     14  C   UNL     1       5.079   0.987   1.857  0.00  0.00    +0.000 A 
ATOM     15  N   UNL     1       5.575   1.917   2.712  0.00  0.00    +0.000 NA
ATOM     16  C   UNL     1       4.878   3.002   2.776  0.00  0.00    +0.000 A 
ATOM     17  N   UNL     1       3.691   3.217   2.113  0.00  0.00    +0.000 N 
ATOM     18  C   UNL     1       3.110   2.264   1.305  0.00  0.00    +0.000 A 
ATOM     19  O   UNL     1       2.043   2.494   0.729  0.00  0.00    +0.000 OA
ATOM     20  C   UNL     1       3.890   1.057   1.145  0.00  0.00    +0.000 A 
ATOM     21  H   UNL     1       3.216   4.100   2.182  0.00  0.00    +0.000 HD
ENDBRANCH  10  11
ENDBRANCH   7  10
ENDBRANCH   1   7
BRANCH   4  22
ATOM     22  C   UNL     1      -1.875  -4.563   2.028  0.00  0.00    +0.000 C 
BRANCH  22  23
ATOM     23  O   UNL     1      -2.908  -4.225   2.954  0.00  0.00    +0.000 OA
ATOM     24  H   UNL     1      -3.607  -3.782   2.448  0.00  0.00    +0.000 HD
ENDBRANCH  22  23
BRANCH  22  25
ATOM     25  C   UNL     1      -2.447  -5.288   0.765  0.00  0.00    +0.000 C 
BRANCH  25  26
ATOM     26  N   UNL     1      -3.222  -6.513   1.042  0.00  0.00    +0.000 NA
ATOM     27  C   UNL     1      -2.414  -7.574   1.660  0.00  0.00    +0.000 C 
ATOM     28  C   UNL     1      -2.962  -8.902   1.140  0.00  0.00    +0.000 C 
ATOM     29  C   UNL     1      -4.136  -8.527   0.251  0.00  0.00    +0.000 C 
ATOM     30  C   UNL     1      -3.821  -7.093  -0.172  0.00  0.00    +0.000 C 
BRANCH  29  31
ATOM     31  O   UNL     1      -5.346  -8.579   1.005  0.00  0.00    +0.000 OA
ATOM     32  H   UNL     1      -5.296  -7.842   1.641  0.00  0.00    +0.000 HD
ENDBRANCH  29  31
ENDBRANCH  25  26
ENDBRANCH  22  25
ENDBRANCH   4  22
TORSDOF 8
