REMARK  Name = 
REMARK  6 active torsions:
REMARK  status: ('A' for Active; 'I' for Inactive)
REMARK    1  A    between atoms: C_1  and  C_2
REMARK    2  A    between atoms: C_2  and  C_3
REMARK    3  A    between atoms: C_2  and  C_4
REMARK    4  A    between atoms: C_2  and  C_19
REMARK    5  A    between atoms: C_4  and  N_5
REMARK    6  A    between atoms: C_11  and  C_12
REMARK                            x       y       z     vdW  Elec       q    Type
REMARK                         _______ _______ _______ _____ _____    ______ ____
ROOT
ATOM      1  N   UNL     1       2.778  -2.234   1.050  0.00  0.00    +0.000 N 
ATOM      2  C   UNL     1       3.107  -3.596   0.960  0.00  0.00    +0.000 A 
ATOM      3  C   UNL     1       2.767  -4.397   2.051  0.00  0.00    +0.000 A 
ATOM      4  C   UNL     1       3.048  -5.756   2.021  0.00  0.00    +0.000 A 
ATOM      5  C   UNL     1       3.668  -6.280   0.901  0.00  0.00    +0.000 A 
ATOM      6  F   UNL     1       3.945  -7.592   0.880  0.00  0.00    +0.000 F 
ATOM      7  C   UNL     1       3.999  -5.440  -0.163  0.00  0.00    +0.000 A 
ATOM      8  N   UNL     1       3.735  -4.100  -0.122  0.00  0.00    +0.000 NA
ATOM      9  H   UNL     1       1.797  -2.178   1.308  0.00  0.00    +0.000 HD
ENDROOT
BRANCH   7  10
ATOM     10  C   UNL     1       4.642  -5.931  -1.396  0.00  0.00    +0.000 A 
ATOM     11  C   UNL     1       5.549  -5.148  -2.124  0.00  0.00    +0.000 A 
ATOM     12  C   UNL     1       6.155  -5.646  -3.278  0.00  0.00    +0.000 A 
ATOM     13  C   UNL     1       5.829  -6.926  -3.691  0.00  0.00    +0.000 A 
ATOM     14  N   UNL     1       4.953  -7.717  -3.042  0.00  0.00    +0.000 NA
ATOM     15  C   UNL     1       4.386  -7.201  -1.922  0.00  0.00    +0.000 A 
ENDBRANCH   7  10
BRANCH   1  16
ATOM     16  C   UNL     1       3.086  -1.404  -0.129  0.00  0.00    +0.000 C 
BRANCH  16  18
ATOM     17  C   UNL     1       1.032   0.069   0.193  0.00  0.00    +0.000 C 
ATOM     18  C   UNL     1       2.571   0.058   0.055  0.00  0.00    +0.000 C 
ATOM     19  C   UNL     1       3.210   0.684   1.311  0.00  0.00    +0.000 C 
BRANCH  18  20
ATOM     20  C   UNL     1       2.919   0.922  -1.159  0.00  0.00    +0.000 A 
ATOM     21  N   UNL     1       2.545   2.221  -1.120  0.00  0.00    +0.000 NA
ATOM     22  C   UNL     1       2.779   2.963  -2.217  0.00  0.00    +0.000 A 
ATOM     23  C   UNL     1       3.373   2.467  -3.350  0.00  0.00    +0.000 A 
ATOM     24  C   UNL     1       3.727   1.142  -3.296  0.00  0.00    +0.000 A 
ATOM     25  N   UNL     1       3.511   0.352  -2.225  0.00  0.00    +0.000 NA
ENDBRANCH  18  20
ENDBRANCH  16  18
ENDBRANCH   1  16
TORSDOF 4
