REMARK  Name = 
REMARK  7 active torsions:
REMARK  status: ('A' for Active; 'I' for Inactive)
REMARK    1  A    between atoms: N_1  and  C_2
REMARK    2  A    between atoms: C_2  and  C_3
REMARK    3  A    between atoms: C_3  and  C_4
REMARK    4  A    between atoms: C_7  and  C_8
REMARK    5  A    between atoms: C_8  and  N_10
REMARK    6  A    between atoms: N_10  and  C_11
REMARK    7  A    between atoms: C_11  and  C_12
REMARK                            x       y       z     vdW  Elec       q    Type
REMARK                         _______ _______ _______ _____ _____    ______ ____
ROOT
ATOM      1  C   UNL     1       8.829   0.768  -1.307  0.00  0.00    +0.000 C 
ATOM      2  S   UNL     1       9.741   1.126   0.057  0.00  0.00    +0.000 S 
ENDROOT
BRANCH   1   6
ATOM      3  C   UNL     1       4.525   0.586  -1.330  0.00  0.00    +0.000 A 
ATOM      4  C   UNL     1       5.219   1.234  -2.359  0.00  0.00    +0.000 A 
ATOM      5  C   UNL     1       6.613   1.311  -2.332  0.00  0.00    +0.000 A 
ATOM      6  C   UNL     1       7.341   0.698  -1.305  0.00  0.00    +0.000 A 
ATOM      7  C   UNL     1       6.649   0.050  -0.274  0.00  0.00    +0.000 A 
ATOM      8  C   UNL     1       5.251  -0.002  -0.286  0.00  0.00    +0.000 A 
BRANCH   3   9
ATOM      9  C   UNL     1       3.016   0.527  -1.345  0.00  0.00    +0.000 C 
BRANCH   9  10
ATOM     10  C   UNL     1       2.489  -0.736  -2.032  0.00  0.00    +0.000 C 
BRANCH  10  11
ATOM     11  N   UNL     1       1.027  -0.753  -2.039  0.00  0.00    +0.000 NA
ATOM     12  H   UNL     1       0.701  -1.595  -2.514  0.00  0.00    +0.000 HD
ATOM     13  H   UNL     1       0.675   0.033  -2.585  0.00  0.00    +0.000 HD
ENDBRANCH  10  11
ENDBRANCH   9  10
ENDBRANCH   3   9
ENDBRANCH   1   6
BRANCH   1  14
ATOM     14  N   UNL     1       9.521   0.548  -2.476  0.00  0.00    +0.000 N 
ATOM     15  H   UNL     1      10.524   0.695  -2.415  0.00  0.00    +0.000 HD
BRANCH  14  16
ATOM     16  C   UNL     1       9.053  -0.057  -3.716  0.00  0.00    +0.000 C 
BRANCH  16  17
ATOM     17  C   UNL     1       9.990  -1.150  -4.176  0.00  0.00    +0.000 A 
ATOM     18  C   UNL     1       9.857  -2.435  -3.661  0.00  0.00    +0.000 A 
ATOM     19  C   UNL     1      10.736  -3.410  -4.109  0.00  0.00    +0.000 A 
ATOM     20 BR   UNL     1      10.574  -5.180  -3.467  0.00  0.00    +0.000 Br
ATOM     21  C   UNL     1      11.726  -3.096  -5.028  0.00  0.00    +0.000 A 
ATOM     22  C   UNL     1      11.798  -1.789  -5.470  0.00  0.00    +0.000 A 
ATOM     23  N   UNL     1      10.958  -0.810  -5.062  0.00  0.00    +0.000 NA
ENDBRANCH  16  17
ENDBRANCH  14  16
ENDBRANCH   1  14
TORSDOF 7
