REMARK  Name = 
REMARK  6 active torsions:
REMARK  status: ('A' for Active; 'I' for Inactive)
REMARK    1  A    between atoms: C_1  and  O_2
REMARK    2  A    between atoms: O_2  and  C_3
REMARK    3  A    between atoms: C_7  and  N_8
REMARK    4  A    between atoms: N_8  and  C_9
REMARK    5  A    between atoms: C_9  and  C_10
REMARK    6  A    between atoms: C_14  and  C_15
REMARK                            x       y       z     vdW  Elec       q    Type
REMARK                         _______ _______ _______ _____ _____    ______ ____
ROOT
ATOM      1  C   UNL     1       7.670  -2.129  -3.035  0.00  0.00    +0.000 A 
ATOM      2  C   UNL     1       7.817  -3.498  -3.202  0.00  0.00    +0.000 A 
ATOM      3  N   UNL     1       8.890  -4.072  -3.781  0.00  0.00    +0.000 NA
ATOM      4  C   UNL     1       9.866  -3.238  -4.219  0.00  0.00    +0.000 A 
ATOM      5  C   UNL     1       9.840  -1.844  -4.125  0.00  0.00    +0.000 A 
ATOM      6  C   UNL     1       8.695  -1.303  -3.518  0.00  0.00    +0.000 A 
ENDROOT
BRANCH   5   7
ATOM      7  C   UNL     1      10.934  -0.994  -4.633  0.00  0.00    +0.000 A 
ATOM      8  C   UNL     1      11.299   0.210  -4.010  0.00  0.00    +0.000 A 
ATOM      9  C   UNL     1      12.330   0.998  -4.524  0.00  0.00    +0.000 A 
ATOM     10  C   UNL     1      12.990   0.558  -5.656  0.00  0.00    +0.000 A 
ATOM     11  N   UNL     1      12.688  -0.591  -6.292  0.00  0.00    +0.000 NA
ATOM     12  C   UNL     1      11.675  -1.328  -5.771  0.00  0.00    +0.000 A 
ENDBRANCH   5   7
BRANCH   1  13
ATOM     13  C   UNL     1       6.434  -1.553  -2.402  0.00  0.00    +0.000 C 
BRANCH  13  14
ATOM     14  N   UNL     1       5.461  -1.255  -3.444  0.00  0.00    +0.000 N 
ATOM     15  H   UNL     1       5.260  -2.063  -4.027  0.00  0.00    +0.000 HD
BRANCH  14  20
ATOM     16  C   UNL     1       2.969   0.183  -1.281  0.00  0.00    +0.000 A 
ATOM     17  C   UNL     1       1.947   0.449  -2.178  0.00  0.00    +0.000 A 
ATOM     18  N   UNL     1       2.046   0.151  -3.494  0.00  0.00    +0.000 NA
ATOM     19  C   UNL     1       3.223  -0.413  -3.859  0.00  0.00    +0.000 A 
ATOM     20  C   UNL     1       4.262  -0.703  -2.964  0.00  0.00    +0.000 A 
ATOM     21  N   UNL     1       4.135  -0.393  -1.657  0.00  0.00    +0.000 NA
BRANCH  16  23
ATOM     22  C   UNL     1       3.880   0.200   0.869  0.00  0.00    +0.000 C 
ATOM     23  O   UNL     1       2.773   0.537   0.038  0.00  0.00    +0.000 OA
ENDBRANCH  16  23
ENDBRANCH  14  20
ENDBRANCH  13  14
ENDBRANCH   1  13
TORSDOF 5
