REMARK  Name = 
REMARK  8 active torsions:
REMARK  status: ('A' for Active; 'I' for Inactive)
REMARK    1  A    between atoms: C_1  and  C_2
REMARK    2  A    between atoms: C_2  and  C_3
REMARK    3  A    between atoms: C_7  and  C_8
REMARK    4  A    between atoms: C_8  and  C_9
REMARK    5  A    between atoms: C_9  and  N_10
REMARK    6  A    between atoms: N_10  and  C_11
REMARK    7  A    between atoms: C_14  and  C_15
REMARK    8  A    between atoms: C_23  and  O_24
REMARK                            x       y       z     vdW  Elec       q    Type
REMARK                         _______ _______ _______ _____ _____    ______ ____
ROOT
ATOM      1  C   UNL     1       2.853   0.355   1.477  0.00  0.00    +0.000 A 
ATOM      2  C   UNL     1       2.626   1.632   2.013  0.00  0.00    +0.000 A 
ATOM      3  C   UNL     1       2.953   1.926   3.343  0.00  0.00    +0.000 A 
ATOM      4  C   UNL     1       3.504   0.948   4.173  0.00  0.00    +0.000 A 
ATOM      5  C   UNL     1       3.753  -0.333   3.678  0.00  0.00    +0.000 A 
ATOM      6  C   UNL     1       3.441  -0.590   2.329  0.00  0.00    +0.000 A 
ENDROOT
BRANCH   1   8
ATOM      7  C   UNL     1       0.844   0.074   0.047  0.00  0.00    +0.000 C 
ATOM      8  C   UNL     1       2.389  -0.025   0.049  0.00  0.00    +0.000 C 
ATOM      9  C   UNL     1       3.006   0.950  -0.988  0.00  0.00    +0.000 C 
ATOM     10  C   UNL     1       2.704   0.582  -2.447  0.00  0.00    +0.000 C 
ATOM     11  C   UNL     1       3.066  -0.860  -2.796  0.00  0.00    +0.000 C 
ATOM     12  C   UNL     1       2.474  -1.853  -1.804  0.00  0.00    +0.000 C 
ATOM     13  C   UNL     1       2.790  -1.480  -0.356  0.00  0.00    +0.000 C 
BRANCH  11  14
ATOM     14  O   UNL     1       4.483  -1.015  -2.850  0.00  0.00    +0.000 OA
ATOM     15  H   UNL     1       4.865  -0.742  -2.000  0.00  0.00    +0.000 HD
ENDBRANCH  11  14
ENDBRANCH   1   8
BRANCH   5  16
ATOM     16  C   UNL     1       4.295  -1.417   4.602  0.00  0.00    +0.000 C 
BRANCH  16  17
ATOM     17  C   UNL     1       4.549  -2.745   3.879  0.00  0.00    +0.000 C 
BRANCH  17  18
ATOM     18  N   UNL     1       5.016  -3.831   4.744  0.00  0.00    +0.000 N 
ATOM     19  H   UNL     1       4.417  -3.952   5.562  0.00  0.00    +0.000 HD
BRANCH  18  20
ATOM     20  C   UNL     1       5.195  -5.053   4.061  0.00  0.00    +0.000 A 
ATOM     21  C   UNL     1       5.642  -5.170   2.748  0.00  0.00    +0.000 A 
ATOM     22  N   UNL     1       5.849  -6.331   2.092  0.00  0.00    +0.000 NA
ATOM     23  C   UNL     1       5.635  -7.447   2.821  0.00  0.00    +0.000 A 
ATOM     24  N   UNL     1       5.252  -7.482   4.112  0.00  0.00    +0.000 NA
ATOM     25  C   UNL     1       5.064  -6.278   4.698  0.00  0.00    +0.000 A 
BRANCH  23  26
ATOM     26  C   UNL     1       5.849  -8.754   2.094  0.00  0.00    +0.000 C 
ATOM     27  N   UNL     1       6.250  -8.641   0.781  0.00  0.00    +0.000 N 
ATOM     28  O   UNL     1       5.691  -9.855   2.604  0.00  0.00    +0.000 OA
ATOM     29  H   UNL     1       6.389  -7.724   0.372  0.00  0.00    +0.000 HD
ATOM     30  H   UNL     1       6.421  -9.479   0.245  0.00  0.00    +0.000 HD
ENDBRANCH  23  26
ENDBRANCH  18  20
ENDBRANCH  17  18
ENDBRANCH  16  17
ENDBRANCH   5  16
TORSDOF 7
