REMARK  Name = 
REMARK  4 active torsions:
REMARK  status: ('A' for Active; 'I' for Inactive)
REMARK    1  A    between atoms: C_2  and  C_4
REMARK    2  A    between atoms: N_8  and  C_9
REMARK    3  A    between atoms: C_9  and  C_10
REMARK    4  A    between atoms: C_15  and  C_16
REMARK                            x       y       z     vdW  Elec       q    Type
REMARK                         _______ _______ _______ _____ _____    ______ ____
ROOT
ATOM      1  C   UNL     1       5.547  -4.100   3.911  0.00  0.00    +0.000 C 
ATOM      2  C   UNL     1       5.362  -5.469   3.264  0.00  0.00    +0.000 C 
ATOM      3  C   UNL     1       4.225  -4.839   3.993  0.00  0.00    +0.000 C 
ENDROOT
BRANCH   1   8
ATOM      4  C   UNL     1       4.008   0.801   2.998  0.00  0.00    +0.000 A 
ATOM      5  C   UNL     1       3.277  -0.264   3.513  0.00  0.00    +0.000 A 
ATOM      6  C   UNL     1       3.857  -1.535   3.560  0.00  0.00    +0.000 A 
ATOM      7  C   UNL     1       5.151  -1.722   3.087  0.00  0.00    +0.000 A 
ATOM      8  N   UNL     1       5.757  -2.978   2.982  0.00  0.00    +0.000 N 
ATOM      9  N   UNL     1       5.874  -0.692   2.600  0.00  0.00    +0.000 NA
ATOM     10  C   UNL     1       5.295   0.538   2.559  0.00  0.00    +0.000 A 
ATOM     11  H   UNL     1       6.716  -2.803   2.684  0.00  0.00    +0.000 HD
BRANCH   4  13
ATOM     12  N   UNL     1       2.419   2.519   3.664  0.00  0.00    +0.000 N 
ATOM     13  C   UNL     1       3.461   2.166   2.851  0.00  0.00    +0.000 C 
ATOM     14  O   UNL     1       3.927   2.958   2.045  0.00  0.00    +0.000 OA
ATOM     15  H   UNL     1       2.095   3.476   3.594  0.00  0.00    +0.000 HD
ATOM     16  H   UNL     1       2.144   1.990   4.478  0.00  0.00    +0.000 HD
ENDBRANCH   4  13
ENDBRANCH   1   8
BRANCH   1  17
ATOM     17  C   UNL     1       6.443  -4.037   5.145  0.00  0.00    +0.000 A 
ATOM     18  C   UNL     1       7.716  -4.631   5.156  0.00  0.00    +0.000 A 
ATOM     19  C   UNL     1       8.554  -4.521   6.262  0.00  0.00    +0.000 A 
ATOM     20  C   UNL     1       8.139  -3.796   7.376  0.00  0.00    +0.000 A 
ATOM     21  F   UNL     1       9.004  -3.686   8.395  0.00  0.00    +0.000 F 
ATOM     22  C   UNL     1       6.877  -3.184   7.437  0.00  0.00    +0.000 A 
ATOM     23  C   UNL     1       6.047  -3.336   6.303  0.00  0.00    +0.000 A 
BRANCH  22  24
ATOM     24  C   UNL     1       6.425  -2.408   8.615  0.00  0.00    +0.000 A 
ATOM     25  C   UNL     1       5.560  -1.307   8.496  0.00  0.00    +0.000 A 
ATOM     26  C   UNL     1       5.126  -0.609   9.622  0.00  0.00    +0.000 A 
ATOM     27  C   UNL     1       5.580  -1.017  10.861  0.00  0.00    +0.000 A 
ATOM     28  N   UNL     1       6.416  -2.056  11.039  0.00  0.00    +0.000 NA
ATOM     29  C   UNL     1       6.816  -2.718   9.922  0.00  0.00    +0.000 A 
ENDBRANCH  22  24
ENDBRANCH   1  17
TORSDOF 4
