REMARK  Name = 
REMARK  7 active torsions:
REMARK  status: ('A' for Active; 'I' for Inactive)
REMARK    1  A    between atoms: C_2  and  C_3
REMARK    2  A    between atoms: C_6  and  C_7
REMARK    3  A    between atoms: N_9  and  C_10
REMARK    4  A    between atoms: C_10  and  C_11
REMARK    5  A    between atoms: C_14  and  C_15
REMARK    6  A    between atoms: C_15  and  N_16
REMARK    7  A    between atoms: C_17  and  C_19
REMARK                            x       y       z     vdW  Elec       q    Type
REMARK                         _______ _______ _______ _____ _____    ______ ____
ROOT
ATOM      1  C   UNL     1      10.544   0.200  -0.700  0.00  0.00    +0.000 C 
ATOM      2  C   UNL     1      10.433  -1.243  -0.173  0.00  0.00    +0.000 C 
ATOM      3  C   UNL     1      11.702  -1.736   0.528  0.00  0.00    +0.000 C 
ATOM      4  C   UNL     1      12.187  -0.796   1.644  0.00  0.00    +0.000 C 
ATOM      5  C   UNL     1      12.345   0.621   1.068  0.00  0.00    +0.000 C 
ATOM      6  C   UNL     1      11.059   1.131   0.413  0.00  0.00    +0.000 C 
ENDROOT
BRANCH   1   7
ATOM      7  C   UNL     1      11.411   0.317  -1.972  0.00  0.00    +0.000 C 
BRANCH   7  10
ATOM      8  C   UNL     1       9.925   0.129  -3.958  0.00  0.00    +0.000 C 
ATOM      9  O   UNL     1       9.436   1.245  -3.827  0.00  0.00    +0.000 OA
ATOM     10  N   UNL     1      10.857  -0.411  -3.098  0.00  0.00    +0.000 N 
ATOM     11  H   UNL     1      11.286  -1.287  -3.385  0.00  0.00    +0.000 HD
BRANCH   8  15
ATOM     12  C   UNL     1      10.340  -0.151  -7.178  0.00  0.00    +0.000 C 
ATOM     13  C   UNL     1      10.990  -1.458  -6.757  0.00  0.00    +0.000 C 
ATOM     14  O   UNL     1      10.546  -1.761  -5.422  0.00  0.00    +0.000 OA
ATOM     15  C   UNL     1       9.491  -0.852  -5.067  0.00  0.00    +0.000 C 
ATOM     16  C   UNL     1       9.071  -0.150  -6.352  0.00  0.00    +0.000 C 
BRANCH  12  18
ATOM     17  N   UNL     1      11.940   1.874  -6.665  0.00  0.00    +0.000 NA
ATOM     18  C   UNL     1      11.220   0.989  -6.875  0.00  0.00    +0.000 C 
ENDBRANCH  12  18
ENDBRANCH   8  15
ENDBRANCH   7  10
ENDBRANCH   1   7
BRANCH   4  19
ATOM     19  C   UNL     1      11.271  -0.795   2.885  0.00  0.00    +0.000 C 
BRANCH  19  20
ATOM     20  N   UNL     1      11.175  -2.096   3.516  0.00  0.00    +0.000 N 
ATOM     21  C   UNL     1      11.943  -2.459   4.594  0.00  0.00    +0.000 C 
ATOM     22  O   UNL     1      12.800  -1.716   5.065  0.00  0.00    +0.000 OA
ATOM     23  H   UNL     1      10.573  -2.787   3.077  0.00  0.00    +0.000 HD
BRANCH  21  24
ATOM     24  C   UNL     1      11.651  -3.763   5.206  0.00  0.00    +0.000 A 
ATOM     25  C   UNL     1      11.988  -3.979   6.535  0.00  0.00    +0.000 A 
ATOM     26  S   UNL     1      11.608  -5.544   7.096  0.00  0.00    +0.000 S 
ATOM     27  C   UNL     1      11.009  -6.002   5.572  0.00  0.00    +0.000 A 
ATOM     28  N   UNL     1      10.560  -7.265   5.352  0.00  0.00    +0.000 NA
ATOM     29  C   UNL     1      10.168  -7.492   4.141  0.00  0.00    +0.000 A 
ATOM     30  N   UNL     1      10.168  -6.558   3.138  0.00  0.00    +0.000 N 
ATOM     31  C   UNL     1      10.531  -5.248   3.337  0.00  0.00    +0.000 A 
ATOM     32  O   UNL     1      10.376  -4.402   2.462  0.00  0.00    +0.000 OA
ATOM     33  C   UNL     1      11.052  -4.960   4.662  0.00  0.00    +0.000 A 
ATOM     34  H   UNL     1       9.810  -6.787   2.224  0.00  0.00    +0.000 HD
ENDBRANCH  21  24
ENDBRANCH  19  20
ENDBRANCH   4  19
TORSDOF 7
