REMARK  Name = 
REMARK  7 active torsions:
REMARK  status: ('A' for Active; 'I' for Inactive)
REMARK    1  A    between atoms: C_1  and  C_2
REMARK    2  A    between atoms: C_5  and  O_6
REMARK    3  A    between atoms: O_6  and  C_7
REMARK    4  A    between atoms: C_11  and  C_12
REMARK    5  A    between atoms: C_12  and  C_13
REMARK    6  A    between atoms: C_13  and  N_14
REMARK    7  A    between atoms: C_18  and  C_19
REMARK                            x       y       z     vdW  Elec       q    Type
REMARK                         _______ _______ _______ _____ _____    ______ ____
ROOT
ATOM      1  C   UNL     1      -0.672   5.177   4.776  0.00  0.00    +0.000 C 
ENDROOT
BRANCH   1   2
ATOM      2  N   UNL     1      -0.849   6.193   5.801  0.00  0.00    +0.000 N 
ATOM      3  C   UNL     1      -1.543   5.812   6.950  0.00  0.00    +0.000 A 
ATOM      4  C   UNL     1      -1.494   4.525   7.505  0.00  0.00    +0.000 A 
ATOM      5  N   UNL     1      -2.143   4.146   8.638  0.00  0.00    +0.000 NA
ATOM      6  C   UNL     1      -2.843   5.137   9.238  0.00  0.00    +0.000 A 
ATOM      7  C   UNL     1      -2.888   6.425   8.719  0.00  0.00    +0.000 A 
ATOM      8  N   UNL     1      -2.250   6.782   7.566  0.00  0.00    +0.000 NA
ATOM      9  H   UNL     1      -1.224   7.091   5.498  0.00  0.00    +0.000 HD
BRANCH   6  10
ATOM     10  C   UNL     1      -3.574   4.798  10.494  0.00  0.00    +0.000 C 
ATOM     11  N   UNL     1      -3.487   3.500  10.909  0.00  0.00    +0.000 N 
ATOM     12  O   UNL     1      -4.216   5.639  11.112  0.00  0.00    +0.000 OA
ATOM     13  H   UNL     1      -2.954   2.825  10.384  0.00  0.00    +0.000 HD
ATOM     14  H   UNL     1      -3.966   3.220  11.760  0.00  0.00    +0.000 HD
ENDBRANCH   6  10
ENDBRANCH   1   2
BRANCH   1  15
ATOM     15  C   UNL     1       0.122   5.684   3.565  0.00  0.00    +0.000 C 
BRANCH  15  20
ATOM     16  C   UNL     1       1.298   2.446   1.956  0.00  0.00    +0.000 A 
ATOM     17  C   UNL     1       0.263   2.199   1.054  0.00  0.00    +0.000 A 
ATOM     18  C   UNL     1      -0.730   3.155   0.854  0.00  0.00    +0.000 A 
ATOM     19  C   UNL     1      -0.727   4.331   1.603  0.00  0.00    +0.000 A 
ATOM     20  C   UNL     1       0.256   4.543   2.580  0.00  0.00    +0.000 A 
ATOM     21  C   UNL     1       1.285   3.600   2.735  0.00  0.00    +0.000 A 
BRANCH  16  22
ATOM     22  O   UNL     1       2.282   1.495   2.009  0.00  0.00    +0.000 OA
BRANCH  22  27
ATOM     23  C   UNL     1       3.811   3.819   0.477  0.00  0.00    +0.000 C 
ATOM     24  C   UNL     1       4.438   2.875   1.481  0.00  0.00    +0.000 C 
ATOM     25  O   UNL     1       5.078   1.746   0.817  0.00  0.00    +0.000 OA
ATOM     26  C   UNL     1       4.715   0.900   1.942  0.00  0.00    +0.000 C 
ATOM     27  C   UNL     1       3.623   1.900   2.379  0.00  0.00    +0.000 C 
ENDBRANCH  22  27
ENDBRANCH  16  22
ENDBRANCH  15  20
ENDBRANCH   1  15
TORSDOF 6
