REMARK  Name = 
REMARK  5 active torsions:
REMARK  status: ('A' for Active; 'I' for Inactive)
REMARK    1  A    between atoms: C_5  and  N_6
REMARK    2  A    between atoms: N_6  and  C_7
REMARK    3  A    between atoms: C_7  and  C_8
REMARK    4  A    between atoms: C_8  and  C_9
REMARK    5  A    between atoms: C_13  and  C_14
REMARK                            x       y       z     vdW  Elec       q    Type
REMARK                         _______ _______ _______ _____ _____    ______ ____
ROOT
ATOM      1  C   UNL     1       5.476  -1.070   0.081  0.00  0.00    +0.000 C 
ENDROOT
BRANCH   1   2
ATOM      2  C   UNL     1       6.233  -2.372   0.076  0.00  0.00    +0.000 A 
ATOM      3  C   UNL     1       6.606  -2.993   1.260  0.00  0.00    +0.000 A 
ATOM      4  N   UNL     1       7.283  -4.157   1.314  0.00  0.00    +0.000 NA
ATOM      5  C   UNL     1       7.603  -4.735   0.129  0.00  0.00    +0.000 A 
ATOM      6  C   UNL     1       7.269  -4.233  -1.132  0.00  0.00    +0.000 A 
ATOM      7  C   UNL     1       6.560  -3.019  -1.124  0.00  0.00    +0.000 A 
BRANCH   6   8
ATOM      8  C   UNL     1       7.631  -4.930  -2.387  0.00  0.00    +0.000 A 
ATOM      9  C   UNL     1       7.715  -6.329  -2.459  0.00  0.00    +0.000 A 
ATOM     10  C   UNL     1       8.049  -6.936  -3.663  0.00  0.00    +0.000 A 
ATOM     11  N   UNL     1       8.298  -6.259  -4.801  0.00  0.00    +0.000 NA
ATOM     12  C   UNL     1       8.217  -4.918  -4.729  0.00  0.00    +0.000 A 
ATOM     13  C   UNL     1       7.900  -4.223  -3.570  0.00  0.00    +0.000 A 
ENDBRANCH   6   8
ENDBRANCH   1   2
BRANCH   1  14
ATOM     14  C   UNL     1       3.959  -1.289   0.091  0.00  0.00    +0.000 C 
BRANCH  14  15
ATOM     15  N   UNL     1       3.253  -0.002   0.090  0.00  0.00    +0.000 N 
ATOM     16  H   UNL     1       3.620   0.651  -0.601  0.00  0.00    +0.000 HD
BRANCH  15  21
ATOM     17  N   UNL     1      -2.266   0.075   0.162  0.00  0.00    +0.000 N 
ATOM     18  C   UNL     1      -0.887   0.043   0.128  0.00  0.00    +0.000 A 
ATOM     19  N   UNL     1      -0.288  -1.029   0.647  0.00  0.00    +0.000 NA
ATOM     20  C   UNL     1       1.064  -1.034   0.615  0.00  0.00    +0.000 A 
ATOM     21  C   UNL     1       1.854  -0.036   0.072  0.00  0.00    +0.000 A 
ATOM     22  C   UNL     1       1.102   1.042  -0.370  0.00  0.00    +0.000 A 
ATOM     23  N   UNL     1      -0.250   1.104  -0.364  0.00  0.00    +0.000 NA
ATOM     24  H   UNL     1      -2.593  -0.528   0.903  0.00  0.00    +0.000 HD
ATOM     25  H   UNL     1      -2.580   1.035   0.174  0.00  0.00    +0.000 HD
ENDBRANCH  15  21
ENDBRANCH  14  15
ENDBRANCH   1  14
TORSDOF 5
