REMARK  Name = 
REMARK  5 active torsions:
REMARK  status: ('A' for Active; 'I' for Inactive)
REMARK    1  A    between atoms: C_2  and  C_4
REMARK    2  A    between atoms: C_7  and  O_8
REMARK    3  A    between atoms: O_8  and  C_9
REMARK    4  A    between atoms: C_9  and  C_10
REMARK    5  A    between atoms: C_14  and  C_15
REMARK                            x       y       z     vdW  Elec       q    Type
REMARK                         _______ _______ _______ _____ _____    ______ ____
ROOT
ATOM      1  C   UNL     1       5.357  -4.620   3.186  0.00  0.00    +0.000 C 
ATOM      2  C   UNL     1       4.874  -3.283   2.637  0.00  0.00    +0.000 C 
ATOM      3  C   UNL     1       5.841  -4.103   1.844  0.00  0.00    +0.000 C 
ENDROOT
BRANCH   1   4
ATOM      4  C   UNL     1       6.241  -4.539   4.437  0.00  0.00    +0.000 A 
ATOM      5  N   UNL     1       5.681  -4.164   5.604  0.00  0.00    +0.000 NA
ATOM      6  C   UNL     1       6.500  -4.029   6.662  0.00  0.00    +0.000 A 
ATOM      7  C   UNL     1       7.854  -4.249   6.608  0.00  0.00    +0.000 A 
ATOM      8  C   UNL     1       8.357  -4.676   5.396  0.00  0.00    +0.000 A 
ATOM      9  N   UNL     1       7.560  -4.802   4.309  0.00  0.00    +0.000 NA
BRANCH   8  10
ATOM     10  C   UNL     1       9.849  -4.957   5.219  0.00  0.00    +0.000 C 
ATOM     11  C   UNL     1      10.179  -5.990   4.133  0.00  0.00    +0.000 C 
ATOM     12  C   UNL     1       9.767  -7.393   4.561  0.00  0.00    +0.000 C 
ATOM     13  C   UNL     1      10.336  -7.737   5.930  0.00  0.00    +0.000 C 
ATOM     14  C   UNL     1      10.173  -6.612   6.943  0.00  0.00    +0.000 C 
ATOM     15  O   UNL     1      10.525  -5.326   6.435  0.00  0.00    +0.000 OA
ENDBRANCH   8  10
ENDBRANCH   1   4
BRANCH   1  16
ATOM     16  O   UNL     1       4.341  -5.654   3.121  0.00  0.00    +0.000 OA
BRANCH  16  20
ATOM     17  C   UNL     1       5.342  -9.632   2.861  0.00  0.00    +0.000 A 
ATOM     18  C   UNL     1       4.014  -9.262   3.022  0.00  0.00    +0.000 A 
ATOM     19  C   UNL     1       3.715  -7.904   3.093  0.00  0.00    +0.000 A 
ATOM     20  C   UNL     1       4.736  -6.959   2.996  0.00  0.00    +0.000 A 
ATOM     21  C   UNL     1       6.029  -7.425   2.787  0.00  0.00    +0.000 A 
ATOM     22  N   UNL     1       6.365  -8.741   2.726  0.00  0.00    +0.000 NA
BRANCH  17  24
ATOM     23  N   UNL     1       7.050 -11.351   2.789  0.00  0.00    +0.000 N 
ATOM     24  C   UNL     1       5.710 -11.085   2.879  0.00  0.00    +0.000 C 
ATOM     25  O   UNL     1       4.880 -11.979   2.983  0.00  0.00    +0.000 OA
ATOM     26  H   UNL     1       7.372 -12.305   2.858  0.00  0.00    +0.000 HD
ATOM     27  H   UNL     1       7.711 -10.584   2.737  0.00  0.00    +0.000 HD
ENDBRANCH  17  24
ENDBRANCH  16  20
ENDBRANCH   1  16
TORSDOF 5
