REMARK  Name = 
REMARK  8 active torsions:
REMARK  status: ('A' for Active; 'I' for Inactive)
REMARK    1  A    between atoms: C_1  and  O_2
REMARK    2  A    between atoms: O_2  and  C_3
REMARK    3  A    between atoms: C_3  and  C_4
REMARK    4  A    between atoms: C_4  and  N_5
REMARK    5  A    between atoms: C_4  and  C_18
REMARK    6  A    between atoms: C_6  and  C_8
REMARK    7  A    between atoms: C_21  and  C_22
REMARK    8  A    between atoms: C_22  and  C_23
REMARK                            x       y       z     vdW  Elec       q    Type
REMARK                         _______ _______ _______ _____ _____    ______ ____
ROOT
ATOM      1  C   UNL     1       4.435   1.303   0.071  0.00  0.00    +0.000 C 
ENDROOT
BRANCH   1   2
ATOM      2  C   UNL     1       5.011   2.711   0.125  0.00  0.00    +0.000 A 
ATOM      3  C   UNL     1       5.898   3.071   1.145  0.00  0.00    +0.000 A 
ATOM      4  C   UNL     1       6.450   4.355   1.191  0.00  0.00    +0.000 A 
ATOM      5  C   UNL     1       6.147   5.303   0.203  0.00  0.00    +0.000 A 
ATOM      6  C   UNL     1       5.262   4.947  -0.819  0.00  0.00    +0.000 A 
ATOM      7  C   UNL     1       4.695   3.671  -0.851  0.00  0.00    +0.000 A 
BRANCH   5   8
ATOM      8  C   UNL     1       6.760   6.685   0.239  0.00  0.00    +0.000 C 
BRANCH   8   9
ATOM      9  C   UNL     1       8.090   6.844  -0.467  0.00  0.00    +0.000 A 
ATOM     10  C   UNL     1       9.202   6.091  -0.090  0.00  0.00    +0.000 A 
ATOM     11  C   UNL     1      10.439   6.369  -0.666  0.00  0.00    +0.000 A 
ATOM     12  C   UNL     1      10.541   7.388  -1.603  0.00  0.00    +0.000 A 
ATOM     13  C   UNL     1       9.390   8.078  -1.939  0.00  0.00    +0.000 A 
ATOM     14  N   UNL     1       8.176   7.833  -1.395  0.00  0.00    +0.000 NA
ENDBRANCH   8   9
ENDBRANCH   5   8
ENDBRANCH   1   2
BRANCH   1  15
ATOM     15  N   UNL     1       4.889   0.637  -1.141  0.00  0.00    +0.000 N 
ATOM     16  C   UNL     1       6.053  -0.078  -1.213  0.00  0.00    +0.000 C 
ATOM     17  O   UNL     1       6.755  -0.314  -0.233  0.00  0.00    +0.000 OA
ATOM     18  H   UNL     1       4.443   0.930  -2.001  0.00  0.00    +0.000 HD
BRANCH  16  19
ATOM     19  C   UNL     1       6.396  -0.601  -2.543  0.00  0.00    +0.000 A 
ATOM     20  C   UNL     1       7.175  -1.744  -2.661  0.00  0.00    +0.000 A 
ATOM     21  S   UNL     1       7.461  -2.209  -4.277  0.00  0.00    +0.000 S 
ATOM     22  C   UNL     1       6.602  -0.867  -4.875  0.00  0.00    +0.000 A 
ATOM     23  N   UNL     1       6.499  -0.639  -6.213  0.00  0.00    +0.000 NA
ATOM     24  C   UNL     1       5.869   0.446  -6.522  0.00  0.00    +0.000 A 
ATOM     25  N   UNL     1       5.316   1.312  -5.617  0.00  0.00    +0.000 N 
ATOM     26  C   UNL     1       5.306   1.067  -4.266  0.00  0.00    +0.000 A 
ATOM     27  O   UNL     1       4.647   1.767  -3.504  0.00  0.00    +0.000 OA
ATOM     28  C   UNL     1       6.067  -0.099  -3.857  0.00  0.00    +0.000 A 
ATOM     29  H   UNL     1       4.797   2.121  -5.926  0.00  0.00    +0.000 HD
ENDBRANCH  16  19
ENDBRANCH   1  15
BRANCH   1  30
ATOM     30  C   UNL     1       2.890   1.336   0.140  0.00  0.00    +0.000 C 
BRANCH  30  32
ATOM     31  C   UNL     1       0.931   0.022   0.210  0.00  0.00    +0.000 C 
ATOM     32  O   UNL     1       2.351   0.007   0.121  0.00  0.00    +0.000 OA
ENDBRANCH  30  32
ENDBRANCH   1  30
TORSDOF 7
