REMARK  Name = 
REMARK  6 active torsions:
REMARK  status: ('A' for Active; 'I' for Inactive)
REMARK    1  A    between atoms: N_1  and  C_2
REMARK    2  A    between atoms: C_2  and  C_3
REMARK    3  A    between atoms: C_3  and  C_4
REMARK    4  A    between atoms: C_7  and  C_8
REMARK    5  A    between atoms: C_8  and  O_9
REMARK    6  A    between atoms: O_9  and  C_10
REMARK                            x       y       z     vdW  Elec       q    Type
REMARK                         _______ _______ _______ _____ _____    ______ ____
ROOT
ATOM      1  C   UNL     1       4.421  -1.109  -0.977  0.00  0.00    +0.000 A 
ATOM      2  C   UNL     1       5.163  -2.224  -1.343  0.00  0.00    +0.000 A 
ATOM      3  N   UNL     1       6.515  -2.264  -1.358  0.00  0.00    +0.000 NA
ATOM      4  C   UNL     1       7.194  -1.143  -0.976  0.00  0.00    +0.000 A 
ATOM      5  C   UNL     1       6.527   0.026  -0.599  0.00  0.00    +0.000 A 
ATOM      6 CL   UNL     1       7.351   1.463  -0.124  0.00  0.00    +0.000 Cl
ATOM      7  C   UNL     1       5.130   0.039  -0.613  0.00  0.00    +0.000 A 
ENDROOT
BRANCH   1   8
ATOM      8  C   UNL     1       2.916  -1.137  -0.983  0.00  0.00    +0.000 C 
BRANCH   8   9
ATOM      9  C   UNL     1       2.330  -0.716  -2.335  0.00  0.00    +0.000 C 
BRANCH   9  10
ATOM     10  N   UNL     1       0.871  -0.758  -2.309  0.00  0.00    +0.000 NA
ATOM     11  H   UNL     1       0.507  -0.481  -3.221  0.00  0.00    +0.000 HD
ATOM     12  H   UNL     1       0.515  -0.071  -1.643  0.00  0.00    +0.000 HD
ENDBRANCH   9  10
ENDBRANCH   8   9
ENDBRANCH   1   8
BRANCH   4  13
ATOM     13  C   UNL     1       8.702  -1.259  -0.946  0.00  0.00    +0.000 C 
BRANCH  13  14
ATOM     14  O   UNL     1       9.110  -1.602   0.380  0.00  0.00    +0.000 OA
BRANCH  14  15
ATOM     15  C   UNL     1      10.439  -1.821   0.592  0.00  0.00    +0.000 A 
ATOM     16  C   UNL     1      11.469  -1.672  -0.332  0.00  0.00    +0.000 A 
ATOM     17  C   UNL     1      12.787  -1.921   0.060  0.00  0.00    +0.000 A 
ATOM     18  C   UNL     1      13.029  -2.317   1.365  0.00  0.00    +0.000 A 
ATOM     19  N   UNL     1      12.060  -2.479   2.287  0.00  0.00    +0.000 NA
ATOM     20  C   UNL     1      10.792  -2.227   1.876  0.00  0.00    +0.000 A 
ENDBRANCH  14  15
ENDBRANCH  13  14
ENDBRANCH   4  13
TORSDOF 6
