REMARK  Name = 
REMARK  5 active torsions:
REMARK  status: ('A' for Active; 'I' for Inactive)
REMARK    1  A    between atoms: C_1  and  C_2
REMARK    2  A    between atoms: C_4  and  N_5
REMARK    3  A    between atoms: C_4  and  C_15
REMARK    4  A    between atoms: C_9  and  C_10
REMARK    5  A    between atoms: C_18  and  O_19
REMARK                            x       y       z     vdW  Elec       q    Type
REMARK                         _______ _______ _______ _____ _____    ______ ____
ROOT
ATOM      1  N   UNL     1       4.421  -1.562  -0.950  0.00  0.00    +0.000 N 
ATOM      2  C   UNL     1       4.705  -2.584  -0.052  0.00  0.00    +0.000 A 
ATOM      3  C   UNL     1       3.746  -3.388   0.546  0.00  0.00    +0.000 A 
ATOM      4  C   UNL     1       4.148  -4.411   1.410  0.00  0.00    +0.000 A 
ATOM      5  C   UNL     1       5.504  -4.610   1.667  0.00  0.00    +0.000 A 
ATOM      6  C   UNL     1       6.392  -3.764   1.027  0.00  0.00    +0.000 A 
ATOM      7  N   UNL     1       6.021  -2.768   0.183  0.00  0.00    +0.000 NA
ATOM      8  H   UNL     1       5.288  -1.094  -1.189  0.00  0.00    +0.000 HD
ENDROOT
BRANCH   5   9
ATOM      9  C   UNL     1       5.922  -5.691   2.593  0.00  0.00    +0.000 C 
ATOM     10  N   UNL     1       7.250  -5.872   2.851  0.00  0.00    +0.000 N 
ATOM     11  O   UNL     1       5.090  -6.413   3.131  0.00  0.00    +0.000 OA
ATOM     12  H   UNL     1       8.015  -5.339   2.468  0.00  0.00    +0.000 HD
ATOM     13  H   UNL     1       7.486  -6.621   3.494  0.00  0.00    +0.000 HD
ENDBRANCH   5   9
BRANCH   1  17
ATOM     14  C   UNL     1       1.012   0.155   0.088  0.00  0.00    +0.000 C 
ATOM     15  C   UNL     1       2.484  -0.081  -0.012  0.00  0.00    +0.000 C 
ATOM     16  C   UNL     1       3.243   0.653  -1.070  0.00  0.00    +0.000 C 
ATOM     17  C   UNL     1       3.142  -0.872  -1.142  0.00  0.00    +0.000 C 
BRANCH  17  18
ATOM     18  C   UNL     1       2.286  -1.470  -2.254  0.00  0.00    +0.000 A 
ATOM     19  C   UNL     1       1.216  -2.343  -2.007  0.00  0.00    +0.000 A 
ATOM     20  C   UNL     1       0.442  -2.852  -3.049  0.00  0.00    +0.000 A 
ATOM     21  C   UNL     1       0.773  -2.483  -4.338  0.00  0.00    +0.000 A 
ATOM     22  N   UNL     1       1.794  -1.670  -4.643  0.00  0.00    +0.000 NA
ATOM     23  C   UNL     1       2.523  -1.195  -3.602  0.00  0.00    +0.000 A 
BRANCH  21  24
ATOM     24  O   UNL     1       0.055  -2.933  -5.405  0.00  0.00    +0.000 OA
ATOM     25  H   UNL     1      -0.641  -3.517  -5.072  0.00  0.00    +0.000 HD
ENDBRANCH  21  24
ENDBRANCH  17  18
ENDBRANCH   1  17
TORSDOF 4
