REMARK  Name = 
REMARK  6 active torsions:
REMARK  status: ('A' for Active; 'I' for Inactive)
REMARK    1  A    between atoms: C_1  and  C_2
REMARK    2  A    between atoms: C_2  and  N_3
REMARK    3  A    between atoms: C_2  and  C_16
REMARK    4  A    between atoms: C_4  and  C_6
REMARK    5  A    between atoms: C_19  and  O_20
REMARK    6  A    between atoms: O_20  and  C_21
REMARK                            x       y       z     vdW  Elec       q    Type
REMARK                         _______ _______ _______ _____ _____    ______ ____
ROOT
ATOM      1  C   UNL     1       2.929   1.319   0.563  0.00  0.00    +0.000 C 
ATOM      2  C   UNL     1       2.522   0.008  -0.121  0.00  0.00    +0.000 C 
ENDROOT
BRANCH   2   3
ATOM      3  C   UNL     1       3.071  -1.231   0.571  0.00  0.00    +0.000 A 
ATOM      4  C   UNL     1       3.324  -2.383  -0.189  0.00  0.00    +0.000 A 
ATOM      5  C   UNL     1       3.873  -3.522   0.404  0.00  0.00    +0.000 A 
ATOM      6  C   UNL     1       4.232  -3.503   1.753  0.00  0.00    +0.000 A 
ATOM      7  C   UNL     1       3.898  -2.401   2.536  0.00  0.00    +0.000 A 
ATOM      8  C   UNL     1       3.304  -1.282   1.954  0.00  0.00    +0.000 A 
BRANCH   6   9
ATOM      9  O   UNL     1       4.862  -4.535   2.407  0.00  0.00    +0.000 OA
BRANCH   9  10
ATOM     10  C   UNL     1       5.818  -5.282   1.756  0.00  0.00    +0.000 A 
ATOM     11  C   UNL     1       6.610  -4.828   0.697  0.00  0.00    +0.000 A 
ATOM     12  C   UNL     1       7.496  -5.697   0.062  0.00  0.00    +0.000 A 
ATOM     13  C   UNL     1       7.647  -7.002   0.527  0.00  0.00    +0.000 A 
ATOM     14  C   UNL     1       6.920  -7.434   1.636  0.00  0.00    +0.000 A 
ATOM     15  C   UNL     1       6.007  -6.575   2.249  0.00  0.00    +0.000 A 
ENDBRANCH   9  10
ENDBRANCH   6   9
ENDBRANCH   2   3
BRANCH   2  16
ATOM     16  N   UNL     1       1.078  -0.097  -0.193  0.00  0.00    +0.000 N 
ATOM     17  C   UNL     1       0.344   0.529  -1.164  0.00  0.00    +0.000 C 
ATOM     18  O   UNL     1       0.858   1.089  -2.129  0.00  0.00    +0.000 OA
ATOM     19  H   UNL     1       0.616  -0.414   0.652  0.00  0.00    +0.000 HD
BRANCH  17  20
ATOM     20  C   UNL     1      -1.110   0.473  -0.999  0.00  0.00    +0.000 A 
ATOM     21  C   UNL     1      -1.943   0.508  -2.106  0.00  0.00    +0.000 A 
ATOM     22  S   UNL     1      -3.602   0.498  -1.706  0.00  0.00    +0.000 S 
ATOM     23  C   UNL     1      -3.258   0.500  -0.039  0.00  0.00    +0.000 A 
ATOM     24  N   UNL     1      -4.252   0.577   0.885  0.00  0.00    +0.000 NA
ATOM     25  C   UNL     1      -3.840   0.611   2.109  0.00  0.00    +0.000 A 
ATOM     26  N   UNL     1      -2.527   0.553   2.496  0.00  0.00    +0.000 N 
ATOM     27  C   UNL     1      -1.493   0.400   1.604  0.00  0.00    +0.000 A 
ATOM     28  O   UNL     1      -0.343   0.213   1.987  0.00  0.00    +0.000 OA
ATOM     29  C   UNL     1      -1.901   0.439   0.209  0.00  0.00    +0.000 A 
ATOM     30  H   UNL     1      -2.277   0.536   3.472  0.00  0.00    +0.000 HD
ENDBRANCH  17  20
ENDBRANCH   2  16
TORSDOF 5
