REMARK  Name = 
REMARK  7 active torsions:
REMARK  status: ('A' for Active; 'I' for Inactive)
REMARK    1  A    between atoms: C_1  and  O_2
REMARK    2  A    between atoms: O_2  and  C_3
REMARK    3  A    between atoms: C_6  and  C_7
REMARK    4  A    between atoms: C_11  and  C_12
REMARK    5  A    between atoms: C_12  and  O_13
REMARK    6  A    between atoms: O_13  and  C_14
REMARK    7  A    between atoms: C_17  and  C_18
REMARK                            x       y       z     vdW  Elec       q    Type
REMARK                         _______ _______ _______ _____ _____    ______ ____
ROOT
ATOM      1  C   UNL     1       5.210  -4.312  -2.552  0.00  0.00    +0.000 A 
ATOM      2  C   UNL     1       5.954  -4.203  -3.716  0.00  0.00    +0.000 A 
ATOM      3  C   UNL     1       6.542  -5.356  -4.182  0.00  0.00    +0.000 A 
ATOM      4  N   UNL     1       6.422  -6.544  -3.570  0.00  0.00    +0.000 NA
ATOM      5  C   UNL     1       5.698  -6.565  -2.435  0.00  0.00    +0.000 A 
ATOM      6  N   UNL     1       5.085  -5.486  -1.899  0.00  0.00    +0.000 NA
ENDROOT
BRANCH   1  10
ATOM      7  C   UNL     1       3.068  -1.006  -0.991  0.00  0.00    +0.000 A 
ATOM      8  C   UNL     1       3.543  -1.948  -0.095  0.00  0.00    +0.000 A 
ATOM      9  C   UNL     1       4.255  -3.041  -0.598  0.00  0.00    +0.000 A 
ATOM     10  C   UNL     1       4.480  -3.172  -1.974  0.00  0.00    +0.000 A 
ATOM     11  C   UNL     1       3.943  -2.161  -2.774  0.00  0.00    +0.000 A 
ATOM     12  N   UNL     1       3.260  -1.086  -2.322  0.00  0.00    +0.000 NA
BRANCH   7  14
ATOM     13  C   UNL     1       1.925   0.964  -1.481  0.00  0.00    +0.000 C 
ATOM     14  O   UNL     1       2.348   0.049  -0.473  0.00  0.00    +0.000 OA
ENDBRANCH   7  14
ENDBRANCH   1  10
BRANCH   5  15
ATOM     15  C   UNL     1       5.532  -7.893  -1.730  0.00  0.00    +0.000 C 
BRANCH  15  16
ATOM     16  O   UNL     1       6.617  -8.096  -0.820  0.00  0.00    +0.000 OA
BRANCH  16  17
ATOM     17  C   UNL     1       6.628  -9.277  -0.130  0.00  0.00    +0.000 A 
ATOM     18  C   UNL     1       5.654 -10.274  -0.192  0.00  0.00    +0.000 A 
ATOM     19  C   UNL     1       5.783 -11.430   0.587  0.00  0.00    +0.000 A 
ATOM     20  C   UNL     1       6.890 -11.603   1.424  0.00  0.00    +0.000 A 
ATOM     21  C   UNL     1       7.868 -10.606   1.487  0.00  0.00    +0.000 A 
ATOM     22  C   UNL     1       7.732  -9.450   0.711  0.00  0.00    +0.000 A 
BRANCH  20  23
ATOM     23  C   UNL     1       6.959 -12.833   2.254  0.00  0.00    +0.000 C 
ATOM     24  N   UNL     1       8.195 -13.265   2.645  0.00  0.00    +0.000 N 
ATOM     25  O   UNL     1       5.951 -13.460   2.555  0.00  0.00    +0.000 OA
ATOM     26  H   UNL     1       9.053 -12.912   2.246  0.00  0.00    +0.000 HD
ATOM     27  H   UNL     1       8.228 -14.151   3.132  0.00  0.00    +0.000 HD
ENDBRANCH  20  23
ENDBRANCH  16  17
ENDBRANCH  15  16
ENDBRANCH   5  15
TORSDOF 6
