REMARK  Name = 
REMARK  9 active torsions:
REMARK  status: ('A' for Active; 'I' for Inactive)
REMARK    1  A    between atoms: C_1  and  C_2
REMARK    2  A    between atoms: C_2  and  C_3
REMARK    3  A    between atoms: C_3  and  N_4
REMARK    4  A    between atoms: C_3  and  C_18
REMARK    5  A    between atoms: C_5  and  C_7
REMARK    6  A    between atoms: N_13  and  C_14
REMARK    7  A    between atoms: C_21  and  O_22
REMARK    8  A    between atoms: O_22  and  C_23
REMARK    9  A    between atoms: C_23  and  C_24
REMARK                            x       y       z     vdW  Elec       q    Type
REMARK                         _______ _______ _______ _____ _____    ______ ____
ROOT
ATOM      1  C   UNL     1       3.139  -0.902  -1.117  0.00  0.00    +0.000 C 
ENDROOT
BRANCH   1   2
ATOM      2  C   UNL     1       4.656  -1.006  -1.176  0.00  0.00    +0.000 A 
ATOM      3  C   UNL     1       5.311  -2.028  -0.469  0.00  0.00    +0.000 A 
ATOM      4  C   UNL     1       6.688  -2.225  -0.612  0.00  0.00    +0.000 A 
ATOM      5  C   UNL     1       7.428  -1.412  -1.469  0.00  0.00    +0.000 A 
ATOM      6  C   UNL     1       6.810  -0.327  -2.085  0.00  0.00    +0.000 A 
ATOM      7  C   UNL     1       5.439  -0.121  -1.931  0.00  0.00    +0.000 A 
BRANCH   5   8
ATOM      8  O   UNL     1       8.741  -1.756  -1.645  0.00  0.00    +0.000 OA
BRANCH   8   9
ATOM      9  C   UNL     1       9.295  -1.352  -2.905  0.00  0.00    +0.000 C 
BRANCH   9  10
ATOM     10  C   UNL     1      10.473  -2.226  -3.259  0.00  0.00    +0.000 A 
ATOM     11  C   UNL     1      10.309  -3.608  -3.357  0.00  0.00    +0.000 A 
ATOM     12  C   UNL     1      11.397  -4.390  -3.725  0.00  0.00    +0.000 A 
ATOM     13  C   UNL     1      12.615  -3.777  -3.989  0.00  0.00    +0.000 A 
ATOM     14  C   UNL     1      12.693  -2.399  -3.880  0.00  0.00    +0.000 A 
ATOM     15  N   UNL     1      11.653  -1.612  -3.530  0.00  0.00    +0.000 NA
ENDBRANCH   9  10
ENDBRANCH   8   9
ENDBRANCH   5   8
ENDBRANCH   1   2
BRANCH   1  16
ATOM     16  N   UNL     1       2.742  -0.041  -0.019  0.00  0.00    +0.000 N 
ATOM     17  C   UNL     1       2.275  -0.497   1.184  0.00  0.00    +0.000 C 
ATOM     18  O   UNL     1       2.136  -1.693   1.428  0.00  0.00    +0.000 OA
ATOM     19  H   UNL     1       3.001   0.935  -0.110  0.00  0.00    +0.000 HD
BRANCH  17  20
ATOM     20  C   UNL     1       1.885   0.534   2.160  0.00  0.00    +0.000 A 
ATOM     21  C   UNL     1       0.993   0.219   3.176  0.00  0.00    +0.000 A 
ATOM     22  S   UNL     1       0.645   1.528   4.212  0.00  0.00    +0.000 S 
ATOM     23  C   UNL     1       1.713   2.550   3.370  0.00  0.00    +0.000 A 
ATOM     24  N   UNL     1       1.928   3.824   3.781  0.00  0.00    +0.000 NA
ATOM     25  C   UNL     1       2.807   4.471   3.086  0.00  0.00    +0.000 A 
ATOM     26  N   UNL     1       3.475   3.975   1.987  0.00  0.00    +0.000 N 
ATOM     27  C   UNL     1       4.447   4.784   1.278  0.00  0.00    +0.000 C 
ATOM     28  C   UNL     1       3.211   2.709   1.485  0.00  0.00    +0.000 A 
ATOM     29  O   UNL     1       3.689   2.303   0.430  0.00  0.00    +0.000 OA
ATOM     30  C   UNL     1       2.291   1.918   2.286  0.00  0.00    +0.000 A 
ENDBRANCH  17  20
ENDBRANCH   1  16
BRANCH   1  32
ATOM     31  C   UNL     1       2.716  -1.259  -3.627  0.00  0.00    +0.000 C 
ATOM     32  C   UNL     1       2.481  -0.372  -2.412  0.00  0.00    +0.000 C 
ENDBRANCH   1  32
TORSDOF 7
