REMARK  Name = 
REMARK  8 active torsions:
REMARK  status: ('A' for Active; 'I' for Inactive)
REMARK    1  A    between atoms: N_1  and  C_2
REMARK    2  A    between atoms: C_2  and  C_3
REMARK    3  A    between atoms: C_3  and  C_4
REMARK    4  A    between atoms: C_3  and  N_25
REMARK    5  A    between atoms: C_4  and  C_5
REMARK    6  A    between atoms: C_8  and  C_9
REMARK    7  A    between atoms: N_11  and  C_12
REMARK    8  A    between atoms: C_12  and  C_13
REMARK                            x       y       z     vdW  Elec       q    Type
REMARK                         _______ _______ _______ _____ _____    ______ ____
ROOT
ATOM      1  C   UNL     1       0.930  -0.545  -2.362  0.00  0.00    +0.000 A 
ATOM      2  C   UNL     1       0.245  -1.764  -2.245  0.00  0.00    +0.000 A 
ATOM      3  C   UNL     1      -1.146  -1.796  -2.114  0.00  0.00    +0.000 A 
ATOM      4  C   UNL     1      -1.875  -0.601  -2.114  0.00  0.00    +0.000 A 
ATOM      5  C   UNL     1      -1.200   0.619  -2.225  0.00  0.00    +0.000 A 
ATOM      6  C   UNL     1       0.194   0.649  -2.352  0.00  0.00    +0.000 A 
ENDROOT
BRANCH   4   7
ATOM      7  C   UNL     1      -3.359  -0.610  -1.953  0.00  0.00    +0.000 C 
ATOM      8  O   UNL     1      -3.927   0.335  -1.414  0.00  0.00    +0.000 OA
ATOM      9  N   UNL     1      -4.020  -1.704  -2.472  0.00  0.00    +0.000 N 
ATOM     10  H   UNL     1      -3.532  -2.222  -3.202  0.00  0.00    +0.000 HD
BRANCH   9  11
ATOM     11  C   UNL     1      -5.460  -1.759  -2.507  0.00  0.00    +0.000 C 
BRANCH  11  12
ATOM     12  C   UNL     1      -5.973  -3.177  -2.436  0.00  0.00    +0.000 A 
ATOM     13  C   UNL     1      -7.170  -3.491  -1.808  0.00  0.00    +0.000 A 
ATOM     14  S   UNL     1      -7.522  -5.161  -1.797  0.00  0.00    +0.000 S 
ATOM     15  C   UNL     1      -6.094  -5.522  -2.652  0.00  0.00    +0.000 A 
ATOM     16  N   UNL     1      -5.757  -6.810  -2.941  0.00  0.00    +0.000 NA
ATOM     17  C   UNL     1      -4.643  -6.934  -3.581  0.00  0.00    +0.000 A 
ATOM     18  N   UNL     1      -3.848  -5.890  -3.980  0.00  0.00    +0.000 N 
ATOM     19  C   UNL     1      -4.191  -4.573  -3.781  0.00  0.00    +0.000 A 
ATOM     20  O   UNL     1      -3.528  -3.657  -4.261  0.00  0.00    +0.000 OA
ATOM     21  C   UNL     1      -5.390  -4.382  -2.984  0.00  0.00    +0.000 A 
ATOM     22  H   UNL     1      -3.015  -6.057  -4.523  0.00  0.00    +0.000 HD
ENDBRANCH  11  12
ENDBRANCH   9  11
ENDBRANCH   4   7
BRANCH   1  23
ATOM     23  C   UNL     1       2.444  -0.541  -2.444  0.00  0.00    +0.000 C 
BRANCH  23  24
ATOM     24  C   UNL     1       3.097  -0.032  -3.764  0.00  0.00    +0.000 C 
BRANCH  24  25
ATOM     25  N   UNL     1       4.587   0.092  -3.580  0.00  0.00    +0.000 NA
ATOM     26  C   UNL     1       5.265  -1.208  -3.423  0.00  0.00    +0.000 C 
ATOM     27  C   UNL     1       6.771  -1.069  -3.200  0.00  0.00    +0.000 C 
ATOM     28  C   UNL     1       7.416  -0.259  -4.314  0.00  0.00    +0.000 C 
ATOM     29  C   UNL     1       6.709   1.083  -4.452  0.00  0.00    +0.000 C 
ATOM     30  C   UNL     1       5.205   0.890  -4.654  0.00  0.00    +0.000 C 
ENDBRANCH  24  25
BRANCH  24  31
ATOM     31  C   UNL     1       2.711  -0.885  -5.017  0.00  0.00    +0.000 C 
BRANCH  31  32
ATOM     32  N   UNL     1       1.295  -0.933  -5.358  0.00  0.00    +0.000 NA
ATOM     33  H   UNL     1       1.171  -1.414  -6.246  0.00  0.00    +0.000 HD
ATOM     34  H   UNL     1       0.927   0.010  -5.474  0.00  0.00    +0.000 HD
ENDBRANCH  31  32
ENDBRANCH  24  31
ENDBRANCH  23  24
ENDBRANCH   1  23
TORSDOF 8
