REMARK  Name = 
REMARK  4 active torsions:
REMARK  status: ('A' for Active; 'I' for Inactive)
REMARK    1  A    between atoms: C_2  and  C_4
REMARK    2  A    between atoms: C_7  and  C_8
REMARK    3  A    between atoms: C_8  and  C_9
REMARK    4  A    between atoms: C_9  and  C_10
REMARK                            x       y       z     vdW  Elec       q    Type
REMARK                         _______ _______ _______ _____ _____    ______ ____
ROOT
ATOM      1  C   UNL     1       3.462  -0.515  -0.791  0.00  0.00    +0.000 A 
ATOM      2  C   UNL     1       2.620  -1.040  -1.760  0.00  0.00    +0.000 A 
ATOM      3  C   UNL     1       3.179  -1.827  -2.768  0.00  0.00    +0.000 A 
ATOM      4  C   UNL     1       4.559  -2.043  -2.808  0.00  0.00    +0.000 A 
ATOM      5  C   UNL     1       5.314  -1.458  -1.787  0.00  0.00    +0.000 A 
ATOM      6  N   UNL     1       4.810  -0.702  -0.782  0.00  0.00    +0.000 NA
ENDROOT
BRANCH   1   8
ATOM      7  N   UNL     1       3.783   0.750   1.257  0.00  0.00    +0.000 N 
ATOM      8  C   UNL     1       2.879   0.264   0.349  0.00  0.00    +0.000 C 
ATOM      9  O   UNL     1       1.676   0.449   0.481  0.00  0.00    +0.000 OA
ATOM     10  H   UNL     1       3.454   1.255   2.067  0.00  0.00    +0.000 HD
ATOM     11  H   UNL     1       4.770   0.563   1.128  0.00  0.00    +0.000 HD
ENDBRANCH   1   8
BRANCH   4  12
ATOM     12  C   UNL     1       5.239  -2.966  -3.795  0.00  0.00    +0.000 C 
BRANCH  12  13
ATOM     13  C   UNL     1       4.648  -2.984  -5.203  0.00  0.00    +0.000 C 
ATOM     14  C   UNL     1       3.551  -3.997  -5.495  0.00  0.00    +0.000 C 
ATOM     15  C   UNL     1       4.919  -4.231  -6.047  0.00  0.00    +0.000 C 
BRANCH  13  16
ATOM     16  C   UNL     1       4.700  -1.671  -5.980  0.00  0.00    +0.000 A 
ATOM     17  C   UNL     1       5.865  -1.248  -6.637  0.00  0.00    +0.000 A 
ATOM     18  C   UNL     1       5.874  -0.074  -7.389  0.00  0.00    +0.000 A 
ATOM     19  C   UNL     1       4.710   0.669  -7.460  0.00  0.00    +0.000 A 
ATOM     20  N   UNL     1       3.566   0.317  -6.840  0.00  0.00    +0.000 NA
ATOM     21  C   UNL     1       3.593  -0.831  -6.126  0.00  0.00    +0.000 A 
ENDBRANCH  13  16
ENDBRANCH  12  13
ENDBRANCH   4  12
TORSDOF 4
