REMARK  Name = 
REMARK  8 active torsions:
REMARK  status: ('A' for Active; 'I' for Inactive)
REMARK    1  A    between atoms: C_1  and  C_2
REMARK    2  A    between atoms: C_5  and  C_6
REMARK    3  A    between atoms: N_8  and  C_9
REMARK    4  A    between atoms: C_9  and  C_10
REMARK    5  A    between atoms: C_13  and  C_14
REMARK    6  A    between atoms: C_14  and  N_15
REMARK    7  A    between atoms: C_16  and  C_18
REMARK    8  A    between atoms: N_24  and  C_25
REMARK                            x       y       z     vdW  Elec       q    Type
REMARK                         _______ _______ _______ _____ _____    ______ ____
ROOT
ATOM      1  C   UNL     1       9.428  -2.918   0.057  0.00  0.00    +0.000 A 
ATOM      2  C   UNL     1      10.806  -3.115   0.100  0.00  0.00    +0.000 A 
ATOM      3  C   UNL     1      11.311  -4.414   0.045  0.00  0.00    +0.000 A 
ATOM      4  C   UNL     1      10.437  -5.495  -0.076  0.00  0.00    +0.000 A 
ATOM      5  C   UNL     1       9.077  -5.206  -0.108  0.00  0.00    +0.000 A 
ATOM      6  N   UNL     1       8.556  -3.954  -0.044  0.00  0.00    +0.000 NA
ENDROOT
BRANCH   1   7
ATOM      7  C   UNL     1       8.858  -1.516   0.119  0.00  0.00    +0.000 C 
BRANCH   7  10
ATOM      8  C   UNL     1       9.801  -0.098  -1.680  0.00  0.00    +0.000 C 
ATOM      9  O   UNL     1      10.858   0.077  -1.078  0.00  0.00    +0.000 OA
ATOM     10  N   UNL     1       8.776  -0.868  -1.174  0.00  0.00    +0.000 N 
ATOM     11  H   UNL     1       7.961  -1.036  -1.755  0.00  0.00    +0.000 HD
BRANCH   8  16
ATOM     12  C   UNL     1       8.727   2.242  -6.773  0.00  0.00    +0.000 C 
ATOM     13  C   UNL     1       9.072   1.636  -5.448  0.00  0.00    +0.000 A 
ATOM     14  C   UNL     1      10.315   1.834  -4.866  0.00  0.00    +0.000 A 
ATOM     15  C   UNL     1      10.576   1.261  -3.625  0.00  0.00    +0.000 A 
ATOM     16  C   UNL     1       9.579   0.515  -3.021  0.00  0.00    +0.000 A 
ATOM     17  N   UNL     1       8.369   0.334  -3.601  0.00  0.00    +0.000 NA
ATOM     18  N   UNL     1       8.117   0.904  -4.827  0.00  0.00    +0.000 NA
ENDBRANCH   8  16
ENDBRANCH   7  10
ENDBRANCH   1   7
BRANCH   4  19
ATOM     19  C   UNL     1      10.950  -6.882  -0.313  0.00  0.00    +0.000 C 
BRANCH  19  20
ATOM     20  N   UNL     1      11.307  -7.659   0.856  0.00  0.00    +0.000 N 
ATOM     21  C   UNL     1      11.831  -8.915   0.626  0.00  0.00    +0.000 C 
ATOM     22  O   UNL     1      11.947  -9.328  -0.529  0.00  0.00    +0.000 OA
ATOM     23  H   UNL     1      11.249  -7.270   1.796  0.00  0.00    +0.000 HD
BRANCH  21  24
ATOM     24  C   UNL     1      12.266  -9.758   1.746  0.00  0.00    +0.000 A 
ATOM     25  C   UNL     1      12.975 -10.917   1.442  0.00  0.00    +0.000 A 
ATOM     26  S   UNL     1      13.378 -11.864   2.791  0.00  0.00    +0.000 S 
ATOM     27  C   UNL     1      12.522 -10.823   3.824  0.00  0.00    +0.000 A 
ATOM     28  N   UNL     1      12.341 -11.160   5.123  0.00  0.00    +0.000 NA
ATOM     29  C   UNL     1      11.654 -10.305   5.802  0.00  0.00    +0.000 A 
ATOM     30  N   UNL     1      11.174  -9.101   5.323  0.00  0.00    +0.000 N 
ATOM     31  C   UNL     1      10.575  -8.179   6.264  0.00  0.00    +0.000 C 
ATOM     32  C   UNL     1      11.405  -8.689   4.005  0.00  0.00    +0.000 A 
ATOM     33  O   UNL     1      11.120  -7.574   3.577  0.00  0.00    +0.000 OA
ATOM     34  C   UNL     1      12.059  -9.690   3.175  0.00  0.00    +0.000 A 
ENDBRANCH  21  24
ENDBRANCH  19  20
ENDBRANCH   4  19
TORSDOF 6
