REMARK  Name = 
REMARK  7 active torsions:
REMARK  status: ('A' for Active; 'I' for Inactive)
REMARK    1  A    between atoms: N_1  and  C_2
REMARK    2  A    between atoms: C_2  and  N_3
REMARK    3  A    between atoms: C_2  and  C_26
REMARK    4  A    between atoms: C_4  and  C_6
REMARK    5  A    between atoms: C_9  and  C_10
REMARK    6  A    between atoms: C_10  and  N_11
REMARK    7  A    between atoms: C_12  and  C_14
REMARK                            x       y       z     vdW  Elec       q    Type
REMARK                         _______ _______ _______ _____ _____    ______ ____
ROOT
ATOM      1  C   UNL     1       3.130  -3.389   1.638  0.00  0.00    +0.000 A 
ATOM      2  C   UNL     1       4.455  -3.689   1.341  0.00  0.00    +0.000 A 
ATOM      3  C   UNL     1       4.911  -4.986   1.566  0.00  0.00    +0.000 A 
ATOM      4  C   UNL     1       4.032  -5.949   2.069  0.00  0.00    +0.000 A 
ATOM      5  C   UNL     1       2.727  -5.544   2.349  0.00  0.00    +0.000 A 
ATOM      6  N   UNL     1       2.250  -4.294   2.144  0.00  0.00    +0.000 NA
ENDROOT
BRANCH   1   8
ATOM      7  N   UNL     1       1.349  -1.742   1.887  0.00  0.00    +0.000 N 
ATOM      8  C   UNL     1       2.630  -1.990   1.446  0.00  0.00    +0.000 C 
ATOM      9  O   UNL     1       3.356  -1.120   0.971  0.00  0.00    +0.000 OA
ATOM     10  H   UNL     1       0.773  -2.533   2.167  0.00  0.00    +0.000 HD
BRANCH   7  11
ATOM     11  C   UNL     1       0.688  -0.476   1.736  0.00  0.00    +0.000 C 
BRANCH  11  12
ATOM     12  C   UNL     1      -0.790  -0.518   2.136  0.00  0.00    +0.000 A 
ATOM     13  C   UNL     1      -1.533   0.666   2.108  0.00  0.00    +0.000 A 
ATOM     14  C   UNL     1      -2.846   0.659   2.571  0.00  0.00    +0.000 A 
ATOM     15  C   UNL     1      -3.391  -0.529   3.037  0.00  0.00    +0.000 A 
ATOM     16  C   UNL     1      -2.600  -1.667   3.014  0.00  0.00    +0.000 A 
ATOM     17  N   UNL     1      -1.319  -1.694   2.580  0.00  0.00    +0.000 NA
ENDBRANCH  11  12
BRANCH  11  18
ATOM     18  N   UNL     1       1.430   0.423   2.611  0.00  0.00    +0.000 NA
ATOM     19  H   UNL     1       2.394   0.389   2.273  0.00  0.00    +0.000 HD
ATOM     20  H   UNL     1       1.453  -0.039   3.517  0.00  0.00    +0.000 HD
ENDBRANCH  11  18
ENDBRANCH   7  11
ENDBRANCH   1   8
BRANCH   4  21
ATOM     21  C   UNL     1       4.476  -7.358   2.341  0.00  0.00    +0.000 C 
BRANCH  21  22
ATOM     22  N   UNL     1       4.977  -7.505   3.684  0.00  0.00    +0.000 N 
ATOM     23  C   UNL     1       5.507  -8.696   4.116  0.00  0.00    +0.000 C 
ATOM     24  O   UNL     1       5.629  -9.660   3.364  0.00  0.00    +0.000 OA
ATOM     25  H   UNL     1       4.690  -6.817   4.372  0.00  0.00    +0.000 HD
BRANCH  23  26
ATOM     26  C   UNL     1       5.977  -8.743   5.508  0.00  0.00    +0.000 A 
ATOM     27  C   UNL     1       6.922  -9.688   5.881  0.00  0.00    +0.000 A 
ATOM     28  S   UNL     1       7.399  -9.570   7.515  0.00  0.00    +0.000 S 
ATOM     29  C   UNL     1       6.316  -8.288   7.795  0.00  0.00    +0.000 A 
ATOM     30  N   UNL     1       6.204  -7.723   9.027  0.00  0.00    +0.000 NA
ATOM     31  C   UNL     1       5.316  -6.788   9.109  0.00  0.00    +0.000 A 
ATOM     32  N   UNL     1       4.535  -6.363   8.064  0.00  0.00    +0.000 N 
ATOM     33  C   UNL     1       4.639  -6.878   6.795  0.00  0.00    +0.000 A 
ATOM     34  O   UNL     1       3.963  -6.443   5.869  0.00  0.00    +0.000 OA
ATOM     35  C   UNL     1       5.612  -7.945   6.653  0.00  0.00    +0.000 A 
ATOM     36  H   UNL     1       3.864  -5.619   8.192  0.00  0.00    +0.000 HD
ENDBRANCH  23  26
ENDBRANCH  21  22
ENDBRANCH   4  21
TORSDOF 7
