REMARK  Name = 
REMARK  5 active torsions:
REMARK  status: ('A' for Active; 'I' for Inactive)
REMARK    1  A    between atoms: C_2  and  C_22
REMARK    2  A    between atoms: N_3  and  C_4
REMARK    3  A    between atoms: C_4  and  C_5
REMARK    4  A    between atoms: C_8  and  C_9
REMARK    5  A    between atoms: C_9  and  N_10
REMARK                            x       y       z     vdW  Elec       q    Type
REMARK                         _______ _______ _______ _____ _____    ______ ____
ROOT
ATOM      1  C   UNL     1       3.245  -3.685  -0.275  0.00  0.00    +0.000 A 
ATOM      2  C   UNL     1       2.850  -5.024  -0.201  0.00  0.00    +0.000 A 
ATOM      3  C   UNL     1       3.799  -6.059  -0.257  0.00  0.00    +0.000 A 
ATOM      4  C   UNL     1       5.179  -5.801  -0.379  0.00  0.00    +0.000 A 
ATOM      5  C   UNL     1       5.564  -4.454  -0.474  0.00  0.00    +0.000 A 
ATOM      6 CL   UNL     1       7.207  -3.950  -0.655  0.00  0.00    +0.000 Cl
ATOM      7  C   UNL     1       4.610  -3.422  -0.433  0.00  0.00    +0.000 A 
ENDROOT
BRANCH   1   8
ATOM      8  C   UNL     1       2.254  -2.549  -0.184  0.00  0.00    +0.000 C 
BRANCH   8  11
ATOM      9  O   UNL     1       3.285  -0.507  -1.875  0.00  0.00    +0.000 OA
ATOM     10  C   UNL     1       2.293  -1.154  -2.228  0.00  0.00    +0.000 C 
ATOM     11  N   UNL     1       1.733  -2.135  -1.462  0.00  0.00    +0.000 N 
ATOM     12  H   UNL     1       1.128  -2.803  -1.918  0.00  0.00    +0.000 HD
BRANCH  10  13
ATOM     13  C   UNL     1       1.616  -0.891  -3.498  0.00  0.00    +0.000 A 
ATOM     14  C   UNL     1       1.627   0.355  -4.103  0.00  0.00    +0.000 A 
ATOM     15  S   UNL     1       0.779   0.385  -5.592  0.00  0.00    +0.000 S 
ATOM     16  C   UNL     1       0.391  -1.268  -5.475  0.00  0.00    +0.000 A 
ATOM     17  N   UNL     1      -0.315  -1.909  -6.441  0.00  0.00    +0.000 NA
ATOM     18  C   UNL     1      -0.515  -3.164  -6.213  0.00  0.00    +0.000 A 
ATOM     19  N   UNL     1      -0.079  -3.846  -5.113  0.00  0.00    +0.000 N 
ATOM     20  C   UNL     1       0.572  -3.232  -4.088  0.00  0.00    +0.000 A 
ATOM     21  O   UNL     1       0.816  -3.845  -3.042  0.00  0.00    +0.000 OA
ATOM     22  C   UNL     1       0.870  -1.826  -4.302  0.00  0.00    +0.000 A 
ATOM     23  H   UNL     1      -0.305  -4.816  -4.963  0.00  0.00    +0.000 HD
ENDBRANCH  10  13
ENDBRANCH   8  11
ENDBRANCH   1   8
BRANCH   4  24
ATOM     24  C   UNL     1       6.135  -6.978  -0.420  0.00  0.00    +0.000 C 
BRANCH  24  25
ATOM     25  N   UNL     1       6.397  -7.457  -1.763  0.00  0.00    +0.000 N 
ATOM     26  C   UNL     1       5.652  -8.434  -2.361  0.00  0.00    +0.000 C 
ATOM     27  O   UNL     1       4.718  -8.994  -1.789  0.00  0.00    +0.000 OA
ATOM     28  N   UNL     1       6.033  -8.723  -3.665  0.00  0.00    +0.000 N 
ATOM     29  C   UNL     1       5.212  -9.632  -4.456  0.00  0.00    +0.000 C 
ATOM     30  C   UNL     1       5.985 -10.904  -4.796  0.00  0.00    +0.000 C 
ATOM     31  C   UNL     1       7.305 -10.570  -5.488  0.00  0.00    +0.000 C 
ATOM     32  C   UNL     1       8.121  -9.565  -4.673  0.00  0.00    +0.000 C 
ATOM     33  C   UNL     1       7.298  -8.332  -4.298  0.00  0.00    +0.000 C 
ATOM     34  H   UNL     1       6.683  -6.740  -2.413  0.00  0.00    +0.000 HD
ENDBRANCH  24  25
ENDBRANCH   4  24
TORSDOF 5
