REMARK  Name = 
REMARK  7 active torsions:
REMARK  status: ('A' for Active; 'I' for Inactive)
REMARK    1  A    between atoms: C_1  and  N_2
REMARK    2  A    between atoms: C_10  and  C_11
REMARK    3  A    between atoms: C_11  and  C_12
REMARK    4  A    between atoms: C_12  and  C_13
REMARK    5  A    between atoms: C_12  and  C_14
REMARK    6  A    between atoms: C_12  and  C_15
REMARK    7  A    between atoms: C_19  and  C_20
REMARK                            x       y       z     vdW  Elec       q    Type
REMARK                         _______ _______ _______ _____ _____    ______ ____
ROOT
ATOM      1  C   UNL     1      -6.285   1.168   0.071  0.00  0.00    +0.000 C 
ENDROOT
BRANCH   1  11
ATOM      2  C   UNL     1       2.391   0.651  -0.083  0.00  0.00    +0.000 C 
ATOM      3  N   UNL     1       1.052   0.100  -0.293  0.00  0.00    +0.000 NA
ATOM      4  C   UNL     1       0.634  -0.672   0.903  0.00  0.00    +0.000 C 
ATOM      5  C   UNL     1      -0.817  -1.191   0.811  0.00  0.00    +0.000 C 
ATOM      6  N   UNL     1      -1.703  -0.056   0.567  0.00  0.00    +0.000 N 
ATOM      7  C   UNL     1      -3.000  -0.138   1.012  0.00  0.00    +0.000 A 
ATOM      8  N   UNL     1      -3.252  -0.816   2.129  0.00  0.00    +0.000 NA
ATOM      9  C   UNL     1      -4.509  -0.770   2.559  0.00  0.00    +0.000 A 
ATOM     10  N   UNL     1      -5.519  -0.153   1.958  0.00  0.00    +0.000 NA
ATOM     11  C   UNL     1      -5.181   0.480   0.835  0.00  0.00    +0.000 A 
ATOM     12  N   UNL     1      -3.941   0.522   0.351  0.00  0.00    +0.000 NA
ATOM     13  C   UNL     1      -1.383   0.695  -0.647  0.00  0.00    +0.000 C 
ATOM     14  C   UNL     1       0.082   1.191  -0.552  0.00  0.00    +0.000 C 
ENDBRANCH   1  11
BRANCH   1  15
ATOM     15  C   UNL     1      -5.932   1.951  -1.238  0.00  0.00    +0.000 C 
ATOM     16  C   UNL     1      -4.971   3.119  -0.922  0.00  0.00    +0.000 C 
ATOM     17  C   UNL     1      -5.319   0.997  -2.291  0.00  0.00    +0.000 C 
BRANCH  15  18
ATOM     18  C   UNL     1      -7.217   2.569  -1.829  0.00  0.00    +0.000 A 
ATOM     19  C   UNL     1      -7.193   3.292  -3.011  0.00  0.00    +0.000 A 
ATOM     20  C   UNL     1      -8.378   3.854  -3.424  0.00  0.00    +0.000 A 
ATOM     21  N   UNL     1      -9.533   3.732  -2.750  0.00  0.00    +0.000 NA
ATOM     22  C   UNL     1      -9.496   3.011  -1.604  0.00  0.00    +0.000 A 
ATOM     23  N   UNL     1      -8.364   2.426  -1.131  0.00  0.00    +0.000 NA
BRANCH  22  24
ATOM     24  C   UNL     1     -10.784   2.847  -0.787  0.00  0.00    +0.000 C 
ATOM     25  F   UNL     1     -11.859   3.521  -1.297  0.00  0.00    +0.000 F 
ATOM     26  F   UNL     1     -11.191   1.544  -0.688  0.00  0.00    +0.000 F 
ATOM     27  F   UNL     1     -10.660   3.290   0.501  0.00  0.00    +0.000 F 
ENDBRANCH  22  24
ENDBRANCH  15  18
ENDBRANCH   1  15
TORSDOF 4
