REMARK  Name = 
REMARK  4 active torsions:
REMARK  status: ('A' for Active; 'I' for Inactive)
REMARK    1  A    between atoms: C_1  and  C_2
REMARK    2  A    between atoms: C_2  and  C_3
REMARK    3  A    between atoms: C_7  and  C_8
REMARK    4  A    between atoms: C_13  and  N_14
REMARK                            x       y       z     vdW  Elec       q    Type
REMARK                         _______ _______ _______ _____ _____    ______ ____
ROOT
ATOM      1  C   UNL     1      -1.805   0.030  -0.609  0.00  0.00    +0.000 C 
ATOM      2  C   UNL     1      -0.670   0.000   0.425  0.00  0.00    +0.000 C 
ATOM      3  C   UNL     1       0.391  -1.119   0.159  0.00  0.00    +0.000 C 
ATOM      4  C   UNL     1       1.313  -0.086  -0.512  0.00  0.00    +0.000 C 
ATOM      5  C   UNL     1       0.459   1.034   0.104  0.00  0.00    +0.000 C 
ENDROOT
BRANCH   4   6
ATOM      6  N   UNL     1       1.251  -0.100  -1.941  0.00  0.00    +0.000 N 
ATOM      7  C   UNL     1       2.065  -0.942  -2.700  0.00  0.00    +0.000 A 
ATOM      8  N   UNL     1       2.474  -2.116  -2.192  0.00  0.00    +0.000 NA
ATOM      9  C   UNL     1       3.331  -2.843  -2.943  0.00  0.00    +0.000 A 
ATOM     10  C   UNL     1       3.794  -2.439  -4.170  0.00  0.00    +0.000 A 
ATOM     11 CL   UNL     1       4.904  -3.365  -5.081  0.00  0.00    +0.000 Cl
ATOM     12  C   UNL     1       3.311  -1.230  -4.606  0.00  0.00    +0.000 A 
ATOM     13  N   UNL     1       2.450  -0.467  -3.894  0.00  0.00    +0.000 NA
ATOM     14  H   UNL     1       1.331   0.809  -2.387  0.00  0.00    +0.000 HD
ENDBRANCH   4   6
BRANCH   2  15
ATOM     15  C   UNL     1      -1.301   0.054   1.899  0.00  0.00    +0.000 A 
ATOM     16  C   UNL     1      -1.682  -1.093   2.606  0.00  0.00    +0.000 A 
ATOM     17  N   UNL     1      -2.198  -1.116   3.858  0.00  0.00    +0.000 NA
ATOM     18  C   UNL     1      -2.357   0.079   4.473  0.00  0.00    +0.000 A 
ATOM     19  C   UNL     1      -2.032   1.293   3.894  0.00  0.00    +0.000 A 
ATOM     20  C   UNL     1      -1.516   1.262   2.590  0.00  0.00    +0.000 A 
BRANCH  19  21
ATOM     21  C   UNL     1      -2.182   2.603   4.574  0.00  0.00    +0.000 C 
ATOM     22  N   UNL     1      -2.634   2.637   5.864  0.00  0.00    +0.000 N 
ATOM     23  O   UNL     1      -1.894   3.649   4.003  0.00  0.00    +0.000 OA
ATOM     24  H   UNL     1      -2.861   1.841   6.438  0.00  0.00    +0.000 HD
ATOM     25  H   UNL     1      -2.687   3.552   6.296  0.00  0.00    +0.000 HD
ENDBRANCH  19  21
ENDBRANCH   2  15
TORSDOF 3
