REMARK  Name = 
REMARK  8 active torsions:
REMARK  status: ('A' for Active; 'I' for Inactive)
REMARK    1  A    between atoms: C_2  and  C_25
REMARK    2  A    between atoms: N_3  and  C_4
REMARK    3  A    between atoms: C_4  and  C_5
REMARK    4  A    between atoms: C_8  and  C_9
REMARK    5  A    between atoms: C_9  and  N_10
REMARK    6  A    between atoms: N_10  and  C_11
REMARK    7  A    between atoms: C_11  and  C_12
REMARK    8  A    between atoms: C_16  and  C_18
REMARK                            x       y       z     vdW  Elec       q    Type
REMARK                         _______ _______ _______ _____ _____    ______ ____
ROOT
ATOM      1  C   UNL     1       2.840  -2.150   3.157  0.00  0.00    +0.000 A 
ATOM      2  C   UNL     1       3.149  -1.406   4.300  0.00  0.00    +0.000 A 
ATOM      3  C   UNL     1       3.939  -1.950   5.321  0.00  0.00    +0.000 A 
ATOM      4  C   UNL     1       4.467  -3.247   5.225  0.00  0.00    +0.000 A 
ATOM      5  C   UNL     1       4.094  -4.019   4.116  0.00  0.00    +0.000 A 
ATOM      6  C   UNL     1       3.296  -3.475   3.092  0.00  0.00    +0.000 A 
ENDROOT
BRANCH   1   7
ATOM      7  C   UNL     1       2.019  -1.534   2.049  0.00  0.00    +0.000 C 
BRANCH   7  10
ATOM      8  O   UNL     1       0.938  -0.458  -0.204  0.00  0.00    +0.000 OA
ATOM      9  C   UNL     1       2.137  -0.251  -0.018  0.00  0.00    +0.000 C 
ATOM     10  N   UNL     1       2.795  -0.805   1.062  0.00  0.00    +0.000 N 
ATOM     11  H   UNL     1       3.713  -0.455   1.323  0.00  0.00    +0.000 HD
BRANCH   9  12
ATOM     12  C   UNL     1       2.900   0.572  -0.969  0.00  0.00    +0.000 A 
ATOM     13  C   UNL     1       2.426   0.723  -2.267  0.00  0.00    +0.000 A 
ATOM     14  S   UNL     1       3.385   1.738  -3.244  0.00  0.00    +0.000 S 
ATOM     15  C   UNL     1       4.450   2.051  -1.956  0.00  0.00    +0.000 A 
ATOM     16  N   UNL     1       5.491   2.915  -2.109  0.00  0.00    +0.000 NA
ATOM     17  C   UNL     1       6.191   3.093  -1.041  0.00  0.00    +0.000 A 
ATOM     18  N   UNL     1       5.956   2.473   0.162  0.00  0.00    +0.000 N 
ATOM     19  C   UNL     1       4.940   1.560   0.351  0.00  0.00    +0.000 A 
ATOM     20  O   UNL     1       4.790   0.975   1.415  0.00  0.00    +0.000 OA
ATOM     21  C   UNL     1       4.101   1.354  -0.811  0.00  0.00    +0.000 A 
ATOM     22  H   UNL     1       6.556   2.647   0.953  0.00  0.00    +0.000 HD
ENDBRANCH   9  12
ENDBRANCH   7  10
ENDBRANCH   1   7
BRANCH   4  23
ATOM     23  C   UNL     1       5.509  -3.722   6.224  0.00  0.00    +0.000 C 
BRANCH  23  24
ATOM     24  N   UNL     1       4.991  -4.409   7.410  0.00  0.00    +0.000 N 
ATOM     25  C   UNL     1       4.636  -3.583   8.521  0.00  0.00    +0.000 C 
ATOM     26  O   UNL     1       4.582  -2.358   8.400  0.00  0.00    +0.000 OA
BRANCH  25  27
ATOM     27  C   UNL     1       4.333  -4.238   9.806  0.00  0.00    +0.000 A 
ATOM     28  N   UNL     1       4.994  -5.274  10.296  0.00  0.00    +0.000 NA
ATOM     29  C   UNL     1       4.362  -5.740  11.429  0.00  0.00    +0.000 A 
ATOM     30  C   UNL     1       3.251  -5.028  11.820  0.00  0.00    +0.000 A 
ATOM     31  S   UNL     1       3.008  -3.701  10.758  0.00  0.00    +0.000 S 
ENDBRANCH  25  27
BRANCH  24  32
ATOM     32  C   UNL     1       5.289  -5.844   7.647  0.00  0.00    +0.000 C 
BRANCH  32  33
ATOM     33  C   UNL     1       5.546  -6.888   6.557  0.00  0.00    +0.000 C 
ATOM     34  F   UNL     1       5.930  -6.386   5.371  0.00  0.00    +0.000 F 
ATOM     35  F   UNL     1       6.533  -7.729   6.965  0.00  0.00    +0.000 F 
ATOM     36  F   UNL     1       4.448  -7.650   6.346  0.00  0.00    +0.000 F 
ENDBRANCH  32  33
ENDBRANCH  24  32
ENDBRANCH  23  24
ENDBRANCH   4  23
TORSDOF 8
