REMARK  Name = 
REMARK  7 active torsions:
REMARK  status: ('A' for Active; 'I' for Inactive)
REMARK    1  A    between atoms: C_1  and  C_2
REMARK    2  A    between atoms: C_2  and  N_3
REMARK    3  A    between atoms: C_2  and  C_17
REMARK    4  A    between atoms: C_4  and  C_6
REMARK    5  A    between atoms: N_12  and  C_13
REMARK    6  A    between atoms: C_20  and  O_21
REMARK    7  A    between atoms: O_21  and  C_22
REMARK                            x       y       z     vdW  Elec       q    Type
REMARK                         _______ _______ _______ _____ _____    ______ ____
ROOT
ATOM      1  C   UNL     1       0.907   0.144  -0.043  0.00  0.00    +0.000 C 
ATOM      2  C   UNL     1       2.435   0.108  -0.046  0.00  0.00    +0.000 C 
ENDROOT
BRANCH   2   3
ATOM      3  C   UNL     1       2.968  -0.849  -1.098  0.00  0.00    +0.000 A 
ATOM      4  C   UNL     1       3.774  -0.359  -2.132  0.00  0.00    +0.000 A 
ATOM      5  C   UNL     1       4.331  -1.228  -3.069  0.00  0.00    +0.000 A 
ATOM      6  C   UNL     1       4.151  -2.608  -2.942  0.00  0.00    +0.000 A 
ATOM      7  C   UNL     1       3.302  -3.104  -1.956  0.00  0.00    +0.000 A 
ATOM      8  C   UNL     1       2.708  -2.231  -1.043  0.00  0.00    +0.000 A 
BRANCH   6   9
ATOM      9  O   UNL     1       4.743  -3.542  -3.764  0.00  0.00    +0.000 OA
BRANCH   9  10
ATOM     10  C   UNL     1       6.002  -3.304  -4.255  0.00  0.00    +0.000 A 
ATOM     11  C   UNL     1       7.003  -2.594  -3.592  0.00  0.00    +0.000 A 
ATOM     12  C   UNL     1       8.217  -2.359  -4.232  0.00  0.00    +0.000 A 
ATOM     13  C   UNL     1       8.411  -2.902  -5.491  0.00  0.00    +0.000 A 
ATOM     14  N   UNL     1       7.494  -3.659  -6.132  0.00  0.00    +0.000 NA
ATOM     15  C   UNL     1       6.312  -3.845  -5.496  0.00  0.00    +0.000 A 
ENDBRANCH   9  10
ENDBRANCH   6   9
ENDBRANCH   2   3
BRANCH   2  16
ATOM     16  N   UNL     1       2.952  -0.283   1.248  0.00  0.00    +0.000 N 
ATOM     17  C   UNL     1       3.204   0.585   2.273  0.00  0.00    +0.000 C 
ATOM     18  O   UNL     1       3.136   1.802   2.147  0.00  0.00    +0.000 OA
ATOM     19  H   UNL     1       2.892  -1.271   1.461  0.00  0.00    +0.000 HD
BRANCH  17  20
ATOM     20  C   UNL     1       3.625  -0.042   3.535  0.00  0.00    +0.000 A 
ATOM     21  C   UNL     1       4.426   0.656   4.428  0.00  0.00    +0.000 A 
ATOM     22  S   UNL     1       4.824  -0.236   5.825  0.00  0.00    +0.000 S 
ATOM     23  C   UNL     1       3.905  -1.572   5.305  0.00  0.00    +0.000 A 
ATOM     24  N   UNL     1       3.799  -2.689   6.068  0.00  0.00    +0.000 NA
ATOM     25  C   UNL     1       3.049  -3.617   5.567  0.00  0.00    +0.000 A 
ATOM     26  N   UNL     1       2.393  -3.543   4.356  0.00  0.00    +0.000 N 
ATOM     27  C   UNL     1       1.586  -4.650   3.883  0.00  0.00    +0.000 C 
ATOM     28  C   UNL     1       2.508  -2.430   3.534  0.00  0.00    +0.000 A 
ATOM     29  O   UNL     1       1.990  -2.375   2.421  0.00  0.00    +0.000 OA
ATOM     30  C   UNL     1       3.323  -1.353   4.072  0.00  0.00    +0.000 A 
ENDBRANCH  17  20
ENDBRANCH   2  16
TORSDOF 5
