REMARK  Name = 
REMARK  8 active torsions:
REMARK  status: ('A' for Active; 'I' for Inactive)
REMARK    1  A    between atoms: C_1  and  C_2
REMARK    2  A    between atoms: C_2  and  C_3
REMARK    3  A    between atoms: C_2  and  C_25
REMARK    4  A    between atoms: C_3  and  N_4
REMARK    5  A    between atoms: C_7  and  C_8
REMARK    6  A    between atoms: C_8  and  C_9
REMARK    7  A    between atoms: C_8  and  N_10
REMARK    8  A    between atoms: C_11  and  C_13
REMARK                            x       y       z     vdW  Elec       q    Type
REMARK                         _______ _______ _______ _____ _____    ______ ____
ROOT
ATOM      1  C   UNL     1      -1.881   1.880   3.581  0.00  0.00    +0.000 C 
ATOM      2  C   UNL     1      -3.404   1.813   3.688  0.00  0.00    +0.000 C 
ENDROOT
BRANCH   1   6
ATOM      3  N   UNL     1       0.458  -0.047   1.390  0.00  0.00    +0.000 NA
ATOM      4  C   UNL     1       0.847   0.969   2.377  0.00  0.00    +0.000 C 
ATOM      5  C   UNL     1       0.325   0.585   3.762  0.00  0.00    +0.000 C 
ATOM      6  C   UNL     1      -1.210   0.492   3.778  0.00  0.00    +0.000 C 
ATOM      7  C   UNL     1      -1.601  -0.537   2.702  0.00  0.00    +0.000 C 
ATOM      8  C   UNL     1      -1.006  -0.201   1.326  0.00  0.00    +0.000 C 
BRANCH   3   9
ATOM      9  C   UNL     1       1.024   0.221   0.047  0.00  0.00    +0.000 C 
BRANCH   9  11
ATOM     10  C   UNL     1       3.268  -0.904   0.619  0.00  0.00    +0.000 C 
ATOM     11  C   UNL     1       2.577   0.317  -0.005  0.00  0.00    +0.000 C 
BRANCH  11  12
ATOM     12  C   UNL     1       3.105   0.573  -1.414  0.00  0.00    +0.000 A 
ATOM     13  C   UNL     1       3.872   1.721  -1.676  0.00  0.00    +0.000 A 
ATOM     14  C   UNL     1       4.374   1.973  -2.955  0.00  0.00    +0.000 A 
ATOM     15  C   UNL     1       4.119   1.081  -3.994  0.00  0.00    +0.000 A 
ATOM     16  C   UNL     1       3.369  -0.065  -3.746  0.00  0.00    +0.000 A 
ATOM     17 CL   UNL     1       3.059  -1.174  -5.025  0.00  0.00    +0.000 Cl
ATOM     18  C   UNL     1       2.865  -0.323  -2.468  0.00  0.00    +0.000 A 
ENDBRANCH  11  12
ENDBRANCH   9  11
ENDBRANCH   3   9
ENDBRANCH   1   6
BRANCH   1  19
ATOM     19  N   UNL     1      -1.374   2.840   4.563  0.00  0.00    +0.000 N 
ATOM     20  C   UNL     1      -0.802   4.043   4.207  0.00  0.00    +0.000 C 
ATOM     21  O   UNL     1      -0.693   4.394   3.037  0.00  0.00    +0.000 OA
ATOM     22  H   UNL     1      -1.323   2.534   5.532  0.00  0.00    +0.000 HD
BRANCH  20  23
ATOM     23  C   UNL     1      -0.369   4.919   5.307  0.00  0.00    +0.000 A 
ATOM     24  C   UNL     1      -0.286   6.285   5.093  0.00  0.00    +0.000 A 
ATOM     25  S   UNL     1       0.200   7.167   6.465  0.00  0.00    +0.000 S 
ATOM     26  C   UNL     1       0.370   5.746   7.383  0.00  0.00    +0.000 A 
ATOM     27  N   UNL     1       0.790   5.794   8.675  0.00  0.00    +0.000 NA
ATOM     28  C   UNL     1       0.914   4.637   9.239  0.00  0.00    +0.000 A 
ATOM     29  N   UNL     1       0.650   3.437   8.629  0.00  0.00    +0.000 N 
ATOM     30  C   UNL     1       0.176   3.344   7.343  0.00  0.00    +0.000 A 
ATOM     31  O   UNL     1      -0.132   2.263   6.858  0.00  0.00    +0.000 OA
ATOM     32  C   UNL     1       0.044   4.613   6.652  0.00  0.00    +0.000 A 
ATOM     33  H   UNL     1       0.753   2.572   9.135  0.00  0.00    +0.000 HD
ENDBRANCH  20  23
ENDBRANCH   1  19
TORSDOF 6
