REMARK  Name = 
REMARK  8 active torsions:
REMARK  status: ('A' for Active; 'I' for Inactive)
REMARK    1  A    between atoms: C_1  and  C_2
REMARK    2  A    between atoms: C_4  and  C_5
REMARK    3  A    between atoms: N_10  and  C_11
REMARK    4  A    between atoms: C_11  and  C_12
REMARK    5  A    between atoms: C_16  and  N_17
REMARK    6  A    between atoms: N_20  and  S_21
REMARK    7  A    between atoms: S_21  and  C_22
REMARK    8  A    between atoms: C_26  and  C_27
REMARK                            x       y       z     vdW  Elec       q    Type
REMARK                         _______ _______ _______ _____ _____    ______ ____
ROOT
ATOM      1  C   UNL     1       3.336   3.970  -0.159  0.00  0.00    +0.000 A 
ATOM      2  C   UNL     1       2.430   4.967  -0.524  0.00  0.00    +0.000 A 
ATOM      3  C   UNL     1       2.804   6.305  -0.433  0.00  0.00    +0.000 A 
ATOM      4  C   UNL     1       4.079   6.647   0.034  0.00  0.00    +0.000 A 
ATOM      5  C   UNL     1       5.030   5.679   0.384  0.00  0.00    +0.000 A 
ATOM      6  C   UNL     1       4.630   4.339   0.258  0.00  0.00    +0.000 A 
ENDROOT
BRANCH   5   7
ATOM      7  N   UNL     1       6.285   6.013   0.873  0.00  0.00    +0.000 N 
ATOM      8  C   UNL     1       7.485   5.257   0.457  0.00  0.00    +0.000 C 
ATOM      9  C   UNL     1       8.373   4.892   1.664  0.00  0.00    +0.000 C 
ATOM     10  N   UNL     1       8.707   6.095   2.481  0.00  0.00    +0.000 NA
ATOM     11  C   UNL     1       7.458   6.768   2.959  0.00  0.00    +0.000 C 
ATOM     12  C   UNL     1       6.462   7.139   1.822  0.00  0.00    +0.000 C 
ATOM     13  C   UNL     1       6.852   8.443   1.131  0.00  0.00    +0.000 C 
BRANCH  10  14
ATOM     14  S   UNL     1       9.984   7.067   1.943  0.00  0.00    +0.000 S 
ATOM     15  C   UNL     1      11.351   6.386   2.847  0.00  0.00    +0.000 C 
ATOM     16  O   UNL     1      10.208   6.818   0.539  0.00  0.00    +0.000 OA
ATOM     17  O   UNL     1       9.781   8.408   2.453  0.00  0.00    +0.000 OA
ENDBRANCH  10  14
ENDBRANCH   5   7
BRANCH   1  18
ATOM     18  C   UNL     1       2.947   2.508  -0.197  0.00  0.00    +0.000 C 
BRANCH  18  25
ATOM     19  C   UNL     1       2.189  -1.373  -4.641  0.00  0.00    +0.000 C 
ATOM     20  C   UNL     1       2.483  -1.031  -3.213  0.00  0.00    +0.000 A 
ATOM     21  C   UNL     1       2.521  -2.000  -2.243  0.00  0.00    +0.000 A 
ATOM     22  C   UNL     1       2.804  -1.548  -0.974  0.00  0.00    +0.000 A 
ATOM     23  N   UNL     1       3.042  -0.251  -0.655  0.00  0.00    +0.000 NA
ATOM     24  C   UNL     1       2.999   0.614  -1.671  0.00  0.00    +0.000 A 
ATOM     25  N   UNL     1       3.301   1.950  -1.480  0.00  0.00    +0.000 N 
ATOM     26  N   UNL     1       2.711   0.270  -2.933  0.00  0.00    +0.000 NA
ATOM     27  H   UNL     1       2.954   2.456  -2.287  0.00  0.00    +0.000 HD
BRANCH  22  28
ATOM     28  C   UNL     1       2.870  -2.536   0.146  0.00  0.00    +0.000 C 
ATOM     29  N   UNL     1       3.166  -2.019   1.381  0.00  0.00    +0.000 N 
ATOM     30  O   UNL     1       2.678  -3.736  -0.021  0.00  0.00    +0.000 OA
ATOM     31  H   UNL     1       3.362  -1.031   1.476  0.00  0.00    +0.000 HD
ATOM     32  H   UNL     1       3.262  -2.644   2.166  0.00  0.00    +0.000 HD
ENDBRANCH  22  28
ENDBRANCH  18  25
ENDBRANCH   1  18
TORSDOF 5
