REMARK  Name = 
REMARK  11 active torsions:
REMARK  status: ('A' for Active; 'I' for Inactive)
REMARK    1  A    between atoms: C_1  and  C_2
REMARK    2  A    between atoms: C_2  and  N_3
REMARK    3  A    between atoms: C_2  and  C_23
REMARK    4  A    between atoms: C_4  and  C_6
REMARK    5  A    between atoms: C_9  and  C_10
REMARK    6  A    between atoms: C_10  and  N_11
REMARK    7  A    between atoms: C_12  and  C_14
REMARK    8  A    between atoms: N_18  and  C_19
REMARK    9  A    between atoms: C_26  and  C_27
REMARK   10  A    between atoms: C_27  and  N_28
REMARK   11  A    between atoms: C_29  and  C_31
REMARK                            x       y       z     vdW  Elec       q    Type
REMARK                         _______ _______ _______ _____ _____    ______ ____
ROOT
ATOM      1  C   UNL     1       6.991  -2.548  -1.513  0.00  0.00    +0.000 C 
ATOM      2  C   UNL     1       5.562  -2.378  -2.040  0.00  0.00    +0.000 C 
ENDROOT
BRANCH   2   3
ATOM      3  C   UNL     1       5.375  -1.059  -2.764  0.00  0.00    +0.000 A 
ATOM      4  C   UNL     1       4.998  -1.072  -4.116  0.00  0.00    +0.000 A 
ATOM      5  C   UNL     1       4.923   0.113  -4.852  0.00  0.00    +0.000 A 
ATOM      6  C   UNL     1       5.228   1.340  -4.253  0.00  0.00    +0.000 A 
ATOM      7  C   UNL     1       5.524   1.366  -2.884  0.00  0.00    +0.000 A 
ATOM      8  C   UNL     1       5.605   0.179  -2.147  0.00  0.00    +0.000 A 
BRANCH   6   9
ATOM      9  C   UNL     1       5.230   2.607  -5.066  0.00  0.00    +0.000 C 
BRANCH   9  10
ATOM     10  N   UNL     1       3.932   3.226  -5.086  0.00  0.00    +0.000 N 
ATOM     11  C   UNL     1       3.695   4.340  -5.843  0.00  0.00    +0.000 C 
ATOM     12  O   UNL     1       4.547   4.834  -6.573  0.00  0.00    +0.000 OA
ATOM     13  H   UNL     1       3.293   2.975  -4.335  0.00  0.00    +0.000 HD
BRANCH  11  14
ATOM     14  C   UNL     1       2.328   4.886  -5.784  0.00  0.00    +0.000 A 
ATOM     15  C   UNL     1       1.855   5.670  -6.829  0.00  0.00    +0.000 A 
ATOM     16  S   UNL     1       0.239   6.172  -6.628  0.00  0.00    +0.000 S 
ATOM     17  C   UNL     1       0.130   5.406  -5.115  0.00  0.00    +0.000 A 
ATOM     18  N   UNL     1      -1.013   5.469  -4.382  0.00  0.00    +0.000 NA
ATOM     19  C   UNL     1      -0.947   4.864  -3.238  0.00  0.00    +0.000 A 
ATOM     20  N   UNL     1       0.153   4.198  -2.770  0.00  0.00    +0.000 N 
ATOM     21  C   UNL     1       1.321   4.087  -3.486  0.00  0.00    +0.000 A 
ATOM     22  O   UNL     1       2.276   3.448  -3.052  0.00  0.00    +0.000 OA
ATOM     23  C   UNL     1       1.305   4.756  -4.775  0.00  0.00    +0.000 A 
ATOM     24  H   UNL     1       0.136   3.740  -1.871  0.00  0.00    +0.000 HD
ENDBRANCH  11  14
ENDBRANCH   9  10
ENDBRANCH   6   9
ENDBRANCH   2   3
BRANCH   2  25
ATOM     25  N   UNL     1       4.593  -2.547  -0.971  0.00  0.00    +0.000 N 
ATOM     26  C   UNL     1       4.155  -3.804  -0.616  0.00  0.00    +0.000 C 
ATOM     27  O   UNL     1       4.517  -4.815  -1.211  0.00  0.00    +0.000 OA
ATOM     28  H   UNL     1       4.200  -1.725  -0.532  0.00  0.00    +0.000 HD
BRANCH  26  29
ATOM     29  C   UNL     1       3.260  -3.839   0.623  0.00  0.00    +0.000 C 
ATOM     30  C   UNL     1       2.188  -4.930   0.523  0.00  0.00    +0.000 C 
ATOM     31  C   UNL     1       2.733  -6.343   0.725  0.00  0.00    +0.000 C 
ATOM     32  C   UNL     1       3.510  -6.495   2.039  0.00  0.00    +0.000 C 
ATOM     33  C   UNL     1       4.606  -5.418   2.137  0.00  0.00    +0.000 C 
ATOM     34  C   UNL     1       4.116  -3.988   1.889  0.00  0.00    +0.000 C 
BRANCH  32  35
ATOM     35  C   UNL     1       2.582  -6.506   3.271  0.00  0.00    +0.000 C 
BRANCH  35  36
ATOM     36  N   UNL     1       1.697  -7.662   3.255  0.00  0.00    +0.000 N 
ATOM     37  C   UNL     1       0.318  -7.578   3.175  0.00  0.00    +0.000 C 
ATOM     38  O   UNL     1      -0.293  -6.513   3.180  0.00  0.00    +0.000 OA
ATOM     39  H   UNL     1       2.125  -8.577   3.301  0.00  0.00    +0.000 HD
BRANCH  37  40
ATOM     40  C   UNL     1      -0.364  -8.944   3.064  0.00  0.00    +0.000 C 
ATOM     41  C   UNL     1       0.058  -9.641   1.763  0.00  0.00    +0.000 C 
ATOM     42  C   UNL     1      -0.682 -10.962   1.594  0.00  0.00    +0.000 C 
ATOM     43  C   UNL     1      -2.191 -10.762   1.684  0.00  0.00    +0.000 C 
ATOM     44  N   UNL     1      -2.560 -10.135   2.960  0.00  0.00    +0.000 NA
ATOM     45  C   UNL     1      -4.015  -9.993   3.042  0.00  0.00    +0.000 C 
ATOM     46  C   UNL     1      -1.898  -8.822   3.126  0.00  0.00    +0.000 C 
ENDBRANCH  37  40
ENDBRANCH  35  36
ENDBRANCH  32  35
ENDBRANCH  26  29
ENDBRANCH   2  25
TORSDOF 9
