REMARK  Name = 
REMARK  8 active torsions:
REMARK  status: ('A' for Active; 'I' for Inactive)
REMARK    1  A    between atoms: N_1  and  C_2
REMARK    2  A    between atoms: C_2  and  C_3
REMARK    3  A    between atoms: C_2  and  C_18
REMARK    4  A    between atoms: C_3  and  C_4
REMARK    5  A    between atoms: C_7  and  C_8
REMARK    6  A    between atoms: C_8  and  N_9
REMARK    7  A    between atoms: N_9  and  C_10
REMARK    8  A    between atoms: C_18  and  C_20
REMARK                            x       y       z     vdW  Elec       q    Type
REMARK                         _______ _______ _______ _____ _____    ______ ____
ROOT
ATOM      1  C   UNL     1       1.014   1.428  -0.165  0.00  0.00    +0.000 C 
ENDROOT
BRANCH   1   2
ATOM      2  N   UNL     1       1.373   2.151   1.078  0.00  0.00    +0.000 NA
ATOM      3  H   UNL     1       1.168   3.145   0.933  0.00  0.00    +0.000 HD
ATOM      4  H   UNL     1       2.390   2.101   1.189  0.00  0.00    +0.000 HD
ENDBRANCH   1   2
BRANCH   1   5
ATOM      5  C   UNL     1       2.036   1.807  -1.271  0.00  0.00    +0.000 C 
ATOM      6  O   UNL     1       3.243   1.659  -1.060  0.00  0.00    +0.000 OA
BRANCH   5   7
ATOM      7  C   UNL     1       1.566   2.284  -2.582  0.00  0.00    +0.000 A 
ATOM      8  C   UNL     1       2.293   2.017  -3.731  0.00  0.00    +0.000 A 
ATOM      9  S   UNL     1       1.513   2.530  -5.160  0.00  0.00    +0.000 S 
ATOM     10  C   UNL     1       0.206   3.172  -4.279  0.00  0.00    +0.000 A 
ATOM     11  N   UNL     1      -0.861   3.736  -4.906  0.00  0.00    +0.000 NA
ATOM     12  C   UNL     1      -1.778   4.170  -4.106  0.00  0.00    +0.000 A 
ATOM     13  N   UNL     1      -1.708   4.127  -2.737  0.00  0.00    +0.000 N 
ATOM     14  C   UNL     1      -0.581   3.710  -2.070  0.00  0.00    +0.000 A 
ATOM     15  O   UNL     1      -0.417   3.939  -0.877  0.00  0.00    +0.000 OA
ATOM     16  C   UNL     1       0.400   3.055  -2.915  0.00  0.00    +0.000 A 
ATOM     17  H   UNL     1      -2.421   4.569  -2.173  0.00  0.00    +0.000 HD
ENDBRANCH   5   7
ENDBRANCH   1   5
BRANCH   1  18
ATOM     18  C   UNL     1       1.003  -0.088   0.094  0.00  0.00    +0.000 C 
BRANCH  18  19
ATOM     19  C   UNL     1       0.525  -0.873  -1.108  0.00  0.00    +0.000 A 
ATOM     20  C   UNL     1       1.455  -1.428  -1.996  0.00  0.00    +0.000 A 
ATOM     21  C   UNL     1       1.028  -2.073  -3.157  0.00  0.00    +0.000 A 
ATOM     22  C   UNL     1      -0.337  -2.177  -3.457  0.00  0.00    +0.000 A 
ATOM     23  C   UNL     1      -1.269  -1.671  -2.540  0.00  0.00    +0.000 A 
ATOM     24  C   UNL     1      -0.843  -1.016  -1.380  0.00  0.00    +0.000 A 
BRANCH  22  25
ATOM     25  C   UNL     1      -0.786  -2.782  -4.766  0.00  0.00    +0.000 C 
BRANCH  25  26
ATOM     26  N   UNL     1      -0.969  -4.220  -4.648  0.00  0.00    +0.000 N 
ATOM     27  H   UNL     1      -0.260  -4.670  -4.073  0.00  0.00    +0.000 HD
BRANCH  26  28
ATOM     28  C   UNL     1      -1.259  -4.968  -5.798  0.00  0.00    +0.000 A 
ATOM     29  C   UNL     1      -1.633  -4.400  -7.024  0.00  0.00    +0.000 A 
ATOM     30  C   UNL     1      -1.964  -5.195  -8.126  0.00  0.00    +0.000 A 
ATOM     31  C   UNL     1      -1.965  -6.581  -8.011  0.00  0.00    +0.000 A 
ATOM     32  C   UNL     1      -1.645  -7.168  -6.791  0.00  0.00    +0.000 A 
ATOM     33  C   UNL     1      -1.305  -6.366  -5.695  0.00  0.00    +0.000 A 
ENDBRANCH  26  28
ENDBRANCH  25  26
ENDBRANCH  22  25
ENDBRANCH  18  19
ENDBRANCH   1  18
TORSDOF 8
