REMARK  Name = 
REMARK  8 active torsions:
REMARK  status: ('A' for Active; 'I' for Inactive)
REMARK    1  A    between atoms: N_1  and  C_2
REMARK    2  A    between atoms: C_2  and  C_3
REMARK    3  A    between atoms: C_3  and  C_4
REMARK    4  A    between atoms: C_4  and  N_5
REMARK    5  A    between atoms: C_4  and  C_18
REMARK    6  A    between atoms: C_6  and  C_8
REMARK    7  A    between atoms: C_21  and  C_22
REMARK    8  A    between atoms: C_22  and  C_23
REMARK                            x       y       z     vdW  Elec       q    Type
REMARK                         _______ _______ _______ _____ _____    ______ ____
ROOT
ATOM      1  C   UNL     1       4.402   0.756  -1.114  0.00  0.00    +0.000 C 
ENDROOT
BRANCH   1   2
ATOM      2  C   UNL     1       5.029   1.619  -2.210  0.00  0.00    +0.000 A 
ATOM      3  C   UNL     1       5.321   2.964  -1.938  0.00  0.00    +0.000 A 
ATOM      4  C   UNL     1       5.722   3.833  -2.954  0.00  0.00    +0.000 A 
ATOM      5  C   UNL     1       5.900   3.370  -4.264  0.00  0.00    +0.000 A 
ATOM      6  C   UNL     1       5.681   2.012  -4.529  0.00  0.00    +0.000 A 
ATOM      7  C   UNL     1       5.229   1.152  -3.521  0.00  0.00    +0.000 A 
BRANCH   5   8
ATOM      8  C   UNL     1       6.270   4.328  -5.375  0.00  0.00    +0.000 C 
BRANCH   8   9
ATOM      9  C   UNL     1       7.748   4.577  -5.581  0.00  0.00    +0.000 A 
ATOM     10  C   UNL     1       8.538   5.113  -4.564  0.00  0.00    +0.000 A 
ATOM     11  C   UNL     1       9.865   5.438  -4.834  0.00  0.00    +0.000 A 
ATOM     12  C   UNL     1      10.372   5.226  -6.108  0.00  0.00    +0.000 A 
ATOM     13  C   UNL     1       9.529   4.683  -7.061  0.00  0.00    +0.000 A 
ATOM     14  N   UNL     1       8.237   4.358  -6.828  0.00  0.00    +0.000 NA
ENDBRANCH   8   9
ENDBRANCH   5   8
ENDBRANCH   1   2
BRANCH   1  15
ATOM     15  N   UNL     1       4.903  -0.612  -1.173  0.00  0.00    +0.000 N 
ATOM     16  C   UNL     1       4.624  -1.561  -0.221  0.00  0.00    +0.000 C 
ATOM     17  O   UNL     1       3.869  -1.363   0.726  0.00  0.00    +0.000 OA
ATOM     18  H   UNL     1       5.729  -0.749  -1.744  0.00  0.00    +0.000 HD
BRANCH  16  19
ATOM     19  C   UNL     1       5.251  -2.874  -0.426  0.00  0.00    +0.000 A 
ATOM     20  C   UNL     1       4.638  -4.024   0.048  0.00  0.00    +0.000 A 
ATOM     21  S   UNL     1       5.522  -5.449  -0.273  0.00  0.00    +0.000 S 
ATOM     22  C   UNL     1       6.777  -4.569  -1.016  0.00  0.00    +0.000 A 
ATOM     23  N   UNL     1       7.893  -5.192  -1.486  0.00  0.00    +0.000 NA
ATOM     24  C   UNL     1       8.772  -4.394  -1.988  0.00  0.00    +0.000 A 
ATOM     25  N   UNL     1       8.635  -3.033  -2.088  0.00  0.00    +0.000 N 
ATOM     26  C   UNL     1       7.503  -2.369  -1.682  0.00  0.00    +0.000 A 
ATOM     27  O   UNL     1       7.368  -1.165  -1.871  0.00  0.00    +0.000 OA
ATOM     28  C   UNL     1       6.501  -3.215  -1.060  0.00  0.00    +0.000 A 
ATOM     29  H   UNL     1       9.346  -2.467  -2.523  0.00  0.00    +0.000 HD
ENDBRANCH  16  19
ENDBRANCH   1  15
BRANCH   1  30
ATOM     30  C   UNL     1       2.857   0.797  -1.194  0.00  0.00    +0.000 C 
BRANCH  30  31
ATOM     31  C   UNL     1       2.275   2.208  -1.101  0.00  0.00    +0.000 C 
BRANCH  31  32
ATOM     32  N   UNL     1       0.818   2.164  -1.080  0.00  0.00    +0.000 NA
ATOM     33  H   UNL     1       0.453   3.113  -1.006  0.00  0.00    +0.000 HD
ATOM     34  H   UNL     1       0.504   1.667  -0.246  0.00  0.00    +0.000 HD
ENDBRANCH  31  32
ENDBRANCH  30  31
ENDBRANCH   1  30
TORSDOF 8
