REMARK  Name = 
REMARK  7 active torsions:
REMARK  status: ('A' for Active; 'I' for Inactive)
REMARK    1  A    between atoms: C_2  and  C_20
REMARK    2  A    between atoms: N_3  and  C_4
REMARK    3  A    between atoms: C_4  and  C_5
REMARK    4  A    between atoms: C_8  and  C_9
REMARK    5  A    between atoms: C_9  and  C_10
REMARK    6  A    between atoms: C_10  and  O_11
REMARK    7  A    between atoms: C_10  and  C_12
REMARK                            x       y       z     vdW  Elec       q    Type
REMARK                         _______ _______ _______ _____ _____    ______ ____
ROOT
ATOM      1  C   UNL     1       2.306   1.350  -2.001  0.00  0.00    +0.000 C 
ENDROOT
BRANCH   1   2
ATOM      2  C   UNL     1       3.222   2.091  -2.926  0.00  0.00    +0.000 A 
ATOM      3  C   UNL     1       3.151   3.477  -3.074  0.00  0.00    +0.000 A 
ATOM      4  C   UNL     1       4.022   4.124  -3.947  0.00  0.00    +0.000 A 
ATOM      5  C   UNL     1       4.970   3.372  -4.637  0.00  0.00    +0.000 A 
ATOM      6  N   UNL     1       5.066   2.028  -4.497  0.00  0.00    +0.000 NA
ATOM      7  C   UNL     1       4.202   1.421  -3.649  0.00  0.00    +0.000 A 
BRANCH   5   8
ATOM      8  C   UNL     1       5.948   4.028  -5.584  0.00  0.00    +0.000 C 
BRANCH   8   9
ATOM      9  C   UNL     1       6.871   5.040  -4.880  0.00  0.00    +0.000 C 
BRANCH   9  10
ATOM     10  C   UNL     1       7.820   5.771  -5.819  0.00  0.00    +0.000 A 
ATOM     11  C   UNL     1       8.689   6.729  -5.291  0.00  0.00    +0.000 A 
ATOM     12  C   UNL     1       9.574   7.390  -6.137  0.00  0.00    +0.000 A 
ATOM     13  C   UNL     1       9.576   7.077  -7.487  0.00  0.00    +0.000 A 
ATOM     14  C   UNL     1       8.686   6.116  -7.936  0.00  0.00    +0.000 A 
ATOM     15  N   UNL     1       7.813   5.460  -7.137  0.00  0.00    +0.000 NA
ENDBRANCH   9  10
BRANCH   9  16
ATOM     16  O   UNL     1       7.660   4.399  -3.868  0.00  0.00    +0.000 OA
ATOM     17  H   UNL     1       8.015   3.586  -4.271  0.00  0.00    +0.000 HD
ENDBRANCH   9  16
ENDBRANCH   8   9
ENDBRANCH   5   8
ENDBRANCH   1   2
BRANCH   1  20
ATOM     18  O   UNL     1       3.731  -0.809  -0.912  0.00  0.00    +0.000 OA
ATOM     19  C   UNL     1       3.574   0.198  -0.229  0.00  0.00    +0.000 C 
ATOM     20  N   UNL     1       2.849   1.277  -0.669  0.00  0.00    +0.000 N 
ATOM     21  H   UNL     1       2.909   2.151  -0.158  0.00  0.00    +0.000 HD
BRANCH  19  22
ATOM     22  C   UNL     1       4.096   0.290   1.140  0.00  0.00    +0.000 A 
ATOM     23  C   UNL     1       4.365  -0.870   1.855  0.00  0.00    +0.000 A 
ATOM     24  S   UNL     1       4.910  -0.582   3.446  0.00  0.00    +0.000 S 
ATOM     25  C   UNL     1       4.864   1.104   3.216  0.00  0.00    +0.000 A 
ATOM     26  N   UNL     1       5.237   1.956   4.208  0.00  0.00    +0.000 NA
ATOM     27  C   UNL     1       5.209   3.204   3.877  0.00  0.00    +0.000 A 
ATOM     28  N   UNL     1       4.833   3.677   2.647  0.00  0.00    +0.000 N 
ATOM     29  C   UNL     1       4.370   2.860   1.644  0.00  0.00    +0.000 A 
ATOM     30  O   UNL     1       3.908   3.325   0.606  0.00  0.00    +0.000 OA
ATOM     31  C   UNL     1       4.423   1.442   1.948  0.00  0.00    +0.000 A 
ATOM     32  H   UNL     1       4.811   4.669   2.459  0.00  0.00    +0.000 HD
ENDBRANCH  19  22
ENDBRANCH   1  20
TORSDOF 7
