REMARK  Name = 
REMARK  6 active torsions:
REMARK  status: ('A' for Active; 'I' for Inactive)
REMARK    1  A    between atoms: C_1  and  O_2
REMARK    2  A    between atoms: O_2  and  C_3
REMARK    3  A    between atoms: C_6  and  C_7
REMARK    4  A    between atoms: C_7  and  O_8
REMARK    5  A    between atoms: O_8  and  C_9
REMARK    6  A    between atoms: C_13  and  C_14
REMARK                            x       y       z     vdW  Elec       q    Type
REMARK                         _______ _______ _______ _____ _____    ______ ____
ROOT
ATOM      1  C   UNL     1       5.347  -4.597  -5.512  0.00  0.00    +0.000 A 
ATOM      2  C   UNL     1       5.544  -5.898  -5.090  0.00  0.00    +0.000 A 
ATOM      3  C   UNL     1       6.165  -6.780  -5.966  0.00  0.00    +0.000 A 
ATOM      4  C   UNL     1       6.551  -6.330  -7.227  0.00  0.00    +0.000 A 
ATOM      5  C   UNL     1       6.310  -5.005  -7.581  0.00  0.00    +0.000 A 
ATOM      6  N   UNL     1       5.727  -4.138  -6.725  0.00  0.00    +0.000 NA
ENDROOT
BRANCH   5   7
ATOM      7  C   UNL     1       6.664  -4.447  -8.895  0.00  0.00    +0.000 A 
ATOM      8  C   UNL     1       6.634  -5.209 -10.071  0.00  0.00    +0.000 A 
ATOM      9  C   UNL     1       7.006  -4.645 -11.291  0.00  0.00    +0.000 A 
ATOM     10  C   UNL     1       7.396  -3.319 -11.309  0.00  0.00    +0.000 A 
ATOM     11  N   UNL     1       7.419  -2.534 -10.214  0.00  0.00    +0.000 NA
ATOM     12  C   UNL     1       7.048  -3.112  -9.044  0.00  0.00    +0.000 A 
ENDBRANCH   5   7
BRANCH   1  13
ATOM     13  O   UNL     1       4.714  -3.742  -4.635  0.00  0.00    +0.000 OA
BRANCH  13  14
ATOM     14  C   UNL     1       4.590  -2.421  -5.172  0.00  0.00    +0.000 C 
BRANCH  14  18
ATOM     15  C   UNL     1       2.444   0.244  -2.525  0.00  0.00    +0.000 A 
ATOM     16  C   UNL     1       3.165  -0.829  -1.999  0.00  0.00    +0.000 A 
ATOM     17  C   UNL     1       3.851  -1.702  -2.848  0.00  0.00    +0.000 A 
ATOM     18  C   UNL     1       3.814  -1.525  -4.235  0.00  0.00    +0.000 A 
ATOM     19  C   UNL     1       3.096  -0.439  -4.756  0.00  0.00    +0.000 A 
ATOM     20  C   UNL     1       2.414   0.434  -3.906  0.00  0.00    +0.000 A 
BRANCH  15  22
ATOM     21  C   UNL     1       1.735   0.987  -0.388  0.00  0.00    +0.000 C 
ATOM     22  O   UNL     1       1.744   1.169  -1.799  0.00  0.00    +0.000 OA
ENDBRANCH  15  22
ENDBRANCH  14  18
ENDBRANCH  13  14
ENDBRANCH   1  13
TORSDOF 5
