REMARK  Name = 
REMARK  7 active torsions:
REMARK  status: ('A' for Active; 'I' for Inactive)
REMARK    1  A    between atoms: C_1  and  C_2
REMARK    2  A    between atoms: C_2  and  C_3
REMARK    3  A    between atoms: C_2  and  N_4
REMARK    4  A    between atoms: C_2  and  C_5
REMARK    5  A    between atoms: C_8  and  O_9
REMARK    6  A    between atoms: O_9  and  C_10
REMARK    7  A    between atoms: C_10  and  C_11
REMARK                            x       y       z     vdW  Elec       q    Type
REMARK                         _______ _______ _______ _____ _____    ______ ____
ROOT
ATOM      1  C   UNL     1       2.859  -1.213   0.854  0.00  0.00    +0.000 A 
ATOM      2  C   UNL     1       2.492  -2.536   0.600  0.00  0.00    +0.000 A 
ATOM      3  N   UNL     1       2.833  -3.575   1.407  0.00  0.00    +0.000 NA
ATOM      4  C   UNL     1       3.558  -3.253   2.496  0.00  0.00    +0.000 A 
ATOM      5  C   UNL     1       3.963  -1.945   2.730  0.00  0.00    +0.000 A 
ATOM      6  N   UNL     1       3.619  -0.909   1.935  0.00  0.00    +0.000 NA
ENDROOT
BRANCH   1   8
ATOM      7  C   UNL     1       2.946  -0.240  -1.464  0.00  0.00    +0.000 C 
ATOM      8  C   UNL     1       2.399  -0.061  -0.040  0.00  0.00    +0.000 C 
ATOM      9  C   UNL     1       2.886   1.296   0.518  0.00  0.00    +0.000 C 
BRANCH   8  10
ATOM     10  N   UNL     1       0.924  -0.012  -0.121  0.00  0.00    +0.000 NA
ATOM     11  H   UNL     1       0.647   0.854  -0.582  0.00  0.00    +0.000 HD
ATOM     12  H   UNL     1       0.550   0.057   0.827  0.00  0.00    +0.000 HD
ENDBRANCH   8  10
ENDBRANCH   1   8
BRANCH   4  13
ATOM     13  O   UNL     1       3.821  -4.298   3.338  0.00  0.00    +0.000 OA
BRANCH  13  14
ATOM     14  C   UNL     1       3.962  -3.897   4.703  0.00  0.00    +0.000 C 
BRANCH  14  15
ATOM     15  C   UNL     1       3.682  -5.041   5.637  0.00  0.00    +0.000 A 
ATOM     16  C   UNL     1       4.269  -5.061   6.907  0.00  0.00    +0.000 A 
ATOM     17  C   UNL     1       3.951  -6.099   7.767  0.00  0.00    +0.000 A 
ATOM     18  N   UNL     1       3.095  -7.091   7.460  0.00  0.00    +0.000 NA
ATOM     19  C   UNL     1       2.524  -7.043   6.232  0.00  0.00    +0.000 A 
ATOM     20  C   UNL     1       2.775  -6.048   5.304  0.00  0.00    +0.000 A 
ENDBRANCH  14  15
ENDBRANCH  13  14
ENDBRANCH   4  13
TORSDOF 5
