REMARK  Name = 
REMARK  5 active torsions:
REMARK  status: ('A' for Active; 'I' for Inactive)
REMARK    1  A    between atoms: C_2  and  C_19
REMARK    2  A    between atoms: N_3  and  C_4
REMARK    3  A    between atoms: C_4  and  C_5
REMARK    4  A    between atoms: C_9  and  C_10
REMARK    5  A    between atoms: C_10  and  N_11
REMARK                            x       y       z     vdW  Elec       q    Type
REMARK                         _______ _______ _______ _____ _____    ______ ____
ROOT
ATOM      1  C   UNL     1       2.212  -0.563  -2.503  0.00  0.00    +0.000 C 
ENDROOT
BRANCH   1   2
ATOM      2  C   UNL     1       3.184  -0.522  -3.657  0.00  0.00    +0.000 A 
ATOM      3  C   UNL     1       3.625  -1.713  -4.242  0.00  0.00    +0.000 A 
ATOM      4  C   UNL     1       4.482  -1.645  -5.325  0.00  0.00    +0.000 A 
ATOM      5  N   UNL     1       4.924  -0.487  -5.853  0.00  0.00    +0.000 NA
ATOM      6  C   UNL     1       4.491   0.673  -5.296  0.00  0.00    +0.000 A 
ATOM      7  C   UNL     1       3.602   0.692  -4.218  0.00  0.00    +0.000 A 
BRANCH   6   8
ATOM      8  C   UNL     1       5.064   1.963  -5.856  0.00  0.00    +0.000 C 
BRANCH   8   9
ATOM      9  N   UNL     1       4.284   2.472  -6.972  0.00  0.00    +0.000 N 
ATOM     10  C   UNL     1       4.818   3.635  -7.513  0.00  0.00    +0.000 A 
ATOM     11  N   UNL     1       6.143   3.842  -7.492  0.00  0.00    +0.000 NA
ATOM     12  C   UNL     1       6.600   4.996  -8.010  0.00  0.00    +0.000 A 
ATOM     13  C   UNL     1       5.781   5.958  -8.540  0.00  0.00    +0.000 A 
ATOM     14  C   UNL     1       4.441   5.659  -8.515  0.00  0.00    +0.000 A 
ATOM     15  N   UNL     1       3.937   4.516  -8.005  0.00  0.00    +0.000 NA
ATOM     16  H   UNL     1       3.306   2.647  -6.792  0.00  0.00    +0.000 HD
ENDBRANCH   8   9
ENDBRANCH   6   8
ENDBRANCH   1   2
BRANCH   1  19
ATOM     17  O   UNL     1      -0.146  -1.494  -1.112  0.00  0.00    +0.000 OA
ATOM     18  C   UNL     1      -0.161  -1.243  -2.311  0.00  0.00    +0.000 C 
ATOM     19  N   UNL     1       0.883  -0.709  -3.026  0.00  0.00    +0.000 N 
ATOM     20  H   UNL     1       0.804  -0.675  -4.032  0.00  0.00    +0.000 HD
BRANCH  18  21
ATOM     21  C   UNL     1      -1.225  -1.687  -3.207  0.00  0.00    +0.000 A 
ATOM     22  C   UNL     1      -1.799  -2.942  -3.131  0.00  0.00    +0.000 A 
ATOM     23  S   UNL     1      -2.532  -3.388  -4.621  0.00  0.00    +0.000 S 
ATOM     24  C   UNL     1      -2.204  -1.860  -5.306  0.00  0.00    +0.000 A 
ATOM     25  N   UNL     1      -2.406  -1.585  -6.622  0.00  0.00    +0.000 NA
ATOM     26  C   UNL     1      -2.146  -0.361  -6.953  0.00  0.00    +0.000 A 
ATOM     27  N   UNL     1      -1.760   0.628  -6.078  0.00  0.00    +0.000 N 
ATOM     28  C   UNL     1      -1.545   0.398  -4.741  0.00  0.00    +0.000 A 
ATOM     29  O   UNL     1      -1.247   1.296  -3.963  0.00  0.00    +0.000 OA
ATOM     30  C   UNL     1      -1.699  -0.991  -4.364  0.00  0.00    +0.000 A 
ATOM     31  H   UNL     1      -1.654   1.583  -6.388  0.00  0.00    +0.000 HD
ENDBRANCH  18  21
ENDBRANCH   1  19
TORSDOF 5
