REMARK  Name = 
REMARK  9 active torsions:
REMARK  status: ('A' for Active; 'I' for Inactive)
REMARK    1  A    between atoms: C_1  and  C_2
REMARK    2  A    between atoms: C_2  and  N_3
REMARK    3  A    between atoms: C_2  and  C_20
REMARK    4  A    between atoms: N_3  and  C_4
REMARK    5  A    between atoms: C_4  and  C_5
REMARK    6  A    between atoms: C_8  and  C_9
REMARK    7  A    between atoms: C_9  and  O_10
REMARK    8  A    between atoms: O_10  and  C_11
REMARK    9  A    between atoms: C_11  and  C_12
REMARK                            x       y       z     vdW  Elec       q    Type
REMARK                         _______ _______ _______ _____ _____    ______ ____
ROOT
ATOM      1  C   UNL     1       0.662   0.058  -1.425  0.00  0.00    +0.000 C 
ENDROOT
BRANCH   1   2
ATOM      2  C   UNL     1      -0.850   0.030  -1.408  0.00  0.00    +0.000 A 
ATOM      3  C   UNL     1      -1.525  -1.050  -0.818  0.00  0.00    +0.000 A 
ATOM      4  C   UNL     1      -2.916  -1.112  -0.835  0.00  0.00    +0.000 A 
ATOM      5  C   UNL     1      -3.661  -0.087  -1.431  0.00  0.00    +0.000 A 
ATOM      6  C   UNL     1      -2.991   0.999  -2.010  0.00  0.00    +0.000 A 
ATOM      7  C   UNL     1      -1.596   1.057  -1.998  0.00  0.00    +0.000 A 
BRANCH   5   8
ATOM      8  C   UNL     1      -5.167  -0.133  -1.400  0.00  0.00    +0.000 C 
BRANCH   8   9
ATOM      9  O   UNL     1      -5.652  -0.236  -0.063  0.00  0.00    +0.000 OA
BRANCH   9  10
ATOM     10  C   UNL     1      -5.402   0.950   0.701  0.00  0.00    +0.000 C 
BRANCH  10  11
ATOM     11  C   UNL     1      -5.999   0.801   2.078  0.00  0.00    +0.000 A 
ATOM     12  C   UNL     1      -5.652  -0.290   2.873  0.00  0.00    +0.000 A 
ATOM     13  C   UNL     1      -6.200  -0.396   4.147  0.00  0.00    +0.000 A 
ATOM     14  C   UNL     1      -7.075   0.587   4.593  0.00  0.00    +0.000 A 
ATOM     15  C   UNL     1      -7.361   1.642   3.744  0.00  0.00    +0.000 A 
ATOM     16  N   UNL     1      -6.842   1.777   2.506  0.00  0.00    +0.000 NA
ENDBRANCH  10  11
ENDBRANCH   9  10
ENDBRANCH   8   9
ENDBRANCH   5   8
ENDBRANCH   1   2
BRANCH   1  17
ATOM     17  N   UNL     1       1.158  -1.111  -2.144  0.00  0.00    +0.000 NA
ATOM     18  H   UNL     1       0.720  -1.117  -3.066  0.00  0.00    +0.000 HD
BRANCH  17  20
ATOM     19  C   UNL     1       3.385  -1.154  -1.000  0.00  0.00    +0.000 C 
ATOM     20  C   UNL     1       2.610  -1.145  -2.322  0.00  0.00    +0.000 C 
BRANCH  20  21
ATOM     21  C   UNL     1       2.887  -2.409  -3.116  0.00  0.00    +0.000 A 
ATOM     22  C   UNL     1       2.518  -3.683  -2.704  0.00  0.00    +0.000 A 
ATOM     23  S   UNL     1       2.940  -4.904  -3.820  0.00  0.00    +0.000 S 
ATOM     24  C   UNL     1       3.621  -3.768  -4.887  0.00  0.00    +0.000 A 
ATOM     25  N   UNL     1       4.170  -4.133  -6.071  0.00  0.00    +0.000 NA
ATOM     26  N   UNL     1       4.651  -3.249  -6.825  0.00  0.00    +0.000 NA
ATOM     27  N   UNL     1       4.614  -1.940  -6.431  0.00  0.00    +0.000 N 
ATOM     28  C   UNL     1       4.089  -1.460  -5.251  0.00  0.00    +0.000 A 
ATOM     29  O   UNL     1       4.101  -0.265  -4.973  0.00  0.00    +0.000 OA
ATOM     30  C   UNL     1       3.535  -2.485  -4.399  0.00  0.00    +0.000 A 
ATOM     31  H   UNL     1       5.017  -1.274  -7.076  0.00  0.00    +0.000 HD
ENDBRANCH  20  21
ENDBRANCH  17  20
ENDBRANCH   1  17
TORSDOF 8
