REMARK  Name = 
REMARK  3 active torsions:
REMARK  status: ('A' for Active; 'I' for Inactive)
REMARK    1  A    between atoms: N_6  and  C_7
REMARK    2  A    between atoms: C_7  and  C_8
REMARK    3  A    between atoms: C_12  and  C_13
REMARK                            x       y       z     vdW  Elec       q    Type
REMARK                         _______ _______ _______ _____ _____    ______ ____
ROOT
ATOM      1  C   UNL     1      -5.957   0.925  -0.016  0.00  0.00    +0.000 A 
ATOM      2  C   UNL     1      -6.412  -0.390  -0.010  0.00  0.00    +0.000 A 
ATOM      3  C   UNL     1      -7.780  -0.624   0.016  0.00  0.00    +0.000 A 
ATOM      4  C   UNL     1      -8.654   0.456   0.039  0.00  0.00    +0.000 A 
ATOM      5  C   UNL     1      -8.144   1.755   0.033  0.00  0.00    +0.000 A 
ATOM      6  N   UNL     1      -6.806   1.991  -0.012  0.00  0.00    +0.000 NA
ENDROOT
BRANCH   5   7
ATOM      7  C   UNL     1      -9.021   2.944   0.081  0.00  0.00    +0.000 A 
ATOM      8  C   UNL     1     -10.252   2.932   0.758  0.00  0.00    +0.000 A 
ATOM      9  C   UNL     1     -11.054   4.064   0.738  0.00  0.00    +0.000 A 
ATOM     10  N   UNL     1     -10.724   5.205   0.106  0.00  0.00    +0.000 NA
ATOM     11  C   UNL     1      -9.531   5.219  -0.522  0.00  0.00    +0.000 A 
ATOM     12  C   UNL     1      -8.663   4.138  -0.558  0.00  0.00    +0.000 A 
ENDBRANCH   5   7
BRANCH   1  13
ATOM     13  C   UNL     1      -4.467   1.204   0.024  0.00  0.00    +0.000 C 
BRANCH  13  19
ATOM     14 CL   UNL     1      -1.400  -3.116  -4.105  0.00  0.00    +0.000 Cl
ATOM     15  C   UNL     1      -2.167  -1.833  -3.278  0.00  0.00    +0.000 A 
ATOM     16  C   UNL     1      -2.719  -1.984  -2.031  0.00  0.00    +0.000 A 
ATOM     17  N   UNL     1      -3.301  -0.976  -1.339  0.00  0.00    +0.000 NA
ATOM     18  C   UNL     1      -3.353   0.224  -1.940  0.00  0.00    +0.000 A 
ATOM     19  N   UNL     1      -3.865   1.312  -1.285  0.00  0.00    +0.000 N 
ATOM     20  N   UNL     1      -2.878   0.457  -3.171  0.00  0.00    +0.000 NA
ATOM     21  C   UNL     1      -2.274  -0.572  -3.807  0.00  0.00    +0.000 A 
ATOM     22  H   UNL     1      -4.228   2.010  -1.917  0.00  0.00    +0.000 HD
ENDBRANCH  13  19
ENDBRANCH   1  13
TORSDOF 3
