REMARK  Name = 
REMARK  4 active torsions:
REMARK  status: ('A' for Active; 'I' for Inactive)
REMARK    1  A    between atoms: C_5  and  N_6
REMARK    2  A    between atoms: N_6  and  C_7
REMARK    3  A    between atoms: C_7  and  C_8
REMARK    4  A    between atoms: C_12  and  C_13
REMARK                            x       y       z     vdW  Elec       q    Type
REMARK                         _______ _______ _______ _____ _____    ______ ____
ROOT
ATOM      1  C   UNL     1      -6.002  -0.588   0.065  0.00  0.00    +0.000 A 
ATOM      2  C   UNL     1      -6.464   0.729   0.082  0.00  0.00    +0.000 A 
ATOM      3  C   UNL     1      -7.831   0.948   0.082  0.00  0.00    +0.000 A 
ATOM      4  N   UNL     1      -8.754  -0.038   0.069  0.00  0.00    +0.000 NA
ATOM      5  C   UNL     1      -8.308  -1.317   0.064  0.00  0.00    +0.000 A 
ATOM      6  C   UNL     1      -6.946  -1.623   0.076  0.00  0.00    +0.000 A 
ENDROOT
BRANCH   5   7
ATOM      7  C   UNL     1      -9.371  -2.396   0.012  0.00  0.00    +0.000 C 
ATOM      8  C   UNL     1      -9.330  -3.326   1.232  0.00  0.00    +0.000 C 
ATOM      9  C   UNL     1     -10.345  -4.450   1.080  0.00  0.00    +0.000 C 
ATOM     10  O   UNL     1     -10.130  -5.161  -0.139  0.00  0.00    +0.000 OA
ATOM     11  C   UNL     1     -10.316  -4.330  -1.284  0.00  0.00    +0.000 C 
ATOM     12  C   UNL     1      -9.297  -3.200  -1.294  0.00  0.00    +0.000 C 
ENDBRANCH   5   7
BRANCH   1  13
ATOM     13  C   UNL     1      -4.523  -0.898   0.049  0.00  0.00    +0.000 C 
BRANCH  13  14
ATOM     14  N   UNL     1      -4.049  -1.031   1.419  0.00  0.00    +0.000 N 
ATOM     15  H   UNL     1      -4.261  -0.208   1.976  0.00  0.00    +0.000 HD
BRANCH  14  20
ATOM     16 CL   UNL     1       1.508  -2.558   2.228  0.00  0.00    +0.000 Cl
ATOM     17  C   UNL     1      -0.116  -2.091   1.958  0.00  0.00    +0.000 A 
ATOM     18  C   UNL     1      -0.634  -1.945   0.684  0.00  0.00    +0.000 A 
ATOM     19  N   UNL     1      -1.927  -1.581   0.454  0.00  0.00    +0.000 NA
ATOM     20  C   UNL     1      -2.691  -1.363   1.547  0.00  0.00    +0.000 A 
ATOM     21  C   UNL     1      -2.140  -1.527   2.825  0.00  0.00    +0.000 A 
ATOM     22  N   UNL     1      -0.851  -1.882   3.065  0.00  0.00    +0.000 NA
ENDBRANCH  14  20
ENDBRANCH  13  14
ENDBRANCH   1  13
TORSDOF 4
