REMARK  Name = 
REMARK  5 active torsions:
REMARK  status: ('A' for Active; 'I' for Inactive)
REMARK    1  A    between atoms: C_2  and  C_3
REMARK    2  A    between atoms: C_7  and  N_8
REMARK    3  A    between atoms: N_8  and  C_9
REMARK    4  A    between atoms: C_9  and  C_10
REMARK    5  A    between atoms: C_14  and  C_15
REMARK                            x       y       z     vdW  Elec       q    Type
REMARK                         _______ _______ _______ _____ _____    ______ ____
ROOT
ATOM      1  C   UNL     1      -1.604   3.772   0.094  0.00  0.00    +0.000 C 
ATOM      2  C   UNL     1      -1.174   2.567   0.934  0.00  0.00    +0.000 C 
ATOM      3  C   UNL     1      -1.320   2.424  -0.541  0.00  0.00    +0.000 C 
ENDROOT
BRANCH   1   4
ATOM      4  C   UNL     1      -3.067   4.190   0.240  0.00  0.00    +0.000 A 
ATOM      5  C   UNL     1      -3.845   4.556  -0.865  0.00  0.00    +0.000 A 
ATOM      6  C   UNL     1      -5.221   4.736  -0.742  0.00  0.00    +0.000 A 
ATOM      7  C   UNL     1      -5.845   4.535   0.492  0.00  0.00    +0.000 A 
ATOM      8  C   UNL     1      -5.106   4.204   1.637  0.00  0.00    +0.000 A 
ATOM      9  C   UNL     1      -3.714   4.104   1.491  0.00  0.00    +0.000 A 
BRANCH   8  10
ATOM     10  C   UNL     1      -5.758   3.857   2.919  0.00  0.00    +0.000 A 
ATOM     11  C   UNL     1      -5.190   4.189   4.165  0.00  0.00    +0.000 A 
ATOM     12  C   UNL     1      -5.794   3.807   5.370  0.00  0.00    +0.000 A 
ATOM     13  C   UNL     1      -6.986   3.091   5.353  0.00  0.00    +0.000 A 
ATOM     14  C   UNL     1      -7.553   2.750   4.134  0.00  0.00    +0.000 A 
ATOM     15  F   UNL     1      -8.693   2.048   4.109  0.00  0.00    +0.000 F 
ATOM     16  C   UNL     1      -6.952   3.115   2.934  0.00  0.00    +0.000 A 
ENDBRANCH   8  10
ENDBRANCH   1   4
BRANCH   1  17
ATOM     17  N   UNL     1      -0.651   4.905   0.033  0.00  0.00    +0.000 N 
ATOM     18  H   UNL     1      -0.804   5.574   0.786  0.00  0.00    +0.000 HD
BRANCH  17  23
ATOM     19  C   UNL     1       0.273   5.626  -3.525  0.00  0.00    +0.000 A 
ATOM     20  C   UNL     1       0.589   6.964  -3.384  0.00  0.00    +0.000 A 
ATOM     21  N   UNL     1       0.495   7.633  -2.214  0.00  0.00    +0.000 NA
ATOM     22  C   UNL     1       0.068   6.916  -1.144  0.00  0.00    +0.000 A 
ATOM     23  C   UNL     1      -0.303   5.565  -1.168  0.00  0.00    +0.000 A 
ATOM     24  C   UNL     1      -0.180   4.923  -2.400  0.00  0.00    +0.000 A 
BRANCH  19  26
ATOM     25  N   UNL     1       0.546   4.445  -5.817  0.00  0.00    +0.000 NA
ATOM     26  C   UNL     1       0.427   4.977  -4.793  0.00  0.00    +0.000 C 
ENDBRANCH  19  26
ENDBRANCH  17  23
ENDBRANCH   1  17
TORSDOF 5
