REMARK  Name = 
REMARK  8 active torsions:
REMARK  status: ('A' for Active; 'I' for Inactive)
REMARK    1  A    between atoms: C_1  and  C_2
REMARK    2  A    between atoms: C_2  and  C_3
REMARK    3  A    between atoms: C_2  and  N_4
REMARK    4  A    between atoms: C_5  and  C_7
REMARK    5  A    between atoms: C_10  and  O_11
REMARK    6  A    between atoms: O_11  and  C_12
REMARK    7  A    between atoms: C_12  and  C_13
REMARK    8  A    between atoms: C_13  and  C_14
REMARK                            x       y       z     vdW  Elec       q    Type
REMARK                         _______ _______ _______ _____ _____    ______ ____
ROOT
ATOM      1  C   UNL     1       4.939  -1.233  -2.871  0.00  0.00    +0.000 A 
ATOM      2  C   UNL     1       4.410  -0.869  -4.112  0.00  0.00    +0.000 A 
ATOM      3  C   UNL     1       4.860  -1.519  -5.265  0.00  0.00    +0.000 A 
ATOM      4  C   UNL     1       5.808  -2.525  -5.128  0.00  0.00    +0.000 A 
ATOM      5  N   UNL     1       6.355  -2.878  -3.947  0.00  0.00    +0.000 NA
ATOM      6  C   UNL     1       5.919  -2.215  -2.848  0.00  0.00    +0.000 A 
ENDROOT
BRANCH   1   8
ATOM      7  N   UNL     1       3.249  -0.108  -1.530  0.00  0.00    +0.000 N 
ATOM      8  C   UNL     1       4.533  -0.611  -1.590  0.00  0.00    +0.000 C 
ATOM      9  O   UNL     1       5.317  -0.589  -0.649  0.00  0.00    +0.000 OA
ATOM     10  H   UNL     1       2.589  -0.371  -2.249  0.00  0.00    +0.000 HD
BRANCH   7  12
ATOM     11  C   UNL     1       1.638   1.496  -0.647  0.00  0.00    +0.000 C 
ATOM     12  C   UNL     1       2.712   0.470  -0.304  0.00  0.00    +0.000 C 
ATOM     13  C   UNL     1       2.153  -0.613   0.616  0.00  0.00    +0.000 C 
ENDBRANCH   7  12
ENDBRANCH   1   8
BRANCH   4  14
ATOM     14  O   UNL     1       6.230  -3.155  -6.281  0.00  0.00    +0.000 OA
BRANCH  14  15
ATOM     15  C   UNL     1       6.757  -4.461  -6.014  0.00  0.00    +0.000 C 
BRANCH  15  16
ATOM     16  C   UNL     1       7.282  -5.061  -7.314  0.00  0.00    +0.000 C 
BRANCH  16  17
ATOM     17  C   UNL     1       7.769  -6.466  -7.105  0.00  0.00    +0.000 A 
ATOM     18  C   UNL     1       9.078  -6.735  -6.724  0.00  0.00    +0.000 A 
ATOM     19  C   UNL     1       9.457  -8.055  -6.524  0.00  0.00    +0.000 A 
ATOM     20  C   UNL     1       8.507  -9.040  -6.708  0.00  0.00    +0.000 A 
ATOM     21  N   UNL     1       7.240  -8.761  -7.067  0.00  0.00    +0.000 NA
ATOM     22  N   UNL     1       6.868  -7.461  -7.264  0.00  0.00    +0.000 NA
ENDBRANCH  16  17
ENDBRANCH  15  16
ENDBRANCH  14  15
ENDBRANCH   4  14
TORSDOF 6
