REMARK  Name = 
REMARK  9 active torsions:
REMARK  status: ('A' for Active; 'I' for Inactive)
REMARK    1  A    between atoms: C_1  and  O_2
REMARK    2  A    between atoms: O_2  and  C_3
REMARK    3  A    between atoms: C_10  and  C_11
REMARK    4  A    between atoms: N_13  and  C_14
REMARK    5  A    between atoms: C_14  and  C_15
REMARK    6  A    between atoms: C_18  and  N_19
REMARK    7  A    between atoms: N_19  and  C_20
REMARK    8  A    between atoms: C_20  and  C_21
REMARK    9  A    between atoms: C_21  and  N_22
REMARK                            x       y       z     vdW  Elec       q    Type
REMARK                         _______ _______ _______ _____ _____    ______ ____
ROOT
ATOM      1  C   UNL     1       2.827   2.739   2.169  0.00  0.00    +0.000 C 
ENDROOT
BRANCH   1   2
ATOM      2  C   UNL     1       1.644   3.263   1.398  0.00  0.00    +0.000 A 
ATOM      3  C   UNL     1       0.591   2.410   1.056  0.00  0.00    +0.000 A 
ATOM      4  C   UNL     1      -0.468   2.863   0.257  0.00  0.00    +0.000 A 
ATOM      5  C   UNL     1      -0.526   4.181  -0.213  0.00  0.00    +0.000 A 
ATOM      6  C   UNL     1       0.538   5.027   0.135  0.00  0.00    +0.000 A 
ATOM      7  C   UNL     1       1.602   4.582   0.937  0.00  0.00    +0.000 A 
BRANCH   5   8
ATOM      8  N   UNL     1      -1.490   4.638  -1.132  0.00  0.00    +0.000 N 
ATOM      9  H   UNL     1      -1.593   5.650  -1.084  0.00  0.00    +0.000 HD
BRANCH   8  10
ATOM     10  C   UNL     1      -2.780   3.938  -1.185  0.00  0.00    +0.000 C 
BRANCH  10  11
ATOM     11  C   UNL     1      -3.701   4.478  -2.308  0.00  0.00    +0.000 C 
BRANCH  11  12
ATOM     12  N   UNL     1      -5.044   3.858  -2.299  0.00  0.00    +0.000 NA
ATOM     13  C   UNL     1      -5.048   2.410  -2.607  0.00  0.00    +0.000 C 
ATOM     14  C   UNL     1      -4.883   2.072  -4.099  0.00  0.00    +0.000 C 
ATOM     15  O   UNL     1      -5.885   2.721  -4.889  0.00  0.00    +0.000 OA
ATOM     16  C   UNL     1      -5.822   4.142  -4.709  0.00  0.00    +0.000 C 
ATOM     17  C   UNL     1      -5.986   4.530  -3.226  0.00  0.00    +0.000 C 
ENDBRANCH  11  12
ENDBRANCH  10  11
ENDBRANCH   8  10
ENDBRANCH   5   8
ENDBRANCH   1   2
BRANCH   1  20
ATOM     18  C   UNL     1       4.970   1.608   1.767  0.00  0.00    +0.000 C 
ATOM     19  O   UNL     1       5.188   1.566   2.977  0.00  0.00    +0.000 OA
ATOM     20  N   UNL     1       3.827   2.186   1.283  0.00  0.00    +0.000 N 
ATOM     21  H   UNL     1       3.641   2.202   0.288  0.00  0.00    +0.000 HD
BRANCH  18  29
ATOM     22  C   UNL     1       5.038   1.352  -1.673  0.00  0.00    +0.000 A 
ATOM     23  N   UNL     1       5.295   1.073  -2.970  0.00  0.00    +0.000 NA
ATOM     24  C   UNL     1       6.415   0.407  -3.259  0.00  0.00    +0.000 A 
ATOM     25  N   UNL     1       7.337  -0.019  -2.401  0.00  0.00    +0.000 NA
ATOM     26  C   UNL     1       7.037   0.267  -1.123  0.00  0.00    +0.000 A 
ATOM     27  S   UNL     1       8.108  -0.195   0.110  0.00  0.00    +0.000 S 
ATOM     28  C   UNL     1       7.091   0.458   1.302  0.00  0.00    +0.000 A 
ATOM     29  C   UNL     1       5.928   1.034   0.804  0.00  0.00    +0.000 A 
ATOM     30  C   UNL     1       5.908   0.935  -0.653  0.00  0.00    +0.000 A 
BRANCH  22  32
ATOM     31  C   UNL     1       3.431   2.854  -2.459  0.00  0.00    +0.000 C 
ATOM     32  O   UNL     1       3.882   2.042  -1.375  0.00  0.00    +0.000 OA
ENDBRANCH  22  32
ENDBRANCH  18  29
ENDBRANCH   1  20
TORSDOF 8
