REMARK  Name = 
REMARK  6 active torsions:
REMARK  status: ('A' for Active; 'I' for Inactive)
REMARK    1  A    between atoms: N_1  and  C_2
REMARK    2  A    between atoms: C_2  and  C_3
REMARK    3  A    between atoms: C_6  and  O_7
REMARK    4  A    between atoms: O_7  and  C_8
REMARK    5  A    between atoms: C_8  and  C_9
REMARK    6  A    between atoms: C_12  and  C_13
REMARK                            x       y       z     vdW  Elec       q    Type
REMARK                         _______ _______ _______ _____ _____    ______ ____
ROOT
ATOM      1  O   UNL     1       4.071   4.959   2.148  0.00  0.00    +0.000 OA
ENDROOT
BRANCH   1   5
ATOM      2  C   UNL     1       2.696   1.675   0.050  0.00  0.00    +0.000 A 
ATOM      3  C   UNL     1       3.644   1.509   1.064  0.00  0.00    +0.000 A 
ATOM      4  C   UNL     1       4.100   2.619   1.778  0.00  0.00    +0.000 A 
ATOM      5  C   UNL     1       3.592   3.864   1.451  0.00  0.00    +0.000 A 
ATOM      6  N   UNL     1       2.676   4.056   0.478  0.00  0.00    +0.000 NA
ATOM      7  C   UNL     1       2.248   2.967  -0.192  0.00  0.00    +0.000 A 
BRANCH   2   8
ATOM      8  C   UNL     1       2.193   0.528  -0.779  0.00  0.00    +0.000 C 
BRANCH   8   9
ATOM      9  N   UNL     1       1.522  -0.478   0.032  0.00  0.00    +0.000 NA
ATOM     10  H   UNL     1       1.134  -1.194  -0.580  0.00  0.00    +0.000 HD
ATOM     11  H   UNL     1       0.728  -0.050   0.507  0.00  0.00    +0.000 HD
ENDBRANCH   8   9
ENDBRANCH   2   8
ENDBRANCH   1   5
BRANCH   1  12
ATOM     12  C   UNL     1       3.441   6.169   1.704  0.00  0.00    +0.000 C 
BRANCH  12  13
ATOM     13  C   UNL     1       3.987   7.382   2.427  0.00  0.00    +0.000 A 
ATOM     14  C   UNL     1       5.339   7.703   2.339  0.00  0.00    +0.000 A 
ATOM     15  C   UNL     1       5.795   8.875   2.941  0.00  0.00    +0.000 A 
ATOM     16  C   UNL     1       4.896   9.704   3.618  0.00  0.00    +0.000 A 
ATOM     17  C   UNL     1       3.568   9.308   3.656  0.00  0.00    +0.000 A 
ATOM     18  N   UNL     1       3.099   8.179   3.078  0.00  0.00    +0.000 NA
BRANCH  16  19
ATOM     19  C   UNL     1       5.310  10.977   4.284  0.00  0.00    +0.000 C 
ATOM     20  F   UNL     1       6.641  11.244   4.166  0.00  0.00    +0.000 F 
ATOM     21  F   UNL     1       4.669  12.067   3.778  0.00  0.00    +0.000 F 
ATOM     22  F   UNL     1       5.049  10.979   5.620  0.00  0.00    +0.000 F 
ENDBRANCH  16  19
ENDBRANCH  12  13
ENDBRANCH   1  12
TORSDOF 6
