REMARK  Name = 
REMARK  5 active torsions:
REMARK  status: ('A' for Active; 'I' for Inactive)
REMARK    1  A    between atoms: C_2  and  C_4
REMARK    2  A    between atoms: C_7  and  O_8
REMARK    3  A    between atoms: O_8  and  C_9
REMARK    4  A    between atoms: C_9  and  C_10
REMARK    5  A    between atoms: C_14  and  C_15
REMARK                            x       y       z     vdW  Elec       q    Type
REMARK                         _______ _______ _______ _____ _____    ______ ____
ROOT
ATOM      1  C   UNL     1       5.159   4.699  -3.403  0.00  0.00    +0.000 C 
ATOM      2  C   UNL     1       4.697   5.974  -2.707  0.00  0.00    +0.000 C 
ATOM      3  C   UNL     1       4.399   5.792  -4.152  0.00  0.00    +0.000 C 
ENDROOT
BRANCH   1   4
ATOM      4  C   UNL     1       6.650   4.558  -3.621  0.00  0.00    +0.000 A 
ATOM      5  C   UNL     1       7.218   4.425  -4.894  0.00  0.00    +0.000 A 
ATOM      6  C   UNL     1       8.600   4.474  -5.067  0.00  0.00    +0.000 A 
ATOM      7  C   UNL     1       9.437   4.668  -3.965  0.00  0.00    +0.000 A 
ATOM      8  C   UNL     1       8.913   4.782  -2.668  0.00  0.00    +0.000 A 
ATOM      9  C   UNL     1       7.522   4.668  -2.523  0.00  0.00    +0.000 A 
BRANCH   8  10
ATOM     10  C   UNL     1       9.747   5.144  -1.503  0.00  0.00    +0.000 A 
ATOM     11  C   UNL     1      10.740   6.133  -1.616  0.00  0.00    +0.000 A 
ATOM     12  C   UNL     1      11.457   6.575  -0.501  0.00  0.00    +0.000 A 
ATOM     13  C   UNL     1      11.190   6.039   0.755  0.00  0.00    +0.000 A 
ATOM     14  C   UNL     1      10.222   5.050   0.893  0.00  0.00    +0.000 A 
ATOM     15  C   UNL     1       9.514   4.601  -0.227  0.00  0.00    +0.000 A 
ENDBRANCH   8  10
ENDBRANCH   1   4
BRANCH   1  16
ATOM     16  O   UNL     1       4.411   3.464  -3.369  0.00  0.00    +0.000 OA
BRANCH  16  20
ATOM     17  C   UNL     1       2.575   2.126  -0.026  0.00  0.00    +0.000 A 
ATOM     18  C   UNL     1       3.324   3.296   0.022  0.00  0.00    +0.000 A 
ATOM     19  N   UNL     1       4.039   3.742  -1.039  0.00  0.00    +0.000 NA
ATOM     20  C   UNL     1       3.944   2.995  -2.160  0.00  0.00    +0.000 A 
ATOM     21  C   UNL     1       3.237   1.796  -2.192  0.00  0.00    +0.000 A 
ATOM     22  N   UNL     1       2.539   1.323  -1.126  0.00  0.00    +0.000 NA
BRANCH  17  24
ATOM     23  N   UNL     1       1.016   0.588   0.998  0.00  0.00    +0.000 N 
ATOM     24  C   UNL     1       1.697   1.770   1.118  0.00  0.00    +0.000 C 
ATOM     25  O   UNL     1       1.563   2.500   2.092  0.00  0.00    +0.000 OA
ATOM     26  H   UNL     1       0.332   0.339   1.699  0.00  0.00    +0.000 HD
ATOM     27  H   UNL     1       1.102   0.041   0.149  0.00  0.00    +0.000 HD
ENDBRANCH  17  24
ENDBRANCH  16  20
ENDBRANCH   1  16
TORSDOF 5
