REMARK  Name = 
REMARK  5 active torsions:
REMARK  status: ('A' for Active; 'I' for Inactive)
REMARK    1  A    between atoms: N_1  and  C_2
REMARK    2  A    between atoms: C_2  and  C_3
REMARK    3  A    between atoms: C_6  and  S_7
REMARK    4  A    between atoms: S_7  and  C_8
REMARK    5  A    between atoms: C_8  and  C_9
REMARK                            x       y       z     vdW  Elec       q    Type
REMARK                         _______ _______ _______ _____ _____    ______ ____
ROOT
ATOM      1  C   UNL     1       2.382   1.993  -1.679  0.00  0.00    +0.000 A 
ATOM      2  C   UNL     1       3.748   2.088  -1.433  0.00  0.00    +0.000 A 
ATOM      3  N   UNL     1       4.371   3.262  -1.144  0.00  0.00    +0.000 NA
ATOM      4  C   UNL     1       3.577   4.355  -1.079  0.00  0.00    +0.000 A 
ATOM      5  C   UNL     1       2.207   4.252  -1.296  0.00  0.00    +0.000 A 
ATOM      6  N   UNL     1       1.579   3.084  -1.608  0.00  0.00    +0.000 NA
ENDROOT
BRANCH   1   7
ATOM      7  C   UNL     1       1.745   0.662  -2.006  0.00  0.00    +0.000 C 
BRANCH   7   8
ATOM      8  N   UNL     1       1.298  -0.049  -0.807  0.00  0.00    +0.000 NA
ATOM      9  H   UNL     1       0.714  -0.835  -1.090  0.00  0.00    +0.000 HD
ATOM     10  H   UNL     1       0.679   0.578  -0.288  0.00  0.00    +0.000 HD
ENDBRANCH   7   8
ENDBRANCH   1   7
BRANCH   4  11
ATOM     11  S   UNL     1       4.311   5.941  -0.696  0.00  0.00    +0.000 S 
BRANCH  11  12
ATOM     12  C   UNL     1       6.043   5.606  -1.172  0.00  0.00    +0.000 C 
BRANCH  12  13
ATOM     13  C   UNL     1       6.973   6.839  -1.166  0.00  0.00    +0.000 C 
ATOM     14  C   UNL     1       8.338   6.445  -1.769  0.00  0.00    +0.000 C 
ATOM     15  C   UNL     1       9.178   5.642  -0.777  0.00  0.00    +0.000 C 
ATOM     16  C   UNL     1       9.349   6.420   0.522  0.00  0.00    +0.000 C 
ATOM     17  N   UNL     1       8.050   6.731   1.118  0.00  0.00    +0.000 NA
ATOM     18  C   UNL     1       7.195   7.501   0.209  0.00  0.00    +0.000 C 
ATOM     19  H   UNL     1       8.201   7.276   1.968  0.00  0.00    +0.000 HD
ENDBRANCH  12  13
ENDBRANCH  11  12
ENDBRANCH   4  11
TORSDOF 5
