REMARK  Name = 
REMARK  5 active torsions:
REMARK  status: ('A' for Active; 'I' for Inactive)
REMARK    1  A    between atoms: C_2  and  C_3
REMARK    2  A    between atoms: C_6  and  N_7
REMARK    3  A    between atoms: N_7  and  C_8
REMARK    4  A    between atoms: C_8  and  C_9
REMARK    5  A    between atoms: C_11  and  C_12
REMARK                            x       y       z     vdW  Elec       q    Type
REMARK                         _______ _______ _______ _____ _____    ______ ____
ROOT
ATOM      1  C   UNL     1       8.836  -0.913  -0.146  0.00  0.00    +0.000 C 
ATOM      2  C   UNL     1       9.017  -2.041  -1.150  0.00  0.00    +0.000 C 
ATOM      3  C   UNL     1       8.713  -2.378   0.270  0.00  0.00    +0.000 C 
ENDROOT
BRANCH   1   4
ATOM      4  C   UNL     1      10.059  -0.221   0.475  0.00  0.00    +0.000 A 
ATOM      5  C   UNL     1      10.096  -0.018   1.864  0.00  0.00    +0.000 A 
ATOM      6  C   UNL     1      11.277   0.375   2.508  0.00  0.00    +0.000 A 
ATOM      7  C   UNL     1      12.381   0.626   1.690  0.00  0.00    +0.000 A 
ATOM      8  C   UNL     1      12.262   0.466   0.319  0.00  0.00    +0.000 A 
ATOM      9  N   UNL     1      11.139   0.047  -0.298  0.00  0.00    +0.000 NA
BRANCH   6  10
ATOM     10  C   UNL     1      11.369   0.442   3.982  0.00  0.00    +0.000 A 
ATOM     11  C   UNL     1      12.516   0.014   4.671  0.00  0.00    +0.000 A 
ATOM     12  C   UNL     1      12.577   0.066   6.062  0.00  0.00    +0.000 A 
ATOM     13  C   UNL     1      11.476   0.542   6.750  0.00  0.00    +0.000 A 
ATOM     14  N   UNL     1      10.344   0.956   6.146  0.00  0.00    +0.000 NA
ATOM     15  C   UNL     1      10.322   0.898   4.788  0.00  0.00    +0.000 A 
ENDBRANCH   6  10
ENDBRANCH   1   4
BRANCH   1  16
ATOM     16  N   UNL     1       7.615  -0.084  -0.224  0.00  0.00    +0.000 N 
ATOM     17  H   UNL     1       6.829  -0.332   0.369  0.00  0.00    +0.000 HD
BRANCH  16  21
ATOM     18  C   UNL     1       6.680   2.511  -3.308  0.00  0.00    +0.000 A 
ATOM     19  N   UNL     1       7.737   1.702  -3.502  0.00  0.00    +0.000 NA
ATOM     20  C   UNL     1       8.030   0.857  -2.482  0.00  0.00    +0.000 A 
ATOM     21  C   UNL     1       7.300   0.749  -1.309  0.00  0.00    +0.000 A 
ATOM     22  C   UNL     1       6.257   1.660  -1.235  0.00  0.00    +0.000 A 
ATOM     23  N   UNL     1       5.912   2.537  -2.205  0.00  0.00    +0.000 NA
BRANCH  18  25
ATOM     24  N   UNL     1       6.073   4.174  -5.227  0.00  0.00    +0.000 NA
ATOM     25  C   UNL     1       6.341   3.432  -4.367  0.00  0.00    +0.000 C 
ENDBRANCH  18  25
ENDBRANCH  16  21
ENDBRANCH   1  16
TORSDOF 5
