REMARK  Name = 
REMARK  5 active torsions:
REMARK  status: ('A' for Active; 'I' for Inactive)
REMARK    1  A    between atoms: C_2  and  C_4
REMARK    2  A    between atoms: C_7  and  O_8
REMARK    3  A    between atoms: O_8  and  C_9
REMARK    4  A    between atoms: C_9  and  C_10
REMARK    5  A    between atoms: C_15  and  C_16
REMARK                            x       y       z     vdW  Elec       q    Type
REMARK                         _______ _______ _______ _____ _____    ______ ____
ROOT
ATOM      1  C   UNL     1       6.143  -6.439  -2.465  0.00  0.00    +0.000 A 
ATOM      2  C   UNL     1       7.513  -6.190  -2.577  0.00  0.00    +0.000 A 
ATOM      3  C   UNL     1       8.401  -7.254  -2.662  0.00  0.00    +0.000 A 
ATOM      4  F   UNL     1       9.713  -7.008  -2.770  0.00  0.00    +0.000 F 
ATOM      5  C   UNL     1       7.955  -8.573  -2.637  0.00  0.00    +0.000 A 
ATOM      6  C   UNL     1       6.588  -8.867  -2.504  0.00  0.00    +0.000 A 
ATOM      7  C   UNL     1       5.703  -7.774  -2.401  0.00  0.00    +0.000 A 
ENDROOT
BRANCH   6   8
ATOM      8  C   UNL     1       6.089 -10.262  -2.478  0.00  0.00    +0.000 A 
ATOM      9  C   UNL     1       6.841 -11.308  -1.925  0.00  0.00    +0.000 A 
ATOM     10  C   UNL     1       6.325 -12.597  -1.925  0.00  0.00    +0.000 A 
ATOM     11  N   UNL     1       5.119 -12.924  -2.425  0.00  0.00    +0.000 NA
ATOM     12  C   UNL     1       4.404 -11.914  -2.953  0.00  0.00    +0.000 A 
ATOM     13  F   UNL     1       3.194 -12.205  -3.452  0.00  0.00    +0.000 F 
ATOM     14  C   UNL     1       4.836 -10.600  -3.007  0.00  0.00    +0.000 A 
ENDBRANCH   6   8
BRANCH   1  15
ATOM     15  C   UNL     1       5.175  -5.281  -2.341  0.00  0.00    +0.000 C 
BRANCH  15  16
ATOM     16  O   UNL     1       3.902  -5.633  -2.894  0.00  0.00    +0.000 OA
BRANCH  16  20
ATOM     17  C   UNL     1       1.130  -2.596  -2.688  0.00  0.00    +0.000 A 
ATOM     18  C   UNL     1       0.768  -3.826  -3.241  0.00  0.00    +0.000 A 
ATOM     19  C   UNL     1       1.716  -4.849  -3.303  0.00  0.00    +0.000 A 
ATOM     20  C   UNL     1       2.989  -4.603  -2.808  0.00  0.00    +0.000 A 
ATOM     21  N   UNL     1       3.368  -3.424  -2.270  0.00  0.00    +0.000 NA
ATOM     22  C   UNL     1       2.433  -2.444  -2.232  0.00  0.00    +0.000 A 
BRANCH  17  24
ATOM     23  N   UNL     1      -1.125  -1.695  -2.534  0.00  0.00    +0.000 N 
ATOM     24  C   UNL     1       0.216  -1.439  -2.590  0.00  0.00    +0.000 C 
ATOM     25  O   UNL     1       0.644  -0.295  -2.524  0.00  0.00    +0.000 OA
ATOM     26  H   UNL     1      -1.723  -0.896  -2.359  0.00  0.00    +0.000 HD
ATOM     27  H   UNL     1      -1.505  -2.612  -2.350  0.00  0.00    +0.000 HD
ENDBRANCH  17  24
ENDBRANCH  16  20
ENDBRANCH  15  16
ENDBRANCH   1  15
TORSDOF 5
