REMARK  Name = 
REMARK  7 active torsions:
REMARK  status: ('A' for Active; 'I' for Inactive)
REMARK    1  A    between atoms: C_1  and  C_2
REMARK    2  A    between atoms: C_2  and  C_3
REMARK    3  A    between atoms: C_2  and  N_4
REMARK    4  A    between atoms: C_2  and  C_5
REMARK    5  A    between atoms: C_5  and  C_6
REMARK    6  A    between atoms: C_9  and  C_10
REMARK    7  A    between atoms: C_10  and  N_11
REMARK                            x       y       z     vdW  Elec       q    Type
REMARK                         _______ _______ _______ _____ _____    ______ ____
ROOT
ATOM      1  C   UNL     1       4.628  -1.277  -0.471  0.00  0.00    +0.000 A 
ATOM      2  C   UNL     1       5.408  -0.136  -0.311  0.00  0.00    +0.000 A 
ATOM      3  C   UNL     1       6.791  -0.272  -0.230  0.00  0.00    +0.000 A 
ATOM      4  C   UNL     1       7.374  -1.540  -0.317  0.00  0.00    +0.000 A 
ATOM      5  C   UNL     1       6.517  -2.617  -0.505  0.00  0.00    +0.000 A 
ATOM      6  N   UNL     1       5.171  -2.515  -0.569  0.00  0.00    +0.000 NA
ENDROOT
BRANCH   1   7
ATOM      7  C   UNL     1       3.124  -1.178  -0.548  0.00  0.00    +0.000 C 
BRANCH   7   9
ATOM      8  C   UNL     1       2.722  -0.211   1.787  0.00  0.00    +0.000 C 
ATOM      9  C   UNL     1       2.376  -1.335   0.805  0.00  0.00    +0.000 C 
ATOM     10  C   UNL     1       2.648  -2.700   1.456  0.00  0.00    +0.000 C 
BRANCH   9  11
ATOM     11  N   UNL     1       0.923  -1.237   0.533  0.00  0.00    +0.000 NA
ATOM     12  H   UNL     1       0.401  -1.488   1.373  0.00  0.00    +0.000 HD
ATOM     13  H   UNL     1       0.658  -1.927  -0.170  0.00  0.00    +0.000 HD
ENDBRANCH   9  11
ENDBRANCH   7   9
ENDBRANCH   1   7
BRANCH   4  14
ATOM     14  C   UNL     1       8.871  -1.719  -0.325  0.00  0.00    +0.000 C 
BRANCH  14  15
ATOM     15  N   UNL     1       9.393  -1.364  -1.639  0.00  0.00    +0.000 N 
ATOM     16  N   UNL     1       9.722  -0.073  -1.884  0.00  0.00    +0.000 NA
ATOM     17  C   UNL     1       9.539   0.041  -3.205  0.00  0.00    +0.000 A 
ATOM     18  C   UNL     1       9.207  -1.188  -3.810  0.00  0.00    +0.000 A 
ATOM     19  C   UNL     1       8.860  -1.609  -5.094  0.00  0.00    +0.000 A 
ATOM     20  N   UNL     1       8.656  -2.926  -5.342  0.00  0.00    +0.000 NA
ATOM     21  C   UNL     1       8.795  -3.814  -4.331  0.00  0.00    +0.000 A 
ATOM     22  C   UNL     1       9.089  -3.485  -3.015  0.00  0.00    +0.000 A 
ATOM     23  C   UNL     1       9.259  -2.122  -2.783  0.00  0.00    +0.000 A 
ENDBRANCH  14  15
ENDBRANCH   4  14
TORSDOF 5
