REMARK  Name = 
REMARK  7 active torsions:
REMARK  status: ('A' for Active; 'I' for Inactive)
REMARK    1  A    between atoms: C_1  and  C_2
REMARK    2  A    between atoms: C_4  and  C_5
REMARK    3  A    between atoms: C_4  and  C_6
REMARK    4  A    between atoms: C_11  and  C_12
REMARK    5  A    between atoms: C_17  and  C_18
REMARK    6  A    between atoms: C_19  and  C_20
REMARK    7  A    between atoms: C_23  and  C_24
REMARK                            x       y       z     vdW  Elec       q    Type
REMARK                         _______ _______ _______ _____ _____    ______ ____
ROOT
ATOM      1  C   UNL     1       1.002  -0.128  -0.138  0.00  0.00    +0.000 C 
ATOM      2  C   UNL     1       2.494   0.034   0.127  0.00  0.00    +0.000 C 
ATOM      3  C   UNL     1       3.118  -1.248   0.693  0.00  0.00    +0.000 C 
ATOM      4  C   UNL     1       4.408  -0.839   1.473  0.00  0.00    +0.000 C 
ATOM      5  C   UNL     1       5.612  -1.599   0.873  0.00  0.00    +0.000 C 
ATOM      6  C   UNL     1       4.467   0.728   1.301  0.00  0.00    +0.000 C 
ATOM      7  C   UNL     1       5.370   1.186   0.138  0.00  0.00    +0.000 C 
ATOM      8  C   UNL     1       2.984   1.179   1.054  0.00  0.00    +0.000 C 
ENDROOT
BRANCH   4   9
ATOM      9  C   UNL     1       4.365  -1.256   2.959  0.00  0.00    +0.000 A 
ATOM     10  C   UNL     1       5.405  -0.924   3.832  0.00  0.00    +0.000 A 
ATOM     11  C   UNL     1       5.359  -1.367   5.153  0.00  0.00    +0.000 A 
ATOM     12  C   UNL     1       4.288  -2.139   5.577  0.00  0.00    +0.000 A 
ATOM     13  F   UNL     1       4.267  -2.576   6.842  0.00  0.00    +0.000 F 
ATOM     14  C   UNL     1       3.284  -2.454   4.680  0.00  0.00    +0.000 A 
ATOM     15  N   UNL     1       3.323  -2.010   3.382  0.00  0.00    +0.000 NA
BRANCH  14  16
ATOM     16  C   UNL     1       2.127  -3.331   5.111  0.00  0.00    +0.000 C 
ATOM     17  F   UNL     1       2.240  -3.851   6.368  0.00  0.00    +0.000 F 
ATOM     18  F   UNL     1       0.929  -2.678   5.097  0.00  0.00    +0.000 F 
ATOM     19  F   UNL     1       1.964  -4.416   4.295  0.00  0.00    +0.000 F 
ENDBRANCH  14  16
ENDBRANCH   4   9
BRANCH   8  20
ATOM     20  C   UNL     1       2.130   1.476   2.286  0.00  0.00    +0.000 A 
ATOM     21  C   UNL     1       0.803   1.912   2.144  0.00  0.00    +0.000 A 
ATOM     22  C   UNL     1      -0.020   2.095   3.253  0.00  0.00    +0.000 A 
ATOM     23  C   UNL     1       0.531   1.910   4.508  0.00  0.00    +0.000 A 
ATOM     24  N   UNL     1       1.837   1.601   4.712  0.00  0.00    +0.000 NA
ATOM     25  C   UNL     1       2.588   1.407   3.601  0.00  0.00    +0.000 A 
BRANCH  23  26
ATOM     26  C   UNL     1      -0.317   2.063   5.730  0.00  0.00    +0.000 C 
ATOM     27  N   UNL     1       0.327   1.863   6.917  0.00  0.00    +0.000 N 
ATOM     28  O   UNL     1      -1.510   2.349   5.680  0.00  0.00    +0.000 OA
ATOM     29  H   UNL     1       1.311   1.613   6.913  0.00  0.00    +0.000 HD
ATOM     30  H   UNL     1      -0.187   1.930   7.785  0.00  0.00    +0.000 HD
ENDBRANCH  23  26
ENDBRANCH   8  20
TORSDOF 4
