REMARK  Name = 
REMARK  5 active torsions:
REMARK  status: ('A' for Active; 'I' for Inactive)
REMARK    1  A    between atoms: C_2  and  C_19
REMARK    2  A    between atoms: N_3  and  C_4
REMARK    3  A    between atoms: C_4  and  C_5
REMARK    4  A    between atoms: C_8  and  C_9
REMARK    5  A    between atoms: C_9  and  N_10
REMARK                            x       y       z     vdW  Elec       q    Type
REMARK                         _______ _______ _______ _____ _____    ______ ____
ROOT
ATOM      1  C   UNL     1       2.078   1.844  -2.061  0.00  0.00    +0.000 C 
ENDROOT
BRANCH   1   2
ATOM      2  C   UNL     1       3.033   2.811  -2.700  0.00  0.00    +0.000 A 
ATOM      3  C   UNL     1       2.863   4.189  -2.563  0.00  0.00    +0.000 A 
ATOM      4  C   UNL     1       3.766   5.060  -3.166  0.00  0.00    +0.000 A 
ATOM      5  C   UNL     1       4.829   4.533  -3.897  0.00  0.00    +0.000 A 
ATOM      6  N   UNL     1       5.052   3.196  -3.992  0.00  0.00    +0.000 NA
ATOM      7  C   UNL     1       4.157   2.375  -3.395  0.00  0.00    +0.000 A 
BRANCH   5   8
ATOM      8  C   UNL     1       5.753   5.462  -4.663  0.00  0.00    +0.000 C 
BRANCH   8   9
ATOM      9  N   UNL     1       6.856   5.917  -3.833  0.00  0.00    +0.000 N 
ATOM     10  C   UNL     1       7.727   6.740  -4.538  0.00  0.00    +0.000 A 
ATOM     11  N   UNL     1       7.246   7.578  -5.473  0.00  0.00    +0.000 NA
ATOM     12  C   UNL     1       8.134   8.341  -6.135  0.00  0.00    +0.000 A 
ATOM     13  C   UNL     1       9.485   8.308  -5.901  0.00  0.00    +0.000 A 
ATOM     14  C   UNL     1       9.882   7.423  -4.924  0.00  0.00    +0.000 A 
ATOM     15  N   UNL     1       9.030   6.631  -4.241  0.00  0.00    +0.000 NA
ATOM     16  H   UNL     1       7.420   5.164  -3.453  0.00  0.00    +0.000 HD
ENDBRANCH   8   9
ENDBRANCH   5   8
ENDBRANCH   1   2
BRANCH   1  19
ATOM     17  O   UNL     1       1.080   2.955   0.393  0.00  0.00    +0.000 OA
ATOM     18  C   UNL     1       2.058   2.220   0.382  0.00  0.00    +0.000 C 
ATOM     19  N   UNL     1       2.518   1.542  -0.727  0.00  0.00    +0.000 N 
ATOM     20  H   UNL     1       3.430   1.118  -0.665  0.00  0.00    +0.000 HD
BRANCH  18  21
ATOM     21  C   UNL     1       3.004   2.121   1.487  0.00  0.00    +0.000 A 
ATOM     22  C   UNL     1       3.377   3.212   2.252  0.00  0.00    +0.000 A 
ATOM     23  S   UNL     1       4.866   2.936   3.060  0.00  0.00    +0.000 S 
ATOM     24  C   UNL     1       4.940   1.328   2.498  0.00  0.00    +0.000 A 
ATOM     25  N   UNL     1       6.032   0.539   2.674  0.00  0.00    +0.000 NA
ATOM     26  C   UNL     1       5.893  -0.667   2.228  0.00  0.00    +0.000 A 
ATOM     27  N   UNL     1       4.746  -1.173   1.673  0.00  0.00    +0.000 N 
ATOM     28  C   UNL     1       3.617  -0.416   1.467  0.00  0.00    +0.000 A 
ATOM     29  O   UNL     1       2.591  -0.890   0.995  0.00  0.00    +0.000 OA
ATOM     30  C   UNL     1       3.781   0.974   1.845  0.00  0.00    +0.000 A 
ATOM     31  H   UNL     1       4.675  -2.147   1.414  0.00  0.00    +0.000 HD
ENDBRANCH  18  21
ENDBRANCH   1  19
TORSDOF 5
