REMARK  Name = 
REMARK  10 active torsions:
REMARK  status: ('A' for Active; 'I' for Inactive)
REMARK    1  A    between atoms: C_1  and  O_2
REMARK    2  A    between atoms: O_2  and  C_3
REMARK    3  A    between atoms: C_5  and  C_6
REMARK    4  A    between atoms: C_6  and  N_7
REMARK    5  A    between atoms: C_8  and  C_10
REMARK    6  A    between atoms: N_16  and  C_17
REMARK    7  A    between atoms: C_23  and  C_24
REMARK    8  A    between atoms: C_24  and  N_25
REMARK    9  A    between atoms: C_29  and  C_31
REMARK   10  A    between atoms: C_31  and  O_32
REMARK                            x       y       z     vdW  Elec       q    Type
REMARK                         _______ _______ _______ _____ _____    ______ ____
ROOT
ATOM      1  C   UNL     1       2.954   1.168  -1.053  0.00  0.00    +0.000 A 
ATOM      2  C   UNL     1       2.790   2.574  -1.085  0.00  0.00    +0.000 A 
ATOM      3  C   UNL     1       3.542   3.421  -1.900  0.00  0.00    +0.000 A 
ATOM      4  C   UNL     1       4.560   2.836  -2.647  0.00  0.00    +0.000 A 
ATOM      5  C   UNL     1       4.763   1.435  -2.608  0.00  0.00    +0.000 A 
ATOM      6  C   UNL     1       3.956   0.557  -1.831  0.00  0.00    +0.000 A 
ENDROOT
BRANCH   1   8
ATOM      7  C   UNL     1       1.931  -0.693   0.145  0.00  0.00    +0.000 C 
ATOM      8  O   UNL     1       2.013   0.664  -0.204  0.00  0.00    +0.000 OA
ENDBRANCH   1   8
BRANCH   3   9
ATOM      9  C   UNL     1       3.175   4.888  -1.962  0.00  0.00    +0.000 C 
BRANCH   9  10
ATOM     10  N   UNL     1       3.911   5.717  -1.038  0.00  0.00    +0.000 N 
ATOM     11  C   UNL     1       3.575   7.046  -0.876  0.00  0.00    +0.000 C 
ATOM     12  O   UNL     1       2.787   7.615  -1.627  0.00  0.00    +0.000 OA
ATOM     13  H   UNL     1       4.356   5.238  -0.263  0.00  0.00    +0.000 HD
BRANCH  11  14
ATOM     14  C   UNL     1       4.226   7.768   0.230  0.00  0.00    +0.000 A 
ATOM     15  C   UNL     1       4.371   9.149   0.177  0.00  0.00    +0.000 A 
ATOM     16  S   UNL     1       5.157   9.807   1.542  0.00  0.00    +0.000 S 
ATOM     17  C   UNL     1       5.279   8.278   2.279  0.00  0.00    +0.000 A 
ATOM     18  N   UNL     1       5.832   8.133   3.512  0.00  0.00    +0.000 NA
ATOM     19  C   UNL     1       5.825   6.925   3.968  0.00  0.00    +0.000 A 
ATOM     20  N   UNL     1       5.315   5.822   3.297  0.00  0.00    +0.000 N 
ATOM     21  C   UNL     1       5.377   4.500   3.882  0.00  0.00    +0.000 C 
ATOM     22  C   UNL     1       4.782   5.929   2.019  0.00  0.00    +0.000 A 
ATOM     23  O   UNL     1       4.386   4.958   1.383  0.00  0.00    +0.000 OA
ATOM     24  C   UNL     1       4.752   7.277   1.486  0.00  0.00    +0.000 A 
ENDBRANCH  11  14
ENDBRANCH   9  10
ENDBRANCH   3   9
BRANCH   6  25
ATOM     25  C   UNL     1       4.365  -0.917  -1.773  0.00  0.00    +0.000 C 
BRANCH  25  26
ATOM     26  N   UNL     1       4.497  -1.668  -3.042  0.00  0.00    +0.000 NA
ATOM     27  C   UNL     1       3.212  -2.001  -3.696  0.00  0.00    +0.000 C 
ATOM     28  C   UNL     1       2.336  -3.101  -3.035  0.00  0.00    +0.000 C 
ATOM     29  N   UNL     1       3.066  -4.258  -2.505  0.00  0.00    +0.000 N 
ATOM     30  C   UNL     1       2.435  -5.394  -1.994  0.00  0.00    +0.000 C 
ATOM     31  O   UNL     1       3.064  -6.325  -1.479  0.00  0.00    +0.000 OA
ATOM     32  C   UNL     1       4.434  -4.029  -2.039  0.00  0.00    +0.000 C 
ATOM     33  C   UNL     1       5.213  -2.955  -2.824  0.00  0.00    +0.000 C 
BRANCH  30  34
ATOM     34  C   UNL     1       0.901  -5.472  -2.031  0.00  0.00    +0.000 C 
BRANCH  34  35
ATOM     35  O   UNL     1       0.422  -6.689  -1.462  0.00  0.00    +0.000 OA
ATOM     36  H   UNL     1       1.217  -7.234  -1.282  0.00  0.00    +0.000 HD
ENDBRANCH  34  35
ENDBRANCH  30  34
ENDBRANCH  25  26
ENDBRANCH   6  25
TORSDOF 8
