REMARK  Name = 
REMARK  12 active torsions:
REMARK  status: ('A' for Active; 'I' for Inactive)
REMARK    1  A    between atoms: C_1  and  C_2
REMARK    2  A    between atoms: C_2  and  C_3
REMARK    3  A    between atoms: C_3  and  N_4
REMARK    4  A    between atoms: C_3  and  C_18
REMARK    5  A    between atoms: C_5  and  C_7
REMARK    6  A    between atoms: N_13  and  C_14
REMARK    7  A    between atoms: C_21  and  C_22
REMARK    8  A    between atoms: C_22  and  N_23
REMARK    9  A    between atoms: N_23  and  CA_24
REMARK   10  A    between atoms: CA_24  and  C_25
REMARK   11  A    between atoms: CA_24  and  C_27
REMARK   12  A    between atoms: C_25  and  O_26
REMARK                            x       y       z     vdW  Elec       q    Type
REMARK                         _______ _______ _______ _____ _____    ______ ____
ROOT
ATOM      1  C   UNL     1      12.017   2.631  -6.953  0.00  0.00    +0.000 A 
ATOM      2  C   UNL     1      12.089   1.495  -6.133  0.00  0.00    +0.000 A 
ATOM      3  C   UNL     1      11.653   1.547  -4.806  0.00  0.00    +0.000 A 
ATOM      4  C   UNL     1      11.129   2.732  -4.281  0.00  0.00    +0.000 A 
ATOM      5  C   UNL     1      10.955   3.831  -5.132  0.00  0.00    +0.000 A 
ATOM      6  C   UNL     1      11.370   3.772  -6.459  0.00  0.00    +0.000 A 
ENDROOT
BRANCH   1   7
ATOM      7  C   UNL     1      12.639   2.603  -8.340  0.00  0.00    +0.000 C 
BRANCH   7   8
ATOM      8  N   UNL     1      11.633   2.163  -9.278  0.00  0.00    +0.000 N 
ATOM      9  C   UNL     1      11.910   1.625 -10.510  0.00  0.00    +0.000 C 
ATOM     10  O   UNL     1      13.032   1.265 -10.857  0.00  0.00    +0.000 OA
ATOM     11  H   UNL     1      10.710   2.544  -9.118  0.00  0.00    +0.000 HD
BRANCH   9  12
ATOM     12  C   UNL     1      10.727   1.453 -11.361  0.00  0.00    +0.000 A 
ATOM     13  C   UNL     1      10.625   0.391 -12.246  0.00  0.00    +0.000 A 
ATOM     14  S   UNL     1       9.115   0.334 -13.050  0.00  0.00    +0.000 S 
ATOM     15  C   UNL     1       8.584   1.757 -12.285  0.00  0.00    +0.000 A 
ATOM     16  N   UNL     1       7.350   2.273 -12.523  0.00  0.00    +0.000 NA
ATOM     17  C   UNL     1       7.099   3.380 -11.892  0.00  0.00    +0.000 A 
ATOM     18  N   UNL     1       7.973   4.041 -11.054  0.00  0.00    +0.000 N 
ATOM     19  C   UNL     1       7.605   5.289 -10.424  0.00  0.00    +0.000 C 
ATOM     20  C   UNL     1       9.237   3.534 -10.786  0.00  0.00    +0.000 A 
ATOM     21  O   UNL     1      10.022   4.102 -10.031  0.00  0.00    +0.000 OA
ATOM     22  C   UNL     1       9.549   2.279 -11.443  0.00  0.00    +0.000 A 
ENDBRANCH   9  12
ENDBRANCH   7   8
BRANCH   7  24
ATOM     23  C   UNL     1      14.307   4.476  -7.798  0.00  0.00    +0.000 C 
ATOM     24  C   UNL     1      13.251   3.959  -8.771  0.00  0.00    +0.000 C 
ENDBRANCH   7  24
ENDBRANCH   1   7
BRANCH   4  25
ATOM     25  C   UNL     1      10.723   2.845  -2.834  0.00  0.00    +0.000 C 
BRANCH  25  26
ATOM     26  N   UNL     1      11.855   2.713  -1.912  0.00  0.00    +0.000 NA
ATOM     27  H   UNL     1      12.575   3.396  -2.140  0.00  0.00    +0.000 HD
BRANCH  26  28
ATOM     28  CA  UNL     1      11.448   2.861  -0.489  0.00  0.00    +0.000 C 
BRANCH  28  29
ATOM     29  C   UNL     1      12.674   2.733   0.476  0.00  0.00    +0.000 C 
ATOM     30  C   UNL     1      13.437   1.418   0.360  0.00  0.00    +0.000 C 
ATOM     31  C   UNL     1      14.178   1.336   1.682  0.00  0.00    +0.000 C 
ATOM     32  C   UNL     1      13.231   1.979   2.676  0.00  0.00    +0.000 C 
ATOM     33  N   UNL     1      12.271   2.766   1.900  0.00  0.00    +0.000 NA
ATOM     34  H   UNL     1      12.269   3.734   2.225  0.00  0.00    +0.000 HD
ENDBRANCH  28  29
BRANCH  28  35
ATOM     35  C   UNL     1      10.693   4.190  -0.210  0.00  0.00    +0.000 C 
BRANCH  35  36
ATOM     36  O   UNL     1      11.485   5.330  -0.546  0.00  0.00    +0.000 OA
ATOM     37  H   UNL     1      11.512   5.384  -1.516  0.00  0.00    +0.000 HD
ENDBRANCH  35  36
ENDBRANCH  28  35
ENDBRANCH  26  28
ENDBRANCH  25  26
ENDBRANCH   4  25
TORSDOF 10
