REMARK  Name = 
REMARK  8 active torsions:
REMARK  status: ('A' for Active; 'I' for Inactive)
REMARK    1  A    between atoms: C_1  and  C_2
REMARK    2  A    between atoms: C_2  and  N_3
REMARK    3  A    between atoms: C_2  and  C_25
REMARK    4  A    between atoms: N_3  and  C_4
REMARK    5  A    between atoms: C_4  and  C_5
REMARK    6  A    between atoms: C_8  and  C_9
REMARK    7  A    between atoms: C_9  and  N_10
REMARK    8  A    between atoms: C_11  and  C_13
REMARK                            x       y       z     vdW  Elec       q    Type
REMARK                         _______ _______ _______ _____ _____    ______ ____
ROOT
ATOM      1  C   UNL     1       3.003   3.752  -0.304  0.00  0.00    +0.000 A 
ATOM      2  C   UNL     1       2.285   4.839  -0.811  0.00  0.00    +0.000 A 
ATOM      3  C   UNL     1       2.665   6.139  -0.492  0.00  0.00    +0.000 A 
ATOM      4  C   UNL     1       3.755   6.331   0.349  0.00  0.00    +0.000 A 
ATOM      5  N   UNL     1       4.493   5.297   0.830  0.00  0.00    +0.000 NA
ATOM      6  C   UNL     1       4.104   4.044   0.493  0.00  0.00    +0.000 A 
ENDROOT
BRANCH   1   7
ATOM      7  C   UNL     1       2.596   2.342  -0.648  0.00  0.00    +0.000 C 
BRANCH   7   8
ATOM      8  N   UNL     1       2.222   1.571   0.536  0.00  0.00    +0.000 NA
ATOM      9  H   UNL     1       3.035   1.491   1.146  0.00  0.00    +0.000 HD
BRANCH   8  11
ATOM     10  C   UNL     1       0.540   0.128  -0.676  0.00  0.00    +0.000 C 
ATOM     11  C   UNL     1       1.780   0.192   0.225  0.00  0.00    +0.000 C 
BRANCH  11  12
ATOM     12  C   UNL     1       1.478  -0.613   1.492  0.00  0.00    +0.000 A 
ATOM     13  C   UNL     1       0.898  -0.013   2.613  0.00  0.00    +0.000 A 
ATOM     14  C   UNL     1       0.582  -0.800   3.717  0.00  0.00    +0.000 A 
ATOM     15  C   UNL     1       0.834  -2.164   3.674  0.00  0.00    +0.000 A 
ATOM     16  C   UNL     1       1.409  -2.685   2.527  0.00  0.00    +0.000 A 
ATOM     17  N   UNL     1       1.740  -1.945   1.445  0.00  0.00    +0.000 NA
ENDBRANCH  11  12
ENDBRANCH   8  11
ENDBRANCH   7   8
ENDBRANCH   1   7
BRANCH   4  18
ATOM     18  C   UNL     1       4.151   7.725   0.766  0.00  0.00    +0.000 C 
BRANCH  18  19
ATOM     19  N   UNL     1       5.113   8.321  -0.129  0.00  0.00    +0.000 N 
ATOM     20  C   UNL     1       4.757   9.158  -1.151  0.00  0.00    +0.000 C 
ATOM     21  O   UNL     1       3.590   9.436  -1.397  0.00  0.00    +0.000 OA
ATOM     22  H   UNL     1       6.037   7.902  -0.117  0.00  0.00    +0.000 HD
BRANCH  20  23
ATOM     23  C   UNL     1       5.867   9.770  -1.890  0.00  0.00    +0.000 A 
ATOM     24  C   UNL     1       5.679  10.985  -2.536  0.00  0.00    +0.000 A 
ATOM     25  S   UNL     1       7.081  11.568  -3.314  0.00  0.00    +0.000 S 
ATOM     26  C   UNL     1       7.976  10.196  -2.850  0.00  0.00    +0.000 A 
ATOM     27  N   UNL     1       9.274  10.047  -3.226  0.00  0.00    +0.000 NA
ATOM     28  C   UNL     1       9.820   8.945  -2.828  0.00  0.00    +0.000 A 
ATOM     29  N   UNL     1       9.191   7.986  -2.078  0.00  0.00    +0.000 N 
ATOM     30  C   UNL     1       7.902   8.124  -1.625  0.00  0.00    +0.000 A 
ATOM     31  O   UNL     1       7.405   7.297  -0.867  0.00  0.00    +0.000 OA
ATOM     32  C   UNL     1       7.226   9.323  -2.083  0.00  0.00    +0.000 A 
ATOM     33  H   UNL     1       9.681   7.160  -1.773  0.00  0.00    +0.000 HD
ENDBRANCH  20  23
ENDBRANCH  18  19
ENDBRANCH   4  18
TORSDOF 7
