REMARK  Name = 
REMARK  9 active torsions:
REMARK  status: ('A' for Active; 'I' for Inactive)
REMARK    1  A    between atoms: C_1  and  N_2
REMARK    2  A    between atoms: N_2  and  C_3
REMARK    3  A    between atoms: N_2  and  C_4
REMARK    4  A    between atoms: C_4  and  C_5
REMARK    5  A    between atoms: C_5  and  O_6
REMARK    6  A    between atoms: O_6  and  C_7
REMARK    7  A    between atoms: C_10  and  C_11
REMARK    8  A    between atoms: C_11  and  N_12
REMARK    9  A    between atoms: C_17  and  C_18
REMARK                            x       y       z     vdW  Elec       q    Type
REMARK                         _______ _______ _______ _____ _____    ______ ____
ROOT
ATOM      1  C   UNL     1      10.500  -2.332  -3.087  0.00  0.00    +0.000 C 
ENDROOT
BRANCH   1   2
ATOM      2  N   UNL     1      11.238  -1.066  -2.979  0.00  0.00    +0.000 N 
ATOM      3  C   UNL     1      12.624  -1.200  -3.153  0.00  0.00    +0.000 A 
ATOM      4  C   UNL     1      13.410  -0.063  -3.122  0.00  0.00    +0.000 A 
ATOM      5  C   UNL     1      14.768  -0.230  -3.303  0.00  0.00    +0.000 A 
ATOM      6  N   UNL     1      15.347  -1.425  -3.503  0.00  0.00    +0.000 NA
ATOM      7  C   UNL     1      14.490  -2.470  -3.535  0.00  0.00    +0.000 A 
ATOM      8  N   UNL     1      13.155  -2.408  -3.370  0.00  0.00    +0.000 NA
ATOM      9  H   UNL     1      11.032  -0.574  -2.117  0.00  0.00    +0.000 HD
BRANCH   7  10
ATOM     10  C   UNL     1      15.089  -3.840  -3.734  0.00  0.00    +0.000 C 
ATOM     11  N   UNL     1      16.457  -3.885  -3.873  0.00  0.00    +0.000 N 
ATOM     12  O   UNL     1      14.431  -4.877  -3.765  0.00  0.00    +0.000 OA
ATOM     13  H   UNL     1      16.999  -3.033  -3.843  0.00  0.00    +0.000 HD
ATOM     14  H   UNL     1      16.906  -4.780  -4.001  0.00  0.00    +0.000 HD
ENDBRANCH   7  10
ENDBRANCH   1   2
BRANCH   1  18
ATOM     15  C   UNL     1       6.299  -1.799  -2.398  0.00  0.00    +0.000 A 
ATOM     16  C   UNL     1       7.145  -2.072  -1.326  0.00  0.00    +0.000 A 
ATOM     17  C   UNL     1       8.514  -2.232  -1.540  0.00  0.00    +0.000 A 
ATOM     18  C   UNL     1       9.015  -2.130  -2.836  0.00  0.00    +0.000 A 
ATOM     19  N   UNL     1       8.210  -1.864  -3.896  0.00  0.00    +0.000 NA
ATOM     20  C   UNL     1       6.883  -1.708  -3.655  0.00  0.00    +0.000 A 
BRANCH  15  21
ATOM     21  O   UNL     1       4.943  -1.611  -2.323  0.00  0.00    +0.000 OA
BRANCH  21  22
ATOM     22  C   UNL     1       4.390  -1.769  -1.011  0.00  0.00    +0.000 C 
BRANCH  22  23
ATOM     23  C   UNL     1       2.866  -1.576  -1.032  0.00  0.00    +0.000 C 
BRANCH  23  25
ATOM     24  C   UNL     1       0.798  -1.453   0.200  0.00  0.00    +0.000 C 
ATOM     25  N   UNL     1       2.240  -1.690   0.304  0.00  0.00    +0.000 NA
ATOM     26  C   UNL     1       2.478  -2.994   0.928  0.00  0.00    +0.000 C 
ENDBRANCH  23  25
ENDBRANCH  22  23
ENDBRANCH  21  22
ENDBRANCH  15  21
ENDBRANCH   1  18
TORSDOF 7
