REMARK  Name = 
REMARK  7 active torsions:
REMARK  status: ('A' for Active; 'I' for Inactive)
REMARK    1  A    between atoms: C_1  and  O_2
REMARK    2  A    between atoms: O_2  and  C_3
REMARK    3  A    between atoms: N_5  and  C_6
REMARK    4  A    between atoms: C_6  and  C_7
REMARK    5  A    between atoms: C_10  and  C_11
REMARK    6  A    between atoms: C_11  and  C_12
REMARK    7  A    between atoms: C_12  and  N_13
REMARK                            x       y       z     vdW  Elec       q    Type
REMARK                         _______ _______ _______ _____ _____    ______ ____
ROOT
ATOM      1  C   UNL     1       5.764  -1.218  -3.403  0.00  0.00    +0.000 C 
ENDROOT
BRANCH   1   4
ATOM      2  C   UNL     1       3.419   0.770  -1.473  0.00  0.00    +0.000 A 
ATOM      3  C   UNL     1       4.680   0.507  -1.950  0.00  0.00    +0.000 A 
ATOM      4  N   UNL     1       4.616  -0.622  -2.726  0.00  0.00    +0.000 N 
ATOM      5  C   UNL     1       3.305  -1.057  -2.818  0.00  0.00    +0.000 A 
ATOM      6  C   UNL     1       2.738  -2.128  -3.532  0.00  0.00    +0.000 A 
ATOM      7  C   UNL     1       1.361  -2.333  -3.447  0.00  0.00    +0.000 A 
ATOM      8  C   UNL     1       0.564  -1.492  -2.683  0.00  0.00    +0.000 A 
ATOM      9  C   UNL     1       1.129  -0.424  -1.980  0.00  0.00    +0.000 A 
ATOM     10  C   UNL     1       2.524  -0.194  -2.029  0.00  0.00    +0.000 A 
BRANCH   2  12
ATOM     11  C   UNL     1       2.209   1.667   0.307  0.00  0.00    +0.000 C 
ATOM     12  O   UNL     1       3.215   1.846  -0.678  0.00  0.00    +0.000 OA
ENDBRANCH   2  12
ENDBRANCH   1   4
BRANCH   1  13
ATOM     13  C   UNL     1       6.437  -2.248  -2.540  0.00  0.00    +0.000 A 
ATOM     14  C   UNL     1       6.036  -3.586  -2.531  0.00  0.00    +0.000 A 
ATOM     15  C   UNL     1       6.634  -4.487  -1.652  0.00  0.00    +0.000 A 
ATOM     16  C   UNL     1       7.635  -4.031  -0.800  0.00  0.00    +0.000 A 
ATOM     17  N   UNL     1       8.064  -2.747  -0.814  0.00  0.00    +0.000 NA
ATOM     18  C   UNL     1       7.462  -1.892  -1.672  0.00  0.00    +0.000 A 
BRANCH  16  19
ATOM     19  C   UNL     1       8.239  -4.946   0.235  0.00  0.00    +0.000 C 
BRANCH  19  20
ATOM     20  C   UNL     1       7.478  -4.839   1.561  0.00  0.00    +0.000 C 
BRANCH  20  21
ATOM     21  N   UNL     1       8.049  -5.717   2.584  0.00  0.00    +0.000 NA
ATOM     22  H   UNL     1       7.953  -6.690   2.303  0.00  0.00    +0.000 HD
ATOM     23  H   UNL     1       7.519  -5.612   3.447  0.00  0.00    +0.000 HD
ENDBRANCH  20  21
ENDBRANCH  19  20
ENDBRANCH  16  19
ENDBRANCH   1  13
TORSDOF 6
