REMARK  Name = 
REMARK  6 active torsions:
REMARK  status: ('A' for Active; 'I' for Inactive)
REMARK    1  A    between atoms: C_2  and  C_4
REMARK    2  A    between atoms: N_8  and  C_9
REMARK    3  A    between atoms: C_9  and  C_10
REMARK    4  A    between atoms: C_10  and  C_11
REMARK    5  A    between atoms: C_15  and  O_16
REMARK    6  A    between atoms: O_16  and  C_17
REMARK                            x       y       z     vdW  Elec       q    Type
REMARK                         _______ _______ _______ _____ _____    ______ ____
ROOT
ATOM      1  C   UNL     1       5.276  -3.453   4.726  0.00  0.00    +0.000 C 
ENDROOT
BRANCH   1   6
ATOM      2  C   UNL     1       3.187  -0.523   1.108  0.00  0.00    +0.000 A 
ATOM      3  C   UNL     1       2.572  -1.431   1.966  0.00  0.00    +0.000 A 
ATOM      4  C   UNL     1       3.318  -1.996   3.006  0.00  0.00    +0.000 A 
ATOM      5  C   UNL     1       4.658  -1.658   3.160  0.00  0.00    +0.000 A 
ATOM      6  N   UNL     1       5.441  -2.099   4.211  0.00  0.00    +0.000 N 
ATOM      7  N   UNL     1       5.269  -0.801   2.316  0.00  0.00    +0.000 NA
ATOM      8  C   UNL     1       4.532  -0.262   1.308  0.00  0.00    +0.000 A 
ATOM      9  H   UNL     1       6.395  -1.812   4.005  0.00  0.00    +0.000 HD
BRANCH   2  11
ATOM     10  N   UNL     1       1.123   0.329   0.147  0.00  0.00    +0.000 N 
ATOM     11  C   UNL     1       2.473   0.154   0.006  0.00  0.00    +0.000 C 
ATOM     12  O   UNL     1       3.067   0.578  -0.976  0.00  0.00    +0.000 OA
ATOM     13  H   UNL     1       0.667   0.892  -0.560  0.00  0.00    +0.000 HD
ATOM     14  H   UNL     1       0.653   0.232   1.036  0.00  0.00    +0.000 HD
ENDBRANCH   2  11
ENDBRANCH   1   6
BRANCH   1  15
ATOM     15  C   UNL     1       6.331  -3.737   5.806  0.00  0.00    +0.000 C 
BRANCH  15  16
ATOM     16  C   UNL     1       6.123  -5.066   6.490  0.00  0.00    +0.000 A 
ATOM     17  C   UNL     1       6.698  -6.235   5.986  0.00  0.00    +0.000 A 
ATOM     18  C   UNL     1       6.467  -7.432   6.651  0.00  0.00    +0.000 A 
ATOM     19  N   UNL     1       5.703  -7.547   7.758  0.00  0.00    +0.000 NA
ATOM     20  C   UNL     1       5.162  -6.406   8.231  0.00  0.00    +0.000 A 
ATOM     21  C   UNL     1       5.338  -5.162   7.645  0.00  0.00    +0.000 A 
BRANCH  20  22
ATOM     22  O   UNL     1       4.391  -6.455   9.378  0.00  0.00    +0.000 OA
BRANCH  22  23
ATOM     23  C   UNL     1       3.910  -7.768   9.754  0.00  0.00    +0.000 C 
ATOM     24  C   UNL     1       2.767  -8.357   8.906  0.00  0.00    +0.000 C 
ATOM     25  N   UNL     1       1.956  -8.576  10.113  0.00  0.00    +0.000 NA
ATOM     26  C   UNL     1       2.907  -7.801  10.922  0.00  0.00    +0.000 C 
ATOM     27  H   UNL     1       1.883  -9.555  10.386  0.00  0.00    +0.000 HD
ENDBRANCH  22  23
ENDBRANCH  20  22
ENDBRANCH  15  16
ENDBRANCH   1  15
TORSDOF 6
