REMARK  Name = 
REMARK  6 active torsions:
REMARK  status: ('A' for Active; 'I' for Inactive)
REMARK    1  A    between atoms: C_1  and  C_2
REMARK    2  A    between atoms: C_2  and  C_3
REMARK    3  A    between atoms: C_2  and  C_4
REMARK    4  A    between atoms: C_2  and  C_19
REMARK    5  A    between atoms: C_5  and  C_6
REMARK    6  A    between atoms: C_10  and  C_11
REMARK                            x       y       z     vdW  Elec       q    Type
REMARK                         _______ _______ _______ _____ _____    ______ ____
ROOT
ATOM      1  C   UNL     1       3.160   0.001  -3.891  0.00  0.00    +0.000 A 
ATOM      2  C   UNL     1       2.395  -0.285  -5.017  0.00  0.00    +0.000 A 
ATOM      3  N   UNL     1       2.778  -0.018  -6.284  0.00  0.00    +0.000 NA
ATOM      4  C   UNL     1       3.994   0.559  -6.436  0.00  0.00    +0.000 A 
ATOM      5  C   UNL     1       4.865   0.888  -5.395  0.00  0.00    +0.000 A 
ATOM      6  C   UNL     1       4.413   0.581  -4.104  0.00  0.00    +0.000 A 
ENDROOT
BRANCH   5   7
ATOM      7  C   UNL     1       6.178   1.521  -5.626  0.00  0.00    +0.000 A 
ATOM      8  C   UNL     1       6.380   2.422  -6.692  0.00  0.00    +0.000 A 
ATOM      9  C   UNL     1       7.623   3.025  -6.913  0.00  0.00    +0.000 A 
ATOM     10  C   UNL     1       8.687   2.751  -6.068  0.00  0.00    +0.000 A 
ATOM     11  C   UNL     1       8.504   1.873  -5.007  0.00  0.00    +0.000 A 
ATOM     12  F   UNL     1       9.526   1.609  -4.185  0.00  0.00    +0.000 F 
ATOM     13  C   UNL     1       7.275   1.263  -4.787  0.00  0.00    +0.000 A 
ENDBRANCH   5   7
BRANCH   1  15
ATOM     14  C   UNL     1       2.987   0.308  -1.427  0.00  0.00    +0.000 C 
ATOM     15  C   UNL     1       2.664  -0.347  -2.556  0.00  0.00    +0.000 C 
BRANCH  14  17
ATOM     16  C   UNL     1       3.470  -0.927   0.689  0.00  0.00    +0.000 C 
ATOM     17  C   UNL     1       2.463   0.009  -0.020  0.00  0.00    +0.000 C 
ATOM     18  C   UNL     1       2.486   1.344   0.771  0.00  0.00    +0.000 C 
BRANCH  17  19
ATOM     19  C   UNL     1       1.047  -0.612  -0.061  0.00  0.00    +0.000 A 
ATOM     20  C   UNL     1      -0.106   0.195  -0.082  0.00  0.00    +0.000 A 
ATOM     21  C   UNL     1      -1.380  -0.367  -0.201  0.00  0.00    +0.000 A 
ATOM     22  C   UNL     1      -1.519  -1.742  -0.318  0.00  0.00    +0.000 A 
ATOM     23  F   UNL     1      -2.739  -2.275  -0.455  0.00  0.00    +0.000 F 
ATOM     24  C   UNL     1      -0.408  -2.568  -0.312  0.00  0.00    +0.000 A 
ATOM     25  C   UNL     1       0.865  -2.008  -0.180  0.00  0.00    +0.000 A 
ENDBRANCH  17  19
ENDBRANCH  14  17
ENDBRANCH   1  15
TORSDOF 4
