REMARK  Name = 
REMARK  7 active torsions:
REMARK  status: ('A' for Active; 'I' for Inactive)
REMARK    1  A    between atoms: C_2  and  C_20
REMARK    2  A    between atoms: N_3  and  C_4
REMARK    3  A    between atoms: C_4  and  C_5
REMARK    4  A    between atoms: C_8  and  C_9
REMARK    5  A    between atoms: C_9  and  N_10
REMARK    6  A    between atoms: N_10  and  C_11
REMARK    7  A    between atoms: C_14  and  O_15
REMARK                            x       y       z     vdW  Elec       q    Type
REMARK                         _______ _______ _______ _____ _____    ______ ____
ROOT
ATOM      1  C   UNL     1       6.411  -8.938  -9.906  0.00  0.00    +0.000 A 
ATOM      2  C   UNL     1       7.572  -8.369  -9.380  0.00  0.00    +0.000 A 
ATOM      3  C   UNL     1       7.582  -7.917  -8.061  0.00  0.00    +0.000 A 
ATOM      4  C   UNL     1       6.422  -8.036  -7.297  0.00  0.00    +0.000 A 
ATOM      5  N   UNL     1       5.281  -8.582  -7.788  0.00  0.00    +0.000 NA
ATOM      6  C   UNL     1       5.300  -9.006  -9.073  0.00  0.00    +0.000 A 
ENDROOT
BRANCH   1   7
ATOM      7  C   UNL     1       6.324  -9.379 -11.337  0.00  0.00    +0.000 C 
BRANCH   7  10
ATOM      8  O   UNL     1       6.130  -9.444 -14.121  0.00  0.00    +0.000 OA
ATOM      9  C   UNL     1       5.807  -8.415 -13.535  0.00  0.00    +0.000 C 
ATOM     10  N   UNL     1       5.952  -8.272 -12.180  0.00  0.00    +0.000 N 
ATOM     11  H   UNL     1       5.491  -7.493 -11.721  0.00  0.00    +0.000 HD
BRANCH   9  12
ATOM     12  C   UNL     1       5.281  -7.247 -14.253  0.00  0.00    +0.000 A 
ATOM     13  C   UNL     1       5.563  -7.073 -15.601  0.00  0.00    +0.000 A 
ATOM     14  S   UNL     1       4.883  -5.653 -16.261  0.00  0.00    +0.000 S 
ATOM     15  C   UNL     1       4.148  -5.248 -14.780  0.00  0.00    +0.000 A 
ATOM     16  N   UNL     1       3.373  -4.136 -14.661  0.00  0.00    +0.000 NA
ATOM     17  C   UNL     1       2.848  -3.971 -13.492  0.00  0.00    +0.000 A 
ATOM     18  N   UNL     1       3.037  -4.816 -12.427  0.00  0.00    +0.000 N 
ATOM     19  C   UNL     1       3.838  -5.927 -12.490  0.00  0.00    +0.000 A 
ATOM     20  O   UNL     1       4.034  -6.628 -11.503  0.00  0.00    +0.000 OA
ATOM     21  C   UNL     1       4.436  -6.171 -13.791  0.00  0.00    +0.000 A 
ATOM     22  H   UNL     1       2.611  -4.622 -11.531  0.00  0.00    +0.000 HD
ENDBRANCH   9  12
ENDBRANCH   7  10
ENDBRANCH   1   7
BRANCH   4  23
ATOM     23  C   UNL     1       6.403  -7.604  -5.842  0.00  0.00    +0.000 C 
BRANCH  23  24
ATOM     24  N   UNL     1       6.149  -8.706  -4.888  0.00  0.00    +0.000 NA
ATOM     25  H   UNL     1       5.239  -9.094  -5.153  0.00  0.00    +0.000 HD
BRANCH  24  26
ATOM     26  C   UNL     1       7.146  -9.783  -4.957  0.00  0.00    +0.000 C 
ATOM     27  C   UNL     1       8.563  -9.295  -4.619  0.00  0.00    +0.000 C 
ATOM     28  C   UNL     1       9.565 -10.433  -4.737  0.00  0.00    +0.000 C 
ATOM     29  C   UNL     1       9.196 -11.591  -3.818  0.00  0.00    +0.000 C 
ATOM     30  C   UNL     1       7.764 -12.069  -4.058  0.00  0.00    +0.000 C 
ATOM     31  C   UNL     1       6.753 -10.921  -3.994  0.00  0.00    +0.000 C 
BRANCH  29  32
ATOM     32  O   UNL     1      10.104 -12.665  -4.028  0.00  0.00    +0.000 OA
ATOM     33  H   UNL     1      10.074 -12.905  -4.970  0.00  0.00    +0.000 HD
ENDBRANCH  29  32
ENDBRANCH  24  26
ENDBRANCH  23  24
ENDBRANCH   4  23
TORSDOF 7
