REMARK  Name = 
REMARK  8 active torsions:
REMARK  status: ('A' for Active; 'I' for Inactive)
REMARK    1  A    between atoms: C_1  and  C_2
REMARK    2  A    between atoms: C_2  and  N_3
REMARK    3  A    between atoms: C_2  and  C_25
REMARK    4  A    between atoms: N_3  and  C_4
REMARK    5  A    between atoms: C_4  and  C_5
REMARK    6  A    between atoms: C_8  and  C_9
REMARK    7  A    between atoms: C_9  and  N_10
REMARK    8  A    between atoms: C_11  and  C_13
REMARK                            x       y       z     vdW  Elec       q    Type
REMARK                         _______ _______ _______ _____ _____    ______ ____
ROOT
ATOM      1  C   UNL     1       2.943  -0.530  -3.719  0.00  0.00    +0.000 C 
ATOM      2  C   UNL     1       4.225  -1.314  -4.053  0.00  0.00    +0.000 C 
ATOM      3  C   UNL     1       4.918  -0.806  -5.317  0.00  0.00    +0.000 C 
ATOM      4  C   UNL     1       5.209   0.707  -5.288  0.00  0.00    +0.000 C 
ATOM      5  C   UNL     1       3.915   1.474  -4.985  0.00  0.00    +0.000 C 
ATOM      6  C   UNL     1       3.232   0.984  -3.707  0.00  0.00    +0.000 C 
ENDROOT
BRANCH   1   7
ATOM      7  C   UNL     1       1.757  -0.848  -4.661  0.00  0.00    +0.000 C 
BRANCH   7   8
ATOM      8  N   UNL     1       1.315  -2.235  -4.513  0.00  0.00    +0.000 NA
ATOM      9  H   UNL     1       2.098  -2.862  -4.703  0.00  0.00    +0.000 HD
BRANCH   8  11
ATOM     10  C   UNL     1      -1.043  -1.804  -5.262  0.00  0.00    +0.000 C 
ATOM     11  C   UNL     1       0.246  -2.612  -5.462  0.00  0.00    +0.000 C 
BRANCH  11  12
ATOM     12  C   UNL     1      -0.060  -4.106  -5.349  0.00  0.00    +0.000 A 
ATOM     13  C   UNL     1      -0.539  -4.646  -4.153  0.00  0.00    +0.000 A 
ATOM     14  C   UNL     1      -0.838  -6.003  -4.093  0.00  0.00    +0.000 A 
ATOM     15  C   UNL     1      -0.637  -6.791  -5.218  0.00  0.00    +0.000 A 
ATOM     16  C   UNL     1      -0.134  -6.187  -6.358  0.00  0.00    +0.000 A 
ATOM     17  N   UNL     1       0.159  -4.871  -6.450  0.00  0.00    +0.000 NA
ENDBRANCH  11  12
ENDBRANCH   8  11
ENDBRANCH   7   8
ENDBRANCH   1   7
BRANCH   4  18
ATOM     18  C   UNL     1       6.332   1.121  -4.312  0.00  0.00    +0.000 C 
BRANCH  18  19
ATOM     19  N   UNL     1       7.583   0.489  -4.662  0.00  0.00    +0.000 N 
ATOM     20  C   UNL     1       8.816   1.039  -4.420  0.00  0.00    +0.000 C 
ATOM     21  O   UNL     1       8.973   2.191  -4.030  0.00  0.00    +0.000 OA
ATOM     22  H   UNL     1       7.543  -0.519  -4.724  0.00  0.00    +0.000 HD
BRANCH  20  23
ATOM     23  C   UNL     1       9.952   0.160  -4.731  0.00  0.00    +0.000 A 
ATOM     24  C   UNL     1      11.180   0.698  -5.089  0.00  0.00    +0.000 A 
ATOM     25  S   UNL     1      12.346  -0.482  -5.493  0.00  0.00    +0.000 S 
ATOM     26  C   UNL     1      11.267  -1.753  -5.154  0.00  0.00    +0.000 A 
ATOM     27  N   UNL     1      11.638  -3.054  -5.299  0.00  0.00    +0.000 NA
ATOM     28  C   UNL     1      10.723  -3.910  -4.981  0.00  0.00    +0.000 A 
ATOM     29  N   UNL     1       9.471  -3.586  -4.530  0.00  0.00    +0.000 N 
ATOM     30  C   UNL     1       9.044  -2.289  -4.384  0.00  0.00    +0.000 A 
ATOM     31  O   UNL     1       7.904  -2.039  -4.010  0.00  0.00    +0.000 OA
ATOM     32  C   UNL     1      10.033  -1.284  -4.738  0.00  0.00    +0.000 A 
ATOM     33  H   UNL     1       8.798  -4.301  -4.299  0.00  0.00    +0.000 HD
ENDBRANCH  20  23
ENDBRANCH  18  19
ENDBRANCH   4  18
TORSDOF 7
