REMARK  Name = 
REMARK  4 active torsions:
REMARK  status: ('A' for Active; 'I' for Inactive)
REMARK    1  A    between atoms: N_1  and  C_2
REMARK    2  A    between atoms: C_2  and  C_3
REMARK    3  A    between atoms: C_7  and  C_8
REMARK    4  A    between atoms: C_8  and  N_9
REMARK                            x       y       z     vdW  Elec       q    Type
REMARK                         _______ _______ _______ _____ _____    ______ ____
ROOT
ATOM      1  C   UNL     1       2.903  -1.141  -1.009  0.00  0.00    +0.000 A 
ATOM      2  C   UNL     1       2.680  -2.497  -0.770  0.00  0.00    +0.000 A 
ATOM      3  C   UNL     1       3.095  -3.412  -1.725  0.00  0.00    +0.000 A 
ATOM      4  N   UNL     1       3.721  -3.075  -2.870  0.00  0.00    +0.000 NA
ATOM      5  C   UNL     1       3.942  -1.754  -3.101  0.00  0.00    +0.000 A 
ATOM      6  C   UNL     1       3.545  -0.769  -2.198  0.00  0.00    +0.000 A 
ENDROOT
BRANCH   1   7
ATOM      7  C   UNL     1       2.480  -0.097  -0.011  0.00  0.00    +0.000 C 
BRANCH   7   8
ATOM      8  N   UNL     1       1.541   0.845  -0.607  0.00  0.00    +0.000 NA
ATOM      9  H   UNL     1       1.222   1.498   0.106  0.00  0.00    +0.000 HD
ATOM     10  H   UNL     1       0.717   0.334  -0.919  0.00  0.00    +0.000 HD
ENDBRANCH   7   8
ENDBRANCH   1   7
BRANCH   5  11
ATOM     11  C   UNL     1       4.660  -1.375  -4.383  0.00  0.00    +0.000 C 
BRANCH  11  12
ATOM     12  N   UNL     1       3.727  -1.126  -5.467  0.00  0.00    +0.000 N 
ATOM     13  C   UNL     1       4.184  -0.825  -6.734  0.00  0.00    +0.000 A 
ATOM     14  C   UNL     1       5.395  -1.261  -7.274  0.00  0.00    +0.000 A 
ATOM     15  N   UNL     1       5.812  -0.982  -8.538  0.00  0.00    +0.000 NA
ATOM     16  C   UNL     1       4.940  -0.264  -9.273  0.00  0.00    +0.000 A 
ATOM     17  C   UNL     1       3.728   0.160  -8.764  0.00  0.00    +0.000 A 
ATOM     18  N   UNL     1       3.335  -0.097  -7.492  0.00  0.00    +0.000 NA
ATOM     19  H   UNL     1       2.912  -0.564  -5.252  0.00  0.00    +0.000 HD
ENDBRANCH  11  12
ENDBRANCH   5  11
TORSDOF 4
