REMARK  Name = 
REMARK  5 active torsions:
REMARK  status: ('A' for Active; 'I' for Inactive)
REMARK    1  A    between atoms: C_2  and  C_4
REMARK    2  A    between atoms: C_7  and  O_8
REMARK    3  A    between atoms: O_8  and  C_9
REMARK    4  A    between atoms: C_9  and  C_10
REMARK    5  A    between atoms: C_14  and  C_15
REMARK                            x       y       z     vdW  Elec       q    Type
REMARK                         _______ _______ _______ _____ _____    ______ ____
ROOT
ATOM      1  C   UNL     1       4.991  -3.194  -4.955  0.00  0.00    +0.000 C 
ENDROOT
BRANCH   1   2
ATOM      2  C   UNL     1       5.848  -4.197  -5.681  0.00  0.00    +0.000 A 
ATOM      3  C   UNL     1       5.551  -5.551  -5.596  0.00  0.00    +0.000 A 
ATOM      4  N   UNL     1       6.235  -6.514  -6.245  0.00  0.00    +0.000 NA
ATOM      5  C   UNL     1       7.265  -6.106  -7.025  0.00  0.00    +0.000 A 
ATOM      6  C   UNL     1       7.655  -4.778  -7.221  0.00  0.00    +0.000 A 
ATOM      7  C   UNL     1       6.902  -3.820  -6.524  0.00  0.00    +0.000 A 
BRANCH   6   8
ATOM      8  C   UNL     1       8.779  -4.403  -8.106  0.00  0.00    +0.000 A 
ATOM      9  C   UNL     1       9.092  -5.141  -9.257  0.00  0.00    +0.000 A 
ATOM     10  C   UNL     1      10.155  -4.744 -10.057  0.00  0.00    +0.000 A 
ATOM     11  N   UNL     1      10.924  -3.669  -9.805  0.00  0.00    +0.000 NA
ATOM     12  C   UNL     1      10.616  -2.966  -8.701  0.00  0.00    +0.000 A 
ATOM     13  F   UNL     1      11.361  -1.885  -8.427  0.00  0.00    +0.000 F 
ATOM     14  C   UNL     1       9.582  -3.286  -7.837  0.00  0.00    +0.000 A 
ENDBRANCH   6   8
ENDBRANCH   1   2
BRANCH   1  15
ATOM     15  O   UNL     1       5.765  -2.051  -4.571  0.00  0.00    +0.000 OA
BRANCH  15  19
ATOM     16  C   UNL     1       3.523   0.818  -2.645  0.00  0.00    +0.000 A 
ATOM     17  C   UNL     1       4.882   1.044  -2.878  0.00  0.00    +0.000 A 
ATOM     18  C   UNL     1       5.634   0.062  -3.527  0.00  0.00    +0.000 A 
ATOM     19  C   UNL     1       4.997  -1.107  -3.920  0.00  0.00    +0.000 A 
ATOM     20  N   UNL     1       3.690  -1.356  -3.695  0.00  0.00    +0.000 NA
ATOM     21  C   UNL     1       2.984  -0.393  -3.054  0.00  0.00    +0.000 A 
BRANCH  16  23
ATOM     22  N   UNL     1       2.954   3.110  -2.086  0.00  0.00    +0.000 N 
ATOM     23  C   UNL     1       2.636   1.787  -1.975  0.00  0.00    +0.000 C 
ATOM     24  O   UNL     1       1.629   1.423  -1.382  0.00  0.00    +0.000 OA
ATOM     25  H   UNL     1       2.266   3.763  -1.729  0.00  0.00    +0.000 HD
ATOM     26  H   UNL     1       3.613   3.457  -2.769  0.00  0.00    +0.000 HD
ENDBRANCH  16  23
ENDBRANCH  15  19
ENDBRANCH   1  15
TORSDOF 5
