REMARK  Name = 
REMARK  15 active torsions:
REMARK  status: ('A' for Active; 'I' for Inactive)
REMARK    1  A    between atoms: C_1  and  C_2
REMARK    2  A    between atoms: C_2  and  N_3
REMARK    3  A    between atoms: N_3  and  C_4
REMARK    4  A    between atoms: N_3  and  C_6
REMARK    5  A    between atoms: C_4  and  C_5
REMARK    6  A    between atoms: C_6  and  C_7
REMARK    7  A    between atoms: C_7  and  C_8
REMARK    8  A    between atoms: C_8  and  C_9
REMARK    9  A    between atoms: C_9  and  C_10
REMARK   10  A    between atoms: C_9  and  C_11
REMARK   11  A    between atoms: C_9  and  C_22
REMARK   12  A    between atoms: C_11  and  N_12
REMARK   13  A    between atoms: C_16  and  C_17
REMARK   14  A    between atoms: C_26  and  O_27
REMARK   15  A    between atoms: O_27  and  C_28
REMARK                            x       y       z     vdW  Elec       q    Type
REMARK                         _______ _______ _______ _____ _____    ______ ____
ROOT
ATOM      1  C   UNL     1       6.972  -3.442   2.432  0.00  0.00    +0.000 C 
ATOM      2  C   UNL     1       6.506  -3.328   3.899  0.00  0.00    +0.000 C 
ENDROOT
BRANCH   1   3
ATOM      3  C   UNL     1       8.529  -3.414   2.415  0.00  0.00    +0.000 A 
ATOM      4  C   UNL     1       9.254  -2.349   2.960  0.00  0.00    +0.000 A 
ATOM      5  C   UNL     1      10.649  -2.369   2.913  0.00  0.00    +0.000 A 
ATOM      6  C   UNL     1      11.299  -3.453   2.335  0.00  0.00    +0.000 A 
ATOM      7  C   UNL     1      10.520  -4.467   1.820  0.00  0.00    +0.000 A 
ATOM      8  N   UNL     1       9.169  -4.463   1.843  0.00  0.00    +0.000 NA
BRANCH   7   9
ATOM      9  O   UNL     1      11.193  -5.533   1.257  0.00  0.00    +0.000 OA
ATOM     10  C   UNL     1      10.314  -6.543   0.771  0.00  0.00    +0.000 C 
ENDBRANCH   7   9
ENDBRANCH   1   3
BRANCH   1  11
ATOM     11  C   UNL     1       6.476  -2.226   1.569  0.00  0.00    +0.000 C 
BRANCH  11  12
ATOM     12  C   UNL     1       4.974  -1.907   1.599  0.00  0.00    +0.000 C 
BRANCH  12  13
ATOM     13  C   UNL     1       4.523  -0.780   0.660  0.00  0.00    +0.000 C 
BRANCH  13  14
ATOM     14  N   UNL     1       4.848  -0.963  -0.768  0.00  0.00    +0.000 NA
BRANCH  14  16
ATOM     15  C   UNL     1       4.743  -2.494  -2.775  0.00  0.00    +0.000 C 
ATOM     16  C   UNL     1       4.366  -2.244  -1.316  0.00  0.00    +0.000 C 
ENDBRANCH  14  16
BRANCH  14  17
ATOM     17  C   UNL     1       4.433   0.215  -1.551  0.00  0.00    +0.000 C 
ATOM     18  C   UNL     1       2.935   0.511  -1.589  0.00  0.00    +0.000 C 
ENDBRANCH  14  17
ENDBRANCH  13  14
ENDBRANCH  12  13
ENDBRANCH  11  12
ENDBRANCH   1  11
BRANCH   1  19
ATOM     19  C   UNL     1       6.505  -4.833   1.854  0.00  0.00    +0.000 C 
BRANCH  19  20
ATOM     20  N   UNL     1       5.061  -5.076   1.935  0.00  0.00    +0.000 N 
ATOM     21  C   UNL     1       4.663  -6.254   1.312  0.00  0.00    +0.000 A 
ATOM     22  N   UNL     1       5.350  -7.390   1.461  0.00  0.00    +0.000 NA
ATOM     23  C   UNL     1       4.909  -8.457   0.761  0.00  0.00    +0.000 A 
ATOM     24  C   UNL     1       3.809  -8.431  -0.067  0.00  0.00    +0.000 A 
ATOM     25  C   UNL     1       3.172  -7.218  -0.150  0.00  0.00    +0.000 A 
ATOM     26  N   UNL     1       3.576  -6.123   0.530  0.00  0.00    +0.000 NA
ATOM     27  H   UNL     1       4.505  -4.432   1.395  0.00  0.00    +0.000 HD
BRANCH  24  28
ATOM     28  C   UNL     1       3.433  -9.627  -0.831  0.00  0.00    +0.000 C 
ATOM     29  N   UNL     1       2.145  -9.742  -1.254  0.00  0.00    +0.000 N 
ATOM     30  O   UNL     1       4.254 -10.504  -1.063  0.00  0.00    +0.000 OA
ATOM     31  H   UNL     1       1.379  -9.183  -0.900  0.00  0.00    +0.000 HD
ATOM     32  H   UNL     1       1.900 -10.624  -1.696  0.00  0.00    +0.000 HD
ENDBRANCH  24  28
ENDBRANCH  19  20
ENDBRANCH   1  19
TORSDOF 11
