REMARK  Name = 
REMARK  9 active torsions:
REMARK  status: ('A' for Active; 'I' for Inactive)
REMARK    1  A    between atoms: C_1  and  O_2
REMARK    2  A    between atoms: O_2  and  C_3
REMARK    3  A    between atoms: C_3  and  C_4
REMARK    4  A    between atoms: C_4  and  O_5
REMARK    5  A    between atoms: O_5  and  C_6
REMARK    6  A    between atoms: C_8  and  O_9
REMARK    7  A    between atoms: O_9  and  C_10
REMARK    8  A    between atoms: C_10  and  C_11
REMARK    9  A    between atoms: C_19  and  C_20
REMARK                            x       y       z     vdW  Elec       q    Type
REMARK                         _______ _______ _______ _____ _____    ______ ____
ROOT
ATOM      1  C   UNL     1       6.265   1.632  -2.304  0.00  0.00    +0.000 A 
ATOM      2  C   UNL     1       7.156   0.555  -2.240  0.00  0.00    +0.000 A 
ATOM      3  C   UNL     1       8.512   0.792  -2.392  0.00  0.00    +0.000 A 
ATOM      4  N   UNL     1       9.034   2.009  -2.625  0.00  0.00    +0.000 NA
ATOM      5  C   UNL     1       8.156   3.040  -2.700  0.00  0.00    +0.000 A 
ATOM      6  C   UNL     1       6.778   2.918  -2.541  0.00  0.00    +0.000 A 
ENDROOT
BRANCH   6   7
ATOM      7  C   UNL     1       5.985   4.173  -2.640  0.00  0.00    +0.000 C 
ATOM      8  N   UNL     1       4.637   4.111  -2.444  0.00  0.00    +0.000 N 
ATOM      9  O   UNL     1       6.522   5.248  -2.885  0.00  0.00    +0.000 OA
ATOM     10  H   UNL     1       4.170   3.237  -2.240  0.00  0.00    +0.000 HD
ATOM     11  H   UNL     1       4.100   4.963  -2.509  0.00  0.00    +0.000 HD
ENDBRANCH   6   7
BRANCH   1  12
ATOM     12  O   UNL     1       4.907   1.496  -2.142  0.00  0.00    +0.000 OA
BRANCH  12  13
ATOM     13  C   UNL     1       4.402   0.169  -1.982  0.00  0.00    +0.000 C 
BRANCH  13  14
ATOM     14  C   UNL     1       2.882   0.221  -1.885  0.00  0.00    +0.000 C 
BRANCH  14  16
ATOM     15  C   UNL     1       0.973  -1.133  -1.625  0.00  0.00    +0.000 C 
ATOM     16  O   UNL     1       2.392  -1.106  -1.719  0.00  0.00    +0.000 OA
ENDBRANCH  14  16
ENDBRANCH  13  14
ENDBRANCH  12  13
ENDBRANCH   1  12
BRANCH   3  17
ATOM     17  O   UNL     1       9.338  -0.311  -2.339  0.00  0.00    +0.000 OA
BRANCH  17  18
ATOM     18  C   UNL     1      10.683   0.038  -2.003  0.00  0.00    +0.000 C 
BRANCH  18  19
ATOM     19  C   UNL     1      11.565  -1.184  -2.034  0.00  0.00    +0.000 A 
ATOM     20  C   UNL     1      11.396  -2.217  -2.960  0.00  0.00    +0.000 A 
ATOM     21  C   UNL     1      12.289  -3.286  -2.977  0.00  0.00    +0.000 A 
ATOM     22  C   UNL     1      13.334  -3.282  -2.070  0.00  0.00    +0.000 A 
ATOM     23  N   UNL     1      13.541  -2.299  -1.169  0.00  0.00    +0.000 NA
ATOM     24  C   UNL     1      12.659  -1.274  -1.177  0.00  0.00    +0.000 A 
ENDBRANCH  18  19
ENDBRANCH  17  18
ENDBRANCH   3  17
TORSDOF 8
