REMARK  Name = 
REMARK  6 active torsions:
REMARK  status: ('A' for Active; 'I' for Inactive)
REMARK    1  A    between atoms: C_2  and  C_4
REMARK    2  A    between atoms: C_11  and  C_12
REMARK    3  A    between atoms: C_12  and  O_13
REMARK    4  A    between atoms: O_13  and  C_14
REMARK    5  A    between atoms: C_19  and  C_20
REMARK    6  A    between atoms: C_20  and  O_21
REMARK                            x       y       z     vdW  Elec       q    Type
REMARK                         _______ _______ _______ _____ _____    ______ ____
ROOT
ATOM      1  C   UNL     1       3.572  -4.170   1.866  0.00  0.00    +0.000 C 
ATOM      2  C   UNL     1       4.532  -2.983   1.674  0.00  0.00    +0.000 C 
ATOM      3  C   UNL     1       3.964  -1.623   2.099  0.00  0.00    +0.000 C 
ATOM      4  C   UNL     1       2.536  -1.405   1.594  0.00  0.00    +0.000 C 
ATOM      5  N   UNL     1       1.758  -2.553   2.046  0.00  0.00    +0.000 N 
ATOM      6  C   UNL     1       0.478  -2.365   2.536  0.00  0.00    +0.000 A 
ATOM      7  C   UNL     1      -0.101  -3.347   3.342  0.00  0.00    +0.000 A 
ATOM      8  C   UNL     1      -1.341  -3.140   3.945  0.00  0.00    +0.000 A 
ATOM      9  C   UNL     1      -1.987  -1.928   3.720  0.00  0.00    +0.000 A 
ATOM     10  C   UNL     1      -1.364  -1.003   2.900  0.00  0.00    +0.000 A 
ATOM     11  N   UNL     1      -0.153  -1.192   2.327  0.00  0.00    +0.000 NA
ATOM     12  C   UNL     1       2.141  -3.832   1.444  0.00  0.00    +0.000 C 
ENDROOT
BRANCH   1  14
ATOM     13  N   UNL     1       3.222  -3.912   4.292  0.00  0.00    +0.000 N 
ATOM     14  C   UNL     1       3.602  -4.738   3.278  0.00  0.00    +0.000 C 
ATOM     15  O   UNL     1       3.942  -5.890   3.517  0.00  0.00    +0.000 OA
ATOM     16  H   UNL     1       3.156  -4.310   5.218  0.00  0.00    +0.000 HD
ATOM     17  H   UNL     1       2.668  -3.086   4.086  0.00  0.00    +0.000 HD
ENDBRANCH   1  14
BRANCH   8  18
ATOM     18  C   UNL     1      -1.949  -4.204   4.822  0.00  0.00    +0.000 C 
BRANCH  18  19
ATOM     19  O   UNL     1      -1.472  -4.063   6.164  0.00  0.00    +0.000 OA
BRANCH  19  20
ATOM     20  C   UNL     1      -2.121  -4.928   7.028  0.00  0.00    +0.000 A 
ATOM     21  N   UNL     1      -3.322  -5.420   6.642  0.00  0.00    +0.000 NA
ATOM     22  C   UNL     1      -3.956  -6.255   7.488  0.00  0.00    +0.000 A 
ATOM     23  C   UNL     1      -3.443  -6.635   8.711  0.00  0.00    +0.000 A 
ATOM     24  C   UNL     1      -2.212  -6.112   9.094  0.00  0.00    +0.000 A 
ATOM     25  C   UNL     1      -1.532  -5.212   8.259  0.00  0.00    +0.000 A 
BRANCH  25  26
ATOM     26  C   UNL     1      -0.183  -4.673   8.640  0.00  0.00    +0.000 C 
BRANCH  26  27
ATOM     27  O   UNL     1      -0.070  -4.512  10.054  0.00  0.00    +0.000 OA
ATOM     28  H   UNL     1      -0.732  -3.847  10.312  0.00  0.00    +0.000 HD
ENDBRANCH  26  27
ENDBRANCH  25  26
ENDBRANCH  19  20
ENDBRANCH  18  19
ENDBRANCH   8  18
TORSDOF 6
