REMARK  Name = 
REMARK  4 active torsions:
REMARK  status: ('A' for Active; 'I' for Inactive)
REMARK    1  A    between atoms: C_2  and  C_4
REMARK    2  A    between atoms: C_7  and  C_8
REMARK    3  A    between atoms: C_8  and  C_9
REMARK    4  A    between atoms: C_14  and  C_15
REMARK                            x       y       z     vdW  Elec       q    Type
REMARK                         _______ _______ _______ _____ _____    ______ ____
ROOT
ATOM      1  C   UNL     1       4.532  -3.857   3.426  0.00  0.00    +0.000 C 
ATOM      2  C   UNL     1       5.379  -5.111   3.180  0.00  0.00    +0.000 C 
ATOM      3  C   UNL     1       4.027  -5.248   3.784  0.00  0.00    +0.000 C 
ENDROOT
BRANCH   1   7
ATOM      4  C   UNL     1       2.944  -2.010  -0.021  0.00  0.00    +0.000 A 
ATOM      5  C   UNL     1       4.300  -2.164   0.133  0.00  0.00    +0.000 A 
ATOM      6  N   UNL     1       4.844  -2.743   1.226  0.00  0.00    +0.000 NA
ATOM      7  C   UNL     1       3.974  -3.168   2.177  0.00  0.00    +0.000 A 
ATOM      8  N   UNL     1       2.629  -2.990   2.066  0.00  0.00    +0.000 NA
ATOM      9  N   UNL     1       2.100  -2.409   0.949  0.00  0.00    +0.000 NA
BRANCH   4  11
ATOM     10  N   UNL     1       1.002  -1.374  -1.315  0.00  0.00    +0.000 N 
ATOM     11  C   UNL     1       2.364  -1.472  -1.266  0.00  0.00    +0.000 C 
ATOM     12  O   UNL     1       3.069  -1.151  -2.219  0.00  0.00    +0.000 OA
ATOM     13  H   UNL     1       0.560  -1.074  -2.176  0.00  0.00    +0.000 HD
ATOM     14  H   UNL     1       0.421  -1.671  -0.538  0.00  0.00    +0.000 HD
ENDBRANCH   4  11
ENDBRANCH   1   7
BRANCH   1  15
ATOM     15  C   UNL     1       4.987  -2.867   4.505  0.00  0.00    +0.000 A 
ATOM     16  C   UNL     1       6.341  -2.450   4.495  0.00  0.00    +0.000 A 
ATOM     17  C   UNL     1       6.789  -1.352   5.228  0.00  0.00    +0.000 A 
ATOM     18  C   UNL     1       5.894  -0.628   5.998  0.00  0.00    +0.000 A 
ATOM     19  C   UNL     1       4.574  -1.058   6.096  0.00  0.00    +0.000 A 
ATOM     20  C   UNL     1       4.110  -2.191   5.388  0.00  0.00    +0.000 A 
BRANCH  20  21
ATOM     21  C   UNL     1       2.661  -2.569   5.614  0.00  0.00    +0.000 C 
ATOM     22  F   UNL     1       2.243  -3.715   5.019  0.00  0.00    +0.000 F 
ATOM     23  F   UNL     1       2.392  -2.741   6.942  0.00  0.00    +0.000 F 
ATOM     24  F   UNL     1       1.801  -1.596   5.196  0.00  0.00    +0.000 F 
ENDBRANCH  20  21
ENDBRANCH   1  15
TORSDOF 4
