REMARK  Name = 
REMARK  11 active torsions:
REMARK  status: ('A' for Active; 'I' for Inactive)
REMARK    1  A    between atoms: N_1  and  C_2
REMARK    2  A    between atoms: C_2  and  C_3
REMARK    3  A    between atoms: C_3  and  N_4
REMARK    4  A    between atoms: C_3  and  C_20
REMARK    5  A    between atoms: C_5  and  C_7
REMARK    6  A    between atoms: N_13  and  C_14
REMARK    7  A    between atoms: C_14  and  C_15
REMARK    8  A    between atoms: C_15  and  O_16
REMARK    9  A    between atoms: C_23  and  O_24
REMARK   10  A    between atoms: O_24  and  C_25
REMARK   11  A    between atoms: C_25  and  C_26
REMARK                            x       y       z     vdW  Elec       q    Type
REMARK                         _______ _______ _______ _____ _____    ______ ____
ROOT
ATOM      1  C   UNL     1       2.873  -1.200  -0.512  0.00  0.00    +0.000 C 
ENDROOT
BRANCH   1   2
ATOM      2  C   UNL     1       4.403  -1.227  -0.545  0.00  0.00    +0.000 A 
ATOM      3  C   UNL     1       5.128  -1.858   0.476  0.00  0.00    +0.000 A 
ATOM      4  C   UNL     1       6.524  -1.772   0.514  0.00  0.00    +0.000 A 
ATOM      5  C   UNL     1       7.216  -1.096  -0.491  0.00  0.00    +0.000 A 
ATOM      6  C   UNL     1       6.507  -0.446  -1.495  0.00  0.00    +0.000 A 
ATOM      7  C   UNL     1       5.117  -0.498  -1.507  0.00  0.00    +0.000 A 
BRANCH   5   8
ATOM      8  O   UNL     1       8.581  -1.100  -0.396  0.00  0.00    +0.000 OA
BRANCH   8   9
ATOM      9  C   UNL     1       9.255  -0.954  -1.655  0.00  0.00    +0.000 C 
BRANCH   9  10
ATOM     10  C   UNL     1      10.656  -1.510  -1.614  0.00  0.00    +0.000 A 
ATOM     11  C   UNL     1      11.005  -2.524  -0.728  0.00  0.00    +0.000 A 
ATOM     12  C   UNL     1      12.279  -3.077  -0.804  0.00  0.00    +0.000 A 
ATOM     13  C   UNL     1      13.162  -2.615  -1.768  0.00  0.00    +0.000 A 
ATOM     14  C   UNL     1      12.741  -1.604  -2.615  0.00  0.00    +0.000 A 
ATOM     15  N   UNL     1      11.513  -1.048  -2.565  0.00  0.00    +0.000 NA
ENDBRANCH   9  10
ENDBRANCH   8   9
ENDBRANCH   5   8
ENDBRANCH   1   2
BRANCH   1  16
ATOM     16  N   UNL     1       2.327  -1.415  -1.854  0.00  0.00    +0.000 N 
ATOM     17  C   UNL     1       0.994  -1.586  -2.122  0.00  0.00    +0.000 C 
ATOM     18  O   UNL     1       0.147  -1.600  -1.235  0.00  0.00    +0.000 OA
ATOM     19  H   UNL     1       2.973  -1.366  -2.632  0.00  0.00    +0.000 HD
BRANCH  17  20
ATOM     20  C   UNL     1       0.621  -1.783  -3.534  0.00  0.00    +0.000 A 
ATOM     21  C   UNL     1      -0.587  -2.391  -3.845  0.00  0.00    +0.000 A 
ATOM     22  S   UNL     1      -0.870  -2.545  -5.520  0.00  0.00    +0.000 S 
ATOM     23  C   UNL     1       0.595  -1.769  -5.897  0.00  0.00    +0.000 A 
ATOM     24  N   UNL     1       0.955  -1.544  -7.188  0.00  0.00    +0.000 NA
ATOM     25  C   UNL     1       2.071  -0.905  -7.335  0.00  0.00    +0.000 A 
ATOM     26  N   UNL     1       2.884  -0.476  -6.306  0.00  0.00    +0.000 N 
ATOM     27  C   UNL     1       2.568  -0.750  -4.980  0.00  0.00    +0.000 A 
ATOM     28  O   UNL     1       3.333  -0.478  -4.062  0.00  0.00    +0.000 OA
ATOM     29  C   UNL     1       1.304  -1.422  -4.763  0.00  0.00    +0.000 A 
BRANCH  26  30
ATOM     30  C   UNL     1       4.146   0.207  -6.594  0.00  0.00    +0.000 C 
BRANCH  30  31
ATOM     31  C   UNL     1       5.331  -0.760  -6.638  0.00  0.00    +0.000 C 
BRANCH  31  32
ATOM     32  O   UNL     1       5.184  -1.672  -7.722  0.00  0.00    +0.000 OA
ATOM     33  H   UNL     1       4.598  -2.391  -7.426  0.00  0.00    +0.000 HD
ENDBRANCH  31  32
ENDBRANCH  30  31
ENDBRANCH  26  30
ENDBRANCH  17  20
ENDBRANCH   1  16
BRANCH   1  34
ATOM     34  C   UNL     1       2.404   0.150   0.115  0.00  0.00    +0.000 C 
BRANCH  34  35
ATOM     35  N   UNL     1       2.912   0.405   1.474  0.00  0.00    +0.000 NA
ATOM     36  H   UNL     1       2.745   1.382   1.711  0.00  0.00    +0.000 HD
ATOM     37  H   UNL     1       3.927   0.292   1.482  0.00  0.00    +0.000 HD
ENDBRANCH  34  35
ENDBRANCH   1  34
TORSDOF 11
