REMARK  Name = 
REMARK  6 active torsions:
REMARK  status: ('A' for Active; 'I' for Inactive)
REMARK    1  A    between atoms: N_1  and  C_2
REMARK    2  A    between atoms: C_2  and  C_3
REMARK    3  A    between atoms: C_6  and  N_7
REMARK    4  A    between atoms: N_7  and  C_8
REMARK    5  A    between atoms: C_8  and  C_9
REMARK    6  A    between atoms: C_11  and  C_12
REMARK                            x       y       z     vdW  Elec       q    Type
REMARK                         _______ _______ _______ _____ _____    ______ ____
ROOT
ATOM      1  N   UNL     1       3.815  -0.464   5.599  0.00  0.00    +0.000 N 
ATOM      2  H   UNL     1       4.273  -1.358   5.767  0.00  0.00    +0.000 HD
ENDROOT
BRANCH   1   6
ATOM      3  C   UNL     1       2.996   0.123   1.498  0.00  0.00    +0.000 A 
ATOM      4  C   UNL     1       4.122   0.727   2.074  0.00  0.00    +0.000 A 
ATOM      5  C   UNL     1       4.429   0.526   3.424  0.00  0.00    +0.000 A 
ATOM      6  C   UNL     1       3.603  -0.256   4.234  0.00  0.00    +0.000 A 
ATOM      7  C   UNL     1       2.532  -0.927   3.635  0.00  0.00    +0.000 A 
ATOM      8  C   UNL     1       2.215  -0.726   2.289  0.00  0.00    +0.000 A 
BRANCH   3   9
ATOM      9  C   UNL     1       2.611   0.414   0.071  0.00  0.00    +0.000 C 
BRANCH   9  10
ATOM     10  N   UNL     1       3.675   0.063  -0.861  0.00  0.00    +0.000 NA
ATOM     11  H   UNL     1       3.322   0.151  -1.812  0.00  0.00    +0.000 HD
ATOM     12  H   UNL     1       3.910  -0.920  -0.730  0.00  0.00    +0.000 HD
ENDBRANCH   9  10
ENDBRANCH   3   9
ENDBRANCH   1   6
BRANCH   1  13
ATOM     13  C   UNL     1       4.449   0.611   6.365  0.00  0.00    +0.000 C 
BRANCH  13  14
ATOM     14  C   UNL     1       3.952   0.572   7.798  0.00  0.00    +0.000 A 
ATOM     15  C   UNL     1       2.583   0.667   8.052  0.00  0.00    +0.000 A 
ATOM     16  C   UNL     1       2.124   0.633   9.372  0.00  0.00    +0.000 A 
ATOM     17  C   UNL     1       3.066   0.513  10.397  0.00  0.00    +0.000 A 
ATOM     18  C   UNL     1       4.407   0.429  10.060  0.00  0.00    +0.000 A 
ATOM     19  N   UNL     1       4.867   0.456   8.791  0.00  0.00    +0.000 NA
BRANCH  16  20
ATOM     20  C   UNL     1       0.655   0.716   9.688  0.00  0.00    +0.000 C 
ATOM     21  F   UNL     1      -0.137   0.832   8.589  0.00  0.00    +0.000 F 
ATOM     22  F   UNL     1       0.206  -0.380  10.359  0.00  0.00    +0.000 F 
ATOM     23  F   UNL     1       0.356   1.785  10.478  0.00  0.00    +0.000 F 
ENDBRANCH  16  20
ENDBRANCH  13  14
ENDBRANCH   1  13
TORSDOF 6
