REMARK  Name = 
REMARK  13 active torsions:
REMARK  status: ('A' for Active; 'I' for Inactive)
REMARK    1  A    between atoms: C_1  and  N_2
REMARK    2  A    between atoms: C_4  and  C_5
REMARK    3  A    between atoms: C_5  and  C_6
REMARK    4  A    between atoms: C_9  and  O_10
REMARK    5  A    between atoms: O_10  and  C_11
REMARK    6  A    between atoms: C_11  and  C_12
REMARK    7  A    between atoms: C_12  and  N_13
REMARK    8  A    between atoms: C_12  and  C_14
REMARK    9  A    between atoms: C_14  and  O_15
REMARK   10  A    between atoms: O_15  and  C_16
REMARK   11  A    between atoms: C_16  and  C_17
REMARK   12  A    between atoms: C_16  and  C_18
REMARK   13  A    between atoms: C_16  and  C_19
REMARK                            x       y       z     vdW  Elec       q    Type
REMARK                         _______ _______ _______ _____ _____    ______ ____
ROOT
ATOM      1  C   UNL     1       5.181   3.135  -0.065  0.00  0.00    +0.000 A 
ATOM      2  C   UNL     1       5.340   3.892  -1.224  0.00  0.00    +0.000 A 
ATOM      3  C   UNL     1       4.806   5.182  -1.272  0.00  0.00    +0.000 A 
ATOM      4  C   UNL     1       4.134   5.694  -0.169  0.00  0.00    +0.000 A 
ATOM      5  C   UNL     1       4.045   4.880   0.954  0.00  0.00    +0.000 A 
ATOM      6  N   UNL     1       4.533   3.618   1.026  0.00  0.00    +0.000 NA
ENDROOT
BRANCH   1   7
ATOM      7  C   UNL     1       5.682   1.711   0.005  0.00  0.00    +0.000 C 
BRANCH   7  11
ATOM      8  C   UNL     1       9.862   1.742   2.790  0.00  0.00    +0.000 C 
ATOM      9  N   UNL     1       8.980   1.768   1.645  0.00  0.00    +0.000 N 
ATOM     10  C   UNL     1       7.613   1.704   1.710  0.00  0.00    +0.000 A 
ATOM     11  C   UNL     1       7.110   1.770   0.420  0.00  0.00    +0.000 A 
ATOM     12  C   UNL     1       8.234   1.855  -0.447  0.00  0.00    +0.000 A 
ATOM     13  N   UNL     1       8.251   1.921  -1.802  0.00  0.00    +0.000 NA
ATOM     14  C   UNL     1       9.483   1.992  -2.348  0.00  0.00    +0.000 A 
ATOM     15  C   UNL     1      10.680   1.996  -1.647  0.00  0.00    +0.000 A 
ATOM     16  C   UNL     1      10.655   1.924  -0.257  0.00  0.00    +0.000 A 
ATOM     17  C   UNL     1       9.389   1.852   0.334  0.00  0.00    +0.000 A 
ENDBRANCH   7  11
ENDBRANCH   1   7
BRANCH   4  18
ATOM     18  O   UNL     1       3.621   6.953  -0.311  0.00  0.00    +0.000 OA
BRANCH  18  19
ATOM     19  C   UNL     1       2.935   7.479   0.833  0.00  0.00    +0.000 C 
BRANCH  19  20
ATOM     20  C   UNL     1       2.395   8.885   0.505  0.00  0.00    +0.000 C 
BRANCH  20  21
ATOM     21  N   UNL     1       1.474   8.860  -0.655  0.00  0.00    +0.000 NA
ATOM     22  H   UNL     1       0.676   8.262  -0.443  0.00  0.00    +0.000 HD
ATOM     23  H   UNL     1       1.961   8.389  -1.423  0.00  0.00    +0.000 HD
ENDBRANCH  20  21
BRANCH  20  24
ATOM     24  C   UNL     1       1.679   9.487   1.728  0.00  0.00    +0.000 C 
BRANCH  24  25
ATOM     25  O   UNL     1       2.567   9.565   2.847  0.00  0.00    +0.000 OA
BRANCH  25  26
ATOM     26  C   UNL     1       2.019  10.120   4.057  0.00  0.00    +0.000 C 
ATOM     27  C   UNL     1       0.938   9.205   4.647  0.00  0.00    +0.000 C 
ATOM     28  C   UNL     1       3.185  10.195   5.056  0.00  0.00    +0.000 C 
ATOM     29  C   UNL     1       1.480  11.540   3.840  0.00  0.00    +0.000 C 
ENDBRANCH  25  26
ENDBRANCH  24  25
ENDBRANCH  20  24
ENDBRANCH  19  20
ENDBRANCH  18  19
ENDBRANCH   4  18
TORSDOF 9
