REMARK  Name = 
REMARK  4 active torsions:
REMARK  status: ('A' for Active; 'I' for Inactive)
REMARK    1  A    between atoms: C_2  and  C_12
REMARK    2  A    between atoms: N_3  and  C_4
REMARK    3  A    between atoms: C_4  and  C_5
REMARK    4  A    between atoms: C_5  and  N_6
REMARK                            x       y       z     vdW  Elec       q    Type
REMARK                         _______ _______ _______ _____ _____    ______ ____
ROOT
ATOM      1  O   UNL     1       2.829  -2.337  -1.344  0.00  0.00    +0.000 OA
ATOM      2  C   UNL     1       3.236  -1.290  -0.862  0.00  0.00    +0.000 C 
ATOM      3  N   UNL     1       3.240  -1.045   0.499  0.00  0.00    +0.000 N 
ATOM      4  H   UNL     1       3.328  -0.083   0.799  0.00  0.00    +0.000 HD
ENDROOT
BRANCH   2   5
ATOM      5  C   UNL     1       3.783  -0.219  -1.691  0.00  0.00    +0.000 A 
ATOM      6  C   UNL     1       4.820   0.610  -1.296  0.00  0.00    +0.000 A 
ATOM      7  S   UNL     1       5.328   1.680  -2.529  0.00  0.00    +0.000 S 
ATOM      8  C   UNL     1       4.178   1.060  -3.622  0.00  0.00    +0.000 A 
ATOM      9  N   UNL     1       4.090   1.529  -4.895  0.00  0.00    +0.000 NA
ATOM     10  C   UNL     1       3.190   0.943  -5.614  0.00  0.00    +0.000 A 
ATOM     11  N   UNL     1       2.362  -0.056  -5.173  0.00  0.00    +0.000 N 
ATOM     12  C   UNL     1       2.343  -0.493  -3.866  0.00  0.00    +0.000 A 
ATOM     13  O   UNL     1       1.452  -1.232  -3.468  0.00  0.00    +0.000 OA
ATOM     14  C   UNL     1       3.398   0.075  -3.046  0.00  0.00    +0.000 A 
ATOM     15  H   UNL     1       1.635  -0.430  -5.766  0.00  0.00    +0.000 HD
ENDBRANCH   2   5
BRANCH   3  16
ATOM     16  C   UNL     1       2.587  -1.972   1.411  0.00  0.00    +0.000 C 
BRANCH  16  17
ATOM     17  C   UNL     1       3.231  -3.380   1.445  0.00  0.00    +0.000 C 
BRANCH  17  18
ATOM     18  N   UNL     1       2.547  -4.356   2.322  0.00  0.00    +0.000 NA
ATOM     19  C   UNL     1       3.217  -5.682   2.244  0.00  0.00    +0.000 C 
ATOM     20  C   UNL     1       2.968  -6.459   0.931  0.00  0.00    +0.000 C 
ATOM     21  O   UNL     1       1.573  -6.564   0.617  0.00  0.00    +0.000 OA
ATOM     22  C   UNL     1       0.958  -5.269   0.587  0.00  0.00    +0.000 C 
ATOM     23  C   UNL     1       1.129  -4.575   1.947  0.00  0.00    +0.000 C 
ENDBRANCH  17  18
ENDBRANCH  16  17
ENDBRANCH   3  16
TORSDOF 4
