REMARK  Name = 
REMARK  8 active torsions:
REMARK  status: ('A' for Active; 'I' for Inactive)
REMARK    1  A    between atoms: C_1  and  C_2
REMARK    2  A    between atoms: C_2  and  O_3
REMARK    3  A    between atoms: C_5  and  O_6
REMARK    4  A    between atoms: O_6  and  C_7
REMARK    5  A    between atoms: C_9  and  C_10
REMARK    6  A    between atoms: C_11  and  C_12
REMARK    7  A    between atoms: C_15  and  C_16
REMARK    8  A    between atoms: C_22  and  C_23
REMARK                            x       y       z     vdW  Elec       q    Type
REMARK                         _______ _______ _______ _____ _____    ______ ____
ROOT
ATOM      1  C   UNL     1       6.365  -0.954   0.626  0.00  0.00    +0.000 A 
ATOM      2  C   UNL     1       6.104  -2.327   0.560  0.00  0.00    +0.000 A 
ATOM      3  C   UNL     1       7.123  -3.249   0.820  0.00  0.00    +0.000 A 
ATOM      4  C   UNL     1       8.409  -2.789   1.134  0.00  0.00    +0.000 A 
ATOM      5  C   UNL     1       8.685  -1.413   1.180  0.00  0.00    +0.000 A 
ATOM      6  C   UNL     1       7.650  -0.504   0.920  0.00  0.00    +0.000 A 
ENDROOT
BRANCH   5   7
ATOM      7  C   UNL     1      10.056  -0.872   1.487  0.00  0.00    +0.000 C 
ATOM      8  F   UNL     1      10.992  -1.834   1.705  0.00  0.00    +0.000 F 
ATOM      9  F   UNL     1      10.540  -0.094   0.478  0.00  0.00    +0.000 F 
ATOM     10  F   UNL     1      10.061  -0.081   2.597  0.00  0.00    +0.000 F 
ENDBRANCH   5   7
BRANCH   3  11
ATOM     11  C   UNL     1       6.870  -4.665   0.770  0.00  0.00    +0.000 C 
ATOM     12  C   UNL     1       6.679  -5.851   0.730  0.00  0.00    +0.000 C 
BRANCH  12  13
ATOM     13  C   UNL     1       6.477  -7.268   0.693  0.00  0.00    +0.000 A 
ATOM     14  C   UNL     1       5.240  -7.831   0.449  0.00  0.00    +0.000 A 
ATOM     15  N   UNL     1       5.008  -9.165   0.405  0.00  0.00    +0.000 NA
ATOM     16  C   UNL     1       6.091  -9.952   0.620  0.00  0.00    +0.000 A 
ATOM     17  N   UNL     1       7.342  -9.511   0.868  0.00  0.00    +0.000 NA
ATOM     18  C   UNL     1       7.501  -8.170   0.897  0.00  0.00    +0.000 A 
BRANCH  16  19
ATOM     19  C   UNL     1       5.869 -11.449   0.576  0.00  0.00    +0.000 C 
ATOM     20  N   UNL     1       4.580 -11.863   0.320  0.00  0.00    +0.000 N 
ATOM     21  O   UNL     1       6.755 -12.278   0.752  0.00  0.00    +0.000 OA
ATOM     22  H   UNL     1       3.842 -11.185   0.171  0.00  0.00    +0.000 HD
ATOM     23  H   UNL     1       4.385 -12.853   0.280  0.00  0.00    +0.000 HD
ENDBRANCH  16  19
ENDBRANCH  12  13
ENDBRANCH   3  11
BRANCH   1  24
ATOM     24  O   UNL     1       5.319  -0.095   0.382  0.00  0.00    +0.000 OA
BRANCH  24  28
ATOM     25  C   UNL     1       3.157   2.354   3.476  0.00  0.00    +0.000 C 
ATOM     26  C   UNL     1       3.737   1.404   2.442  0.00  0.00    +0.000 C 
ATOM     27  C   UNL     1       5.264   1.180   2.590  0.00  0.00    +0.000 C 
ATOM     28  C   UNL     1       5.359   1.199   1.043  0.00  0.00    +0.000 C 
ATOM     29  C   UNL     1       4.043   2.011   1.047  0.00  0.00    +0.000 C 
BRANCH  26  30
ATOM     30  O   UNL     1       2.927   0.208   2.397  0.00  0.00    +0.000 OA
ATOM     31  H   UNL     1       3.029  -0.210   3.268  0.00  0.00    +0.000 HD
ENDBRANCH  26  30
ENDBRANCH  24  28
ENDBRANCH   1  24
TORSDOF 7
