REMARK  Name = 
REMARK  5 active torsions:
REMARK  status: ('A' for Active; 'I' for Inactive)
REMARK    1  A    between atoms: C_2  and  C_4
REMARK    2  A    between atoms: N_8  and  C_9
REMARK    3  A    between atoms: C_9  and  C_10
REMARK    4  A    between atoms: C_10  and  C_11
REMARK    5  A    between atoms: C_15  and  N_16
REMARK                            x       y       z     vdW  Elec       q    Type
REMARK                         _______ _______ _______ _____ _____    ______ ____
ROOT
ATOM      1  C   UNL     1       5.194   4.063  -4.478  0.00  0.00    +0.000 C 
ENDROOT
BRANCH   1   6
ATOM      2  C   UNL     1       4.372   1.225  -0.320  0.00  0.00    +0.000 A 
ATOM      3  C   UNL     1       4.040   2.540  -0.622  0.00  0.00    +0.000 A 
ATOM      4  C   UNL     1       4.438   3.074  -1.844  0.00  0.00    +0.000 A 
ATOM      5  C   UNL     1       5.160   2.295  -2.747  0.00  0.00    +0.000 A 
ATOM      6  N   UNL     1       5.564   2.760  -3.974  0.00  0.00    +0.000 N 
ATOM      7  N   UNL     1       5.510   1.028  -2.452  0.00  0.00    +0.000 NA
ATOM      8  C   UNL     1       5.122   0.522  -1.250  0.00  0.00    +0.000 A 
ATOM      9  H   UNL     1       6.063   2.086  -4.540  0.00  0.00    +0.000 HD
BRANCH   2  11
ATOM     10  N   UNL     1       2.831   1.041   1.547  0.00  0.00    +0.000 N 
ATOM     11  C   UNL     1       3.966   0.572   0.941  0.00  0.00    +0.000 C 
ATOM     12  O   UNL     1       4.596  -0.367   1.406  0.00  0.00    +0.000 OA
ATOM     13  H   UNL     1       2.505   0.521   2.352  0.00  0.00    +0.000 HD
ATOM     14  H   UNL     1       2.164   1.636   1.072  0.00  0.00    +0.000 HD
ENDBRANCH   2  11
ENDBRANCH   1   6
BRANCH   1  15
ATOM     15  C   UNL     1       5.681   4.308  -5.907  0.00  0.00    +0.000 C 
BRANCH  15  16
ATOM     16  C   UNL     1       5.270   5.702  -6.325  0.00  0.00    +0.000 A 
ATOM     17  C   UNL     1       4.057   5.917  -6.983  0.00  0.00    +0.000 A 
ATOM     18  C   UNL     1       3.632   7.215  -7.237  0.00  0.00    +0.000 A 
ATOM     19  C   UNL     1       4.410   8.301  -6.825  0.00  0.00    +0.000 A 
ATOM     20  C   UNL     1       5.632   8.132  -6.158  0.00  0.00    +0.000 A 
ATOM     21  C   UNL     1       6.046   6.810  -5.934  0.00  0.00    +0.000 A 
BRANCH  20  22
ATOM     22  N   UNL     1       6.384   9.218  -5.752  0.00  0.00    +0.000 N 
ATOM     23  C   UNL     1       5.755  10.426  -5.214  0.00  0.00    +0.000 C 
ATOM     24  C   UNL     1       6.295  11.644  -5.959  0.00  0.00    +0.000 C 
ATOM     25  C   UNL     1       7.823  11.684  -5.914  0.00  0.00    +0.000 C 
ATOM     26  C   UNL     1       8.428  10.364  -6.392  0.00  0.00    +0.000 C 
ATOM     27  C   UNL     1       7.841   9.166  -5.642  0.00  0.00    +0.000 C 
ENDBRANCH  20  22
ENDBRANCH  15  16
ENDBRANCH   1  15
TORSDOF 5
