REMARK  Name = 
REMARK  6 active torsions:
REMARK  status: ('A' for Active; 'I' for Inactive)
REMARK    1  A    between atoms: C_2  and  C_5
REMARK    2  A    between atoms: C_9  and  N_10
REMARK    3  A    between atoms: N_10  and  C_11
REMARK    4  A    between atoms: C_11  and  C_12
REMARK    5  A    between atoms: C_16  and  C_17
REMARK    6  A    between atoms: C_21  and  C_22
REMARK                            x       y       z     vdW  Elec       q    Type
REMARK                         _______ _______ _______ _____ _____    ______ ____
ROOT
ATOM      1  C   UNL     1       4.171   4.517  -4.762  0.00  0.00    +0.000 A 
ATOM      2  C   UNL     1       4.729   4.245  -6.010  0.00  0.00    +0.000 A 
ATOM      3  C   UNL     1       4.946   5.305  -6.876  0.00  0.00    +0.000 A 
ATOM      4  N   UNL     1       4.665   6.595  -6.583  0.00  0.00    +0.000 NA
ATOM      5  C   UNL     1       4.159   6.867  -5.355  0.00  0.00    +0.000 A 
ATOM      6  C   UNL     1       3.903   5.851  -4.433  0.00  0.00    +0.000 A 
ENDROOT
BRANCH   5   7
ATOM      7  C   UNL     1       3.883   8.289  -5.061  0.00  0.00    +0.000 A 
ATOM      8  C   UNL     1       4.005   8.805  -3.764  0.00  0.00    +0.000 A 
ATOM      9  C   UNL     1       3.702  10.133  -3.526  0.00  0.00    +0.000 A 
ATOM     10  N   UNL     1       3.289  10.988  -4.481  0.00  0.00    +0.000 NA
ATOM     11  C   UNL     1       3.183  10.512  -5.754  0.00  0.00    +0.000 A 
ATOM     12  C   UNL     1       3.476   9.181  -6.068  0.00  0.00    +0.000 A 
BRANCH  11  13
ATOM     13  C   UNL     1       2.714  11.450  -6.858  0.00  0.00    +0.000 C 
ATOM     14  F   UNL     1       2.423  12.714  -6.435  0.00  0.00    +0.000 F 
ATOM     15  F   UNL     1       3.638  11.597  -7.851  0.00  0.00    +0.000 F 
ATOM     16  F   UNL     1       1.582  11.001  -7.478  0.00  0.00    +0.000 F 
ENDBRANCH  11  13
ENDBRANCH   5   7
BRANCH   1  17
ATOM     17  C   UNL     1       3.840   3.417  -3.784  0.00  0.00    +0.000 C 
BRANCH  17  18
ATOM     18  N   UNL     1       4.923   3.242  -2.832  0.00  0.00    +0.000 N 
ATOM     19  H   UNL     1       5.849   3.260  -3.256  0.00  0.00    +0.000 HD
BRANCH  18  24
ATOM     20  C   UNL     1       3.563   0.764  -0.376  0.00  0.00    +0.000 A 
ATOM     21  C   UNL     1       4.712   0.583   0.374  0.00  0.00    +0.000 A 
ATOM     22  N   UNL     1       5.879   1.204   0.107  0.00  0.00    +0.000 NA
ATOM     23  C   UNL     1       5.895   2.044  -0.961  0.00  0.00    +0.000 A 
ATOM     24  C   UNL     1       4.815   2.292  -1.813  0.00  0.00    +0.000 A 
ATOM     25  C   UNL     1       3.626   1.644  -1.470  0.00  0.00    +0.000 A 
BRANCH  20  27
ATOM     26  F   UNL     1       2.398  -0.757   1.062  0.00  0.00    +0.000 F 
ATOM     27  C   UNL     1       2.296   0.048  -0.030  0.00  0.00    +0.000 C 
ATOM     28  F   UNL     1       1.861  -0.752  -1.044  0.00  0.00    +0.000 F 
ATOM     29  F   UNL     1       1.268   0.904   0.230  0.00  0.00    +0.000 F 
ENDBRANCH  20  27
ENDBRANCH  18  24
ENDBRANCH  17  18
ENDBRANCH   1  17
TORSDOF 6
