REMARK  Name = 
REMARK  8 active torsions:
REMARK  status: ('A' for Active; 'I' for Inactive)
REMARK    1  A    between atoms: C_1  and  O_2
REMARK    2  A    between atoms: O_2  and  C_3
REMARK    3  A    between atoms: C_5  and  C_6
REMARK    4  A    between atoms: C_6  and  N_7
REMARK    5  A    between atoms: C_8  and  C_10
REMARK    6  A    between atoms: C_17  and  C_18
REMARK    7  A    between atoms: C_18  and  N_19
REMARK    8  A    between atoms: C_20  and  C_22
REMARK                            x       y       z     vdW  Elec       q    Type
REMARK                         _______ _______ _______ _____ _____    ______ ____
ROOT
ATOM      1  C   UNL     1       3.086  -0.747  -0.849  0.00  0.00    +0.000 A 
ATOM      2  C   UNL     1       2.828  -0.643  -2.224  0.00  0.00    +0.000 A 
ATOM      3  C   UNL     1       3.591  -1.354  -3.164  0.00  0.00    +0.000 A 
ATOM      4  C   UNL     1       4.608  -2.195  -2.707  0.00  0.00    +0.000 A 
ATOM      5  C   UNL     1       4.876  -2.302  -1.340  0.00  0.00    +0.000 A 
ATOM      6  C   UNL     1       4.132  -1.571  -0.397  0.00  0.00    +0.000 A 
ENDROOT
BRANCH   1   8
ATOM      7  C   UNL     1       1.103   0.425  -0.258  0.00  0.00    +0.000 C 
ATOM      8  O   UNL     1       2.389  -0.060   0.111  0.00  0.00    +0.000 OA
ENDBRANCH   1   8
BRANCH   3   9
ATOM      9  C   UNL     1       3.285  -1.244  -4.635  0.00  0.00    +0.000 C 
BRANCH   9  10
ATOM     10  N   UNL     1       2.345  -2.257  -5.042  0.00  0.00    +0.000 N 
ATOM     11  C   UNL     1       1.861  -2.338  -6.330  0.00  0.00    +0.000 C 
ATOM     12  O   UNL     1       2.210  -1.540  -7.193  0.00  0.00    +0.000 OA
ATOM     13  H   UNL     1       2.071  -2.972  -4.381  0.00  0.00    +0.000 HD
BRANCH  11  14
ATOM     14  C   UNL     1       0.927  -3.431  -6.584  0.00  0.00    +0.000 A 
ATOM     15  C   UNL     1       0.343  -3.769  -7.793  0.00  0.00    +0.000 A 
ATOM     16  C   UNL     1      -0.535  -4.888  -7.688  0.00  0.00    +0.000 A 
ATOM     17  C   UNL     1      -0.599  -5.372  -6.401  0.00  0.00    +0.000 A 
ATOM     18  S   UNL     1       0.398  -4.485  -5.334  0.00  0.00    +0.000 S 
ENDBRANCH  11  14
ENDBRANCH   9  10
ENDBRANCH   3   9
BRANCH   6  19
ATOM     19  C   UNL     1       4.439  -1.763   1.070  0.00  0.00    +0.000 C 
BRANCH  19  20
ATOM     20  N   UNL     1       3.675  -2.868   1.604  0.00  0.00    +0.000 N 
ATOM     21  C   UNL     1       4.141  -3.686   2.600  0.00  0.00    +0.000 C 
ATOM     22  O   UNL     1       5.292  -3.628   3.018  0.00  0.00    +0.000 OA
ATOM     23  H   UNL     1       2.676  -2.823   1.430  0.00  0.00    +0.000 HD
BRANCH  21  24
ATOM     24  C   UNL     1       3.191  -4.680   3.120  0.00  0.00    +0.000 A 
ATOM     25  C   UNL     1       3.654  -5.869   3.663  0.00  0.00    +0.000 A 
ATOM     26  S   UNL     1       2.411  -6.884   4.246  0.00  0.00    +0.000 S 
ATOM     27  C   UNL     1       1.220  -5.728   3.873  0.00  0.00    +0.000 A 
ATOM     28  N   UNL     1      -0.081  -5.924   4.218  0.00  0.00    +0.000 NA
ATOM     29  C   UNL     1      -0.867  -4.946   3.911  0.00  0.00    +0.000 A 
ATOM     30  N   UNL     1      -0.477  -3.807   3.254  0.00  0.00    +0.000 N 
ATOM     31  C   UNL     1       0.811  -3.597   2.827  0.00  0.00    +0.000 A 
ATOM     32  O   UNL     1       1.101  -2.627   2.136  0.00  0.00    +0.000 OA
ATOM     33  C   UNL     1       1.752  -4.627   3.225  0.00  0.00    +0.000 A 
ATOM     34  H   UNL     1      -1.150  -3.101   2.999  0.00  0.00    +0.000 HD
ENDBRANCH  21  24
ENDBRANCH  19  20
ENDBRANCH   6  19
TORSDOF 7
