REMARK  Name = 
REMARK  7 active torsions:
REMARK  status: ('A' for Active; 'I' for Inactive)
REMARK    1  A    between atoms: C_1  and  C_2
REMARK    2  A    between atoms: C_2  and  N_3
REMARK    3  A    between atoms: C_2  and  C_12
REMARK    4  A    between atoms: C_4  and  C_6
REMARK    5  A    between atoms: C_15  and  C_16
REMARK    6  A    between atoms: C_16  and  N_17
REMARK    7  A    between atoms: C_18  and  C_20
REMARK                            x       y       z     vdW  Elec       q    Type
REMARK                         _______ _______ _______ _____ _____    ______ ____
ROOT
ATOM      1  C   UNL     1      -1.205   1.168  -5.573  0.00  0.00    +0.000 A 
ATOM      2  C   UNL     1      -0.711   2.476  -5.447  0.00  0.00    +0.000 A 
ATOM      3  C   UNL     1      -1.586   3.562  -5.353  0.00  0.00    +0.000 A 
ATOM      4  C   UNL     1      -2.972   3.362  -5.375  0.00  0.00    +0.000 A 
ATOM      5  C   UNL     1      -3.466   2.058  -5.498  0.00  0.00    +0.000 A 
ATOM      6  C   UNL     1      -2.593   0.973  -5.586  0.00  0.00    +0.000 A 
ENDROOT
BRANCH   1   8
ATOM      7  C   UNL     1      -0.363  -0.986  -4.567  0.00  0.00    +0.000 C 
ATOM      8  C   UNL     1      -0.244   0.007  -5.726  0.00  0.00    +0.000 C 
BRANCH   8   9
ATOM      9  N   UNL     1      -0.456  -0.653  -7.008  0.00  0.00    +0.000 N 
ATOM     10  C   UNL     1       0.575  -1.292  -7.663  0.00  0.00    +0.000 C 
ATOM     11  O   UNL     1       1.719  -1.305  -7.219  0.00  0.00    +0.000 OA
ATOM     12  H   UNL     1      -1.344  -0.539  -7.475  0.00  0.00    +0.000 HD
BRANCH  10  13
ATOM     13  C   UNL     1       0.167  -1.965  -8.998  0.00  0.00    +0.000 C 
ATOM     14  C   UNL     1       1.362  -2.619  -9.705  0.00  0.00    +0.000 C 
ATOM     15  C   UNL     1       1.854  -3.867  -8.973  0.00  0.00    +0.000 C 
ATOM     16  C   UNL     1       0.701  -4.826  -8.705  0.00  0.00    +0.000 C 
ATOM     17  C   UNL     1      -0.486  -4.123  -8.050  0.00  0.00    +0.000 C 
ATOM     18  N   UNL     1      -0.927  -2.946  -8.803  0.00  0.00    +0.000 NA
ATOM     19  H   UNL     1      -1.703  -2.511  -8.310  0.00  0.00    +0.000 HD
ENDBRANCH  10  13
ENDBRANCH   8   9
ENDBRANCH   1   8
BRANCH   4  20
ATOM     20  C   UNL     1      -3.925   4.527  -5.354  0.00  0.00    +0.000 C 
BRANCH  20  21
ATOM     21  N   UNL     1      -4.213   4.964  -6.696  0.00  0.00    +0.000 N 
ATOM     22  C   UNL     1      -5.001   6.055  -6.944  0.00  0.00    +0.000 C 
ATOM     23  O   UNL     1      -5.488   6.728  -6.040  0.00  0.00    +0.000 OA
ATOM     24  H   UNL     1      -4.024   4.304  -7.444  0.00  0.00    +0.000 HD
BRANCH  22  25
ATOM     25  C   UNL     1      -5.173   6.422  -8.355  0.00  0.00    +0.000 A 
ATOM     26  C   UNL     1      -5.499   7.729  -8.691  0.00  0.00    +0.000 A 
ATOM     27  S   UNL     1      -5.587   8.002 -10.371  0.00  0.00    +0.000 S 
ATOM     28  C   UNL     1      -5.248   6.370 -10.710  0.00  0.00    +0.000 A 
ATOM     29  N   UNL     1      -5.195   5.919 -11.992  0.00  0.00    +0.000 NA
ATOM     30  C   UNL     1      -4.964   4.655 -12.103  0.00  0.00    +0.000 A 
ATOM     31  N   UNL     1      -4.776   3.797 -11.047  0.00  0.00    +0.000 N 
ATOM     32  C   UNL     1      -4.788   4.216  -9.739  0.00  0.00    +0.000 A 
ATOM     33  O   UNL     1      -4.569   3.431  -8.820  0.00  0.00    +0.000 OA
ATOM     34  C   UNL     1      -5.056   5.630  -9.559  0.00  0.00    +0.000 A 
ATOM     35  H   UNL     1      -4.595   2.818 -11.206  0.00  0.00    +0.000 HD
ENDBRANCH  22  25
ENDBRANCH  20  21
ENDBRANCH   4  20
TORSDOF 6
