REMARK  Name = 
REMARK  6 active torsions:
REMARK  status: ('A' for Active; 'I' for Inactive)
REMARK    1  A    between atoms: C_1  and  C_2
REMARK    2  A    between atoms: C_2  and  N_3
REMARK    3  A    between atoms: C_2  and  C_16
REMARK    4  A    between atoms: C_4  and  C_6
REMARK    5  A    between atoms: C_19  and  O_20
REMARK    6  A    between atoms: O_20  and  C_21
REMARK                            x       y       z     vdW  Elec       q    Type
REMARK                         _______ _______ _______ _____ _____    ______ ____
ROOT
ATOM      1  C   UNL     1       0.829   0.118  -0.136  0.00  0.00    +0.000 C 
ATOM      2  C   UNL     1       2.356   0.088   0.007  0.00  0.00    +0.000 C 
ENDROOT
BRANCH   2   3
ATOM      3  C   UNL     1       2.896  -1.260  -0.448  0.00  0.00    +0.000 A 
ATOM      4  C   UNL     1       3.757  -1.336  -1.552  0.00  0.00    +0.000 A 
ATOM      5  C   UNL     1       4.235  -2.571  -2.001  0.00  0.00    +0.000 A 
ATOM      6  C   UNL     1       3.907  -3.743  -1.315  0.00  0.00    +0.000 A 
ATOM      7  C   UNL     1       3.033  -3.682  -0.230  0.00  0.00    +0.000 A 
ATOM      8  C   UNL     1       2.533  -2.451   0.203  0.00  0.00    +0.000 A 
BRANCH   6   9
ATOM      9  O   UNL     1       4.333  -5.001  -1.676  0.00  0.00    +0.000 OA
BRANCH   9  10
ATOM     10  C   UNL     1       5.591  -5.187  -2.200  0.00  0.00    +0.000 A 
ATOM     11  C   UNL     1       6.706  -4.414  -1.883  0.00  0.00    +0.000 A 
ATOM     12  C   UNL     1       7.904  -4.716  -2.506  0.00  0.00    +0.000 A 
ATOM     13  N   UNL     1       8.069  -5.749  -3.361  0.00  0.00    +0.000 NA
ATOM     14  C   UNL     1       6.985  -6.517  -3.600  0.00  0.00    +0.000 A 
ATOM     15  C   UNL     1       5.739  -6.281  -3.048  0.00  0.00    +0.000 A 
ENDBRANCH   9  10
ENDBRANCH   6   9
ENDBRANCH   2   3
BRANCH   2  16
ATOM     16  N   UNL     1       2.801   0.369   1.363  0.00  0.00    +0.000 N 
ATOM     17  C   UNL     1       2.552   1.570   1.979  0.00  0.00    +0.000 C 
ATOM     18  O   UNL     1       1.888   2.460   1.455  0.00  0.00    +0.000 OA
ATOM     19  H   UNL     1       3.578  -0.187   1.705  0.00  0.00    +0.000 HD
BRANCH  17  20
ATOM     20  C   UNL     1       3.069   1.727   3.343  0.00  0.00    +0.000 A 
ATOM     21  C   UNL     1       2.406   2.561   4.233  0.00  0.00    +0.000 A 
ATOM     22  S   UNL     1       3.133   2.635   5.772  0.00  0.00    +0.000 S 
ATOM     23  C   UNL     1       4.390   1.591   5.287  0.00  0.00    +0.000 A 
ATOM     24  N   UNL     1       5.398   1.272   6.138  0.00  0.00    +0.000 NA
ATOM     25  C   UNL     1       6.302   0.503   5.626  0.00  0.00    +0.000 A 
ATOM     26  N   UNL     1       6.276   0.012   4.346  0.00  0.00    +0.000 N 
ATOM     27  C   UNL     1       5.249   0.269   3.467  0.00  0.00    +0.000 A 
ATOM     28  O   UNL     1       5.211  -0.247   2.355  0.00  0.00    +0.000 OA
ATOM     29  C   UNL     1       4.230   1.163   3.980  0.00  0.00    +0.000 A 
ATOM     30  H   UNL     1       7.005  -0.605   4.016  0.00  0.00    +0.000 HD
ENDBRANCH  17  20
ENDBRANCH   2  16
TORSDOF 5
