REMARK  Name = 
REMARK  8 active torsions:
REMARK  status: ('A' for Active; 'I' for Inactive)
REMARK    1  A    between atoms: C_1  and  C_2
REMARK    2  A    between atoms: C_2  and  N_3
REMARK    3  A    between atoms: C_2  and  C_25
REMARK    4  A    between atoms: N_3  and  C_4
REMARK    5  A    between atoms: C_4  and  C_5
REMARK    6  A    between atoms: C_8  and  C_9
REMARK    7  A    between atoms: C_9  and  N_10
REMARK    8  A    between atoms: C_11  and  C_13
REMARK                            x       y       z     vdW  Elec       q    Type
REMARK                         _______ _______ _______ _____ _____    ______ ____
ROOT
ATOM      1  C   UNL     1       2.937  -0.580   3.747  0.00  0.00    +0.000 A 
ATOM      2  C   UNL     1       3.476   0.180   4.789  0.00  0.00    +0.000 A 
ATOM      3  C   UNL     1       3.830  -0.436   5.986  0.00  0.00    +0.000 A 
ATOM      4  C   UNL     1       3.605  -1.802   6.129  0.00  0.00    +0.000 A 
ATOM      5  N   UNL     1       3.114  -2.569   5.124  0.00  0.00    +0.000 NA
ATOM      6  C   UNL     1       2.802  -1.947   3.965  0.00  0.00    +0.000 A 
ENDROOT
BRANCH   1   7
ATOM      7  C   UNL     1       2.459   0.044   2.462  0.00  0.00    +0.000 C 
BRANCH   7   8
ATOM      8  N   UNL     1       3.535   0.744   1.770  0.00  0.00    +0.000 NA
ATOM      9  H   UNL     1       3.926   1.447   2.397  0.00  0.00    +0.000 HD
BRANCH   8  11
ATOM     10  C   UNL     1       2.581   0.462  -0.524  0.00  0.00    +0.000 C 
ATOM     11  C   UNL     1       3.109   1.431   0.540  0.00  0.00    +0.000 C 
BRANCH  11  12
ATOM     12  C   UNL     1       4.265   2.230  -0.034  0.00  0.00    +0.000 A 
ATOM     13  C   UNL     1       5.592   1.782   0.028  0.00  0.00    +0.000 A 
ATOM     14  C   UNL     1       6.618   2.564  -0.492  0.00  0.00    +0.000 A 
ATOM     15  C   UNL     1       6.285   3.771  -1.080  0.00  0.00    +0.000 A 
ATOM     16  N   UNL     1       5.019   4.230  -1.188  0.00  0.00    +0.000 NA
ATOM     17  C   UNL     1       4.043   3.451  -0.667  0.00  0.00    +0.000 A 
ENDBRANCH  11  12
ENDBRANCH   8  11
ENDBRANCH   7   8
ENDBRANCH   1   7
BRANCH   4  18
ATOM     18  C   UNL     1       3.898  -2.486   7.440  0.00  0.00    +0.000 C 
BRANCH  18  19
ATOM     19  N   UNL     1       5.243  -3.005   7.500  0.00  0.00    +0.000 N 
ATOM     20  C   UNL     1       6.262  -2.337   8.121  0.00  0.00    +0.000 C 
ATOM     21  O   UNL     1       6.093  -1.253   8.671  0.00  0.00    +0.000 OA
ATOM     22  H   UNL     1       5.447  -3.763   6.856  0.00  0.00    +0.000 HD
BRANCH  20  23
ATOM     23  C   UNL     1       7.560  -3.022   8.161  0.00  0.00    +0.000 A 
ATOM     24  C   UNL     1       8.474  -2.700   9.155  0.00  0.00    +0.000 A 
ATOM     25  S   UNL     1       9.919  -3.601   9.074  0.00  0.00    +0.000 S 
ATOM     26  C   UNL     1       9.391  -4.426   7.684  0.00  0.00    +0.000 A 
ATOM     27  N   UNL     1      10.189  -5.341   7.069  0.00  0.00    +0.000 NA
ATOM     28  C   UNL     1       9.673  -5.873   6.012  0.00  0.00    +0.000 A 
ATOM     29  N   UNL     1       8.427  -5.581   5.519  0.00  0.00    +0.000 N 
ATOM     30  C   UNL     1       7.569  -4.707   6.138  0.00  0.00    +0.000 A 
ATOM     31  O   UNL     1       6.424  -4.543   5.727  0.00  0.00    +0.000 OA
ATOM     32  C   UNL     1       8.115  -4.046   7.307  0.00  0.00    +0.000 A 
ATOM     33  H   UNL     1       8.069  -6.053   4.702  0.00  0.00    +0.000 HD
ENDBRANCH  20  23
ENDBRANCH  18  19
ENDBRANCH   4  18
TORSDOF 7
