REMARK  Name = 
REMARK  7 active torsions:
REMARK  status: ('A' for Active; 'I' for Inactive)
REMARK    1  A    between atoms: C_2  and  C_3
REMARK    2  A    between atoms: N_7  and  C_8
REMARK    3  A    between atoms: C_8  and  C_9
REMARK    4  A    between atoms: C_9  and  C_12
REMARK    5  A    between atoms: C_16  and  O_17
REMARK    6  A    between atoms: O_17  and  C_18
REMARK    7  A    between atoms: C_21  and  C_23
REMARK                            x       y       z     vdW  Elec       q    Type
REMARK                         _______ _______ _______ _____ _____    ______ ____
ROOT
ATOM      1  C   UNL     1      -6.626   2.474  -0.248  0.00  0.00    +0.000 A 
ATOM      2  C   UNL     1      -8.018   2.445  -0.068  0.00  0.00    +0.000 A 
ATOM      3  C   UNL     1      -8.752   3.631   0.037  0.00  0.00    +0.000 A 
ATOM      4  C   UNL     1      -8.109   4.869  -0.038  0.00  0.00    +0.000 A 
ATOM      5  C   UNL     1      -6.734   4.914  -0.237  0.00  0.00    +0.000 A 
ATOM      6  C   UNL     1      -6.005   3.727  -0.347  0.00  0.00    +0.000 A 
ENDROOT
BRANCH   1   7
ATOM      7  C   UNL     1      -5.861   1.158  -0.273  0.00  0.00    +0.000 C 
ATOM      8  F   UNL     1      -6.327   0.339  -1.272  0.00  0.00    +0.000 F 
ATOM      9  F   UNL     1      -6.083   0.456   0.882  0.00  0.00    +0.000 F 
BRANCH   7  10
ATOM     10  C   UNL     1      -4.329   1.294  -0.472  0.00  0.00    +0.000 C 
BRANCH  10  15
ATOM     11  C   UNL     1       0.498   0.263  -1.054  0.00  0.00    +0.000 A 
ATOM     12  C   UNL     1      -0.082  -0.971  -0.784  0.00  0.00    +0.000 A 
ATOM     13  C   UNL     1      -1.459  -1.046  -0.564  0.00  0.00    +0.000 A 
ATOM     14  C   UNL     1      -2.232   0.110  -0.630  0.00  0.00    +0.000 A 
ATOM     15  N   UNL     1      -3.598   0.018  -0.332  0.00  0.00    +0.000 N 
ATOM     16  N   UNL     1      -1.675   1.313  -0.892  0.00  0.00    +0.000 NA
ATOM     17  C   UNL     1      -0.336   1.368  -1.100  0.00  0.00    +0.000 A 
ATOM     18  H   UNL     1      -4.040  -0.743  -0.838  0.00  0.00    +0.000 HD
BRANCH  11  20
ATOM     19  N   UNL     1       3.047   0.514  -1.425  0.00  0.00    +0.000 NA
ATOM     20  C   UNL     1       1.902   0.402  -1.261  0.00  0.00    +0.000 C 
ENDBRANCH  11  20
ENDBRANCH  10  15
ENDBRANCH   7  10
ENDBRANCH   1   7
BRANCH   5  21
ATOM     21  O   UNL     1      -5.962   6.044  -0.293  0.00  0.00    +0.000 OA
BRANCH  21  22
ATOM     22  C   UNL     1      -6.581   7.325  -0.518  0.00  0.00    +0.000 C 
ATOM     23  C   UNL     1      -7.124   7.618  -1.934  0.00  0.00    +0.000 C 
ATOM     24  N   UNL     1      -6.424   8.882  -1.855  0.00  0.00    +0.000 N 
ATOM     25  C   UNL     1      -6.572  10.122  -2.419  0.00  0.00    +0.000 C 
ATOM     26  O   UNL     1      -5.797  11.035  -2.107  0.00  0.00    +0.000 OA
ATOM     27  C   UNL     1      -5.580   8.480  -0.748  0.00  0.00    +0.000 C 
BRANCH  25  28
ATOM     28  C   UNL     1      -7.736  10.339  -3.403  0.00  0.00    +0.000 C 
ATOM     29  F   UNL     1      -8.486   9.225  -3.638  0.00  0.00    +0.000 F 
ATOM     30  F   UNL     1      -8.610  11.282  -2.947  0.00  0.00    +0.000 F 
ATOM     31  F   UNL     1      -7.313  10.767  -4.625  0.00  0.00    +0.000 F 
ENDBRANCH  25  28
ENDBRANCH  21  22
ENDBRANCH   5  21
TORSDOF 7
