REMARK  Name = 
REMARK  3 active torsions:
REMARK  status: ('A' for Active; 'I' for Inactive)
REMARK    1  A    between atoms: C_2  and  C_3
REMARK    2  A    between atoms: C_5  and  C_6
REMARK    3  A    between atoms: C_6  and  N_7
REMARK                            x       y       z     vdW  Elec       q    Type
REMARK                         _______ _______ _______ _____ _____    ______ ____
ROOT
ATOM      1  C   UNL     1      -2.382   2.476  -0.069  0.00  0.00    +0.000 C 
ENDROOT
BRANCH   1   2
ATOM      2  N   UNL     1      -1.509   3.642  -0.090  0.00  0.00    +0.000 N 
ATOM      3  C   UNL     1      -1.156   4.366   1.026  0.00  0.00    +0.000 A 
ATOM      4  C   UNL     1      -0.312   5.379   0.626  0.00  0.00    +0.000 A 
ATOM      5  C   UNL     1      -0.166   5.280  -0.776  0.00  0.00    +0.000 A 
ATOM      6  N   UNL     1       0.576   6.053  -1.605  0.00  0.00    +0.000 NA
ATOM      7  C   UNL     1       0.509   5.712  -2.908  0.00  0.00    +0.000 A 
ATOM      8  C   UNL     1      -0.262   4.686  -3.434  0.00  0.00    +0.000 A 
ATOM      9  C   UNL     1      -1.035   3.907  -2.578  0.00  0.00    +0.000 A 
ATOM     10  C   UNL     1      -0.951   4.213  -1.216  0.00  0.00    +0.000 A 
ENDBRANCH   1   2
BRANCH   1  13
ATOM     11  C   UNL     1      -0.529  -0.747  -0.876  0.00  0.00    +0.000 A 
ATOM     12  C   UNL     1      -1.192   0.464  -1.058  0.00  0.00    +0.000 A 
ATOM     13  C   UNL     1      -1.610   1.185   0.068  0.00  0.00    +0.000 A 
ATOM     14  C   UNL     1      -1.306   0.666   1.332  0.00  0.00    +0.000 A 
ATOM     15  C   UNL     1      -0.635  -0.544   1.415  0.00  0.00    +0.000 A 
ATOM     16  N   UNL     1      -0.248  -1.265   0.342  0.00  0.00    +0.000 NA
BRANCH  11  18
ATOM     17  N   UNL     1       0.150  -2.158  -2.954  0.00  0.00    +0.000 NA
ATOM     18  C   UNL     1      -0.134  -1.544  -2.010  0.00  0.00    +0.000 C 
ENDBRANCH  11  18
ENDBRANCH   1  13
TORSDOF 3
