REMARK  Name = 
REMARK  6 active torsions:
REMARK  status: ('A' for Active; 'I' for Inactive)
REMARK    1  A    between atoms: N_1  and  C_2
REMARK    2  A    between atoms: C_2  and  C_3
REMARK    3  A    between atoms: C_6  and  C_7
REMARK    4  A    between atoms: C_7  and  O_8
REMARK    5  A    between atoms: O_8  and  C_9
REMARK    6  A    between atoms: C_14  and  N_15
REMARK                            x       y       z     vdW  Elec       q    Type
REMARK                         _______ _______ _______ _____ _____    ______ ____
ROOT
ATOM      1  C   UNL     1       4.299  -3.920  -3.851  0.00  0.00    +0.000 C 
ENDROOT
BRANCH   1   5
ATOM      2  C   UNL     1       2.834  -1.029  -0.979  0.00  0.00    +0.000 A 
ATOM      3  C   UNL     1       3.731  -0.645  -1.985  0.00  0.00    +0.000 A 
ATOM      4  C   UNL     1       4.219  -1.579  -2.902  0.00  0.00    +0.000 A 
ATOM      5  C   UNL     1       3.812  -2.917  -2.834  0.00  0.00    +0.000 A 
ATOM      6  C   UNL     1       2.932  -3.309  -1.817  0.00  0.00    +0.000 A 
ATOM      7  C   UNL     1       2.444  -2.373  -0.901  0.00  0.00    +0.000 A 
BRANCH   2   8
ATOM      8  C   UNL     1       2.322  -0.020   0.017  0.00  0.00    +0.000 C 
BRANCH   8   9
ATOM      9  N   UNL     1       1.598   1.066  -0.636  0.00  0.00    +0.000 NA
ATOM     10  H   UNL     1       1.194   1.670   0.076  0.00  0.00    +0.000 HD
ATOM     11  H   UNL     1       0.817   0.669  -1.157  0.00  0.00    +0.000 HD
ENDBRANCH   8   9
ENDBRANCH   2   8
ENDBRANCH   1   5
BRANCH   1  12
ATOM     12  O   UNL     1       5.479  -4.567  -3.367  0.00  0.00    +0.000 OA
BRANCH  12  13
ATOM     13  C   UNL     1       5.929  -5.546  -4.229  0.00  0.00    +0.000 A 
ATOM     14  N   UNL     1       5.261  -5.727  -5.397  0.00  0.00    +0.000 NA
ATOM     15  C   UNL     1       5.668  -6.727  -6.211  0.00  0.00    +0.000 A 
ATOM     16  C   UNL     1       6.729  -7.571  -5.921  0.00  0.00    +0.000 A 
ATOM     17  C   UNL     1       7.416  -7.376  -4.727  0.00  0.00    +0.000 A 
ATOM     18  C   UNL     1       7.003  -6.343  -3.879  0.00  0.00    +0.000 A 
BRANCH  18  19
ATOM     19  N   UNL     1       7.686  -6.153  -2.628  0.00  0.00    +0.000 N 
ATOM     20  O   UNL     1       8.265  -5.074  -2.449  0.00  0.00    +0.000 OA
ATOM     21  O   UNL     1       7.708  -7.120  -1.853  0.00  0.00    +0.000 OA
ENDBRANCH  18  19
ENDBRANCH  12  13
ENDBRANCH   1  12
TORSDOF 6
