REMARK  Name = 
REMARK  6 active torsions:
REMARK  status: ('A' for Active; 'I' for Inactive)
REMARK    1  A    between atoms: C_2  and  C_19
REMARK    2  A    between atoms: N_3  and  C_4
REMARK    3  A    between atoms: C_4  and  C_5
REMARK    4  A    between atoms: C_8  and  C_9
REMARK    5  A    between atoms: C_9  and  C_10
REMARK    6  A    between atoms: C_13  and  O_14
REMARK                            x       y       z     vdW  Elec       q    Type
REMARK                         _______ _______ _______ _____ _____    ______ ____
ROOT
ATOM      1  C   UNL     1      11.608   8.804  -4.685  0.00  0.00    +0.000 C 
ENDROOT
BRANCH   1   2
ATOM      2  C   UNL     1      10.170   8.754  -4.261  0.00  0.00    +0.000 A 
ATOM      3  C   UNL     1       9.705   7.783  -3.376  0.00  0.00    +0.000 A 
ATOM      4  C   UNL     1       8.367   7.783  -2.998  0.00  0.00    +0.000 A 
ATOM      5  C   UNL     1       7.509   8.763  -3.507  0.00  0.00    +0.000 A 
ATOM      6  N   UNL     1       7.940   9.727  -4.347  0.00  0.00    +0.000 NA
ATOM      7  C   UNL     1       9.251   9.702  -4.703  0.00  0.00    +0.000 A 
BRANCH   5   8
ATOM      8  C   UNL     1       6.110   8.842  -2.945  0.00  0.00    +0.000 C 
BRANCH   8   9
ATOM      9  C   UNL     1       4.991   9.528  -3.757  0.00  0.00    +0.000 C 
ATOM     10  C   UNL     1       4.660   8.850  -5.100  0.00  0.00    +0.000 C 
ATOM     11  C   UNL     1       3.455   9.516  -5.782  0.00  0.00    +0.000 C 
ATOM     12  C   UNL     1       2.228   9.560  -4.871  0.00  0.00    +0.000 C 
ATOM     13  C   UNL     1       2.551  10.217  -3.534  0.00  0.00    +0.000 C 
ATOM     14  C   UNL     1       3.733   9.541  -2.862  0.00  0.00    +0.000 C 
BRANCH  12  15
ATOM     15  O   UNL     1       1.169  10.270  -5.506  0.00  0.00    +0.000 OA
ATOM     16  H   UNL     1       1.374  11.220  -5.462  0.00  0.00    +0.000 HD
ENDBRANCH  12  15
ENDBRANCH   8   9
ENDBRANCH   5   8
ENDBRANCH   1   2
BRANCH   1  19
ATOM     17  O   UNL     1      12.359  11.495  -4.956  0.00  0.00    +0.000 OA
ATOM     18  C   UNL     1      12.704  10.887  -3.947  0.00  0.00    +0.000 C 
ATOM     19  N   UNL     1      12.411   9.561  -3.758  0.00  0.00    +0.000 N 
ATOM     20  H   UNL     1      12.576   9.140  -2.850  0.00  0.00    +0.000 HD
BRANCH  18  21
ATOM     21  C   UNL     1      13.502  11.532  -2.898  0.00  0.00    +0.000 A 
ATOM     22  C   UNL     1      14.234  12.673  -3.194  0.00  0.00    +0.000 A 
ATOM     23  S   UNL     1      15.116  13.285  -1.869  0.00  0.00    +0.000 S 
ATOM     24  C   UNL     1      14.510  12.075  -0.837  0.00  0.00    +0.000 A 
ATOM     25  N   UNL     1      14.848  12.049   0.480  0.00  0.00    +0.000 NA
ATOM     26  C   UNL     1      14.275  11.113   1.158  0.00  0.00    +0.000 A 
ATOM     27  N   UNL     1      13.406  10.190   0.637  0.00  0.00    +0.000 N 
ATOM     28  C   UNL     1      13.106  10.125  -0.704  0.00  0.00    +0.000 A 
ATOM     29  O   UNL     1      12.448   9.195  -1.162  0.00  0.00    +0.000 OA
ATOM     30  C   UNL     1      13.675  11.195  -1.501  0.00  0.00    +0.000 A 
ATOM     31  H   UNL     1      13.020   9.460   1.215  0.00  0.00    +0.000 HD
ENDBRANCH  18  21
ENDBRANCH   1  19
TORSDOF 6
