REMARK  Name = 
REMARK  9 active torsions:
REMARK  status: ('A' for Active; 'I' for Inactive)
REMARK    1  A    between atoms: C_1  and  C_2
REMARK    2  A    between atoms: C_4  and  C_5
REMARK    3  A    between atoms: C_9  and  N_10
REMARK    4  A    between atoms: N_10  and  C_11
REMARK    5  A    between atoms: C_11  and  C_12
REMARK    6  A    between atoms: C_12  and  C_13
REMARK    7  A    between atoms: C_12  and  C_14
REMARK    8  A    between atoms: C_12  and  C_15
REMARK    9  A    between atoms: C_18  and  C_19
REMARK                            x       y       z     vdW  Elec       q    Type
REMARK                         _______ _______ _______ _____ _____    ______ ____
ROOT
ATOM      1  N   UNL     1      -2.529  -5.322   1.965  0.00  0.00    +0.000 N 
ATOM      2  H   UNL     1      -1.879  -5.013   2.676  0.00  0.00    +0.000 HD
ENDROOT
BRANCH   1   7
ATOM      3  C   UNL     1      -1.920  -2.498  -0.074  0.00  0.00    +0.000 A 
ATOM      4  N   UNL     1      -2.724  -2.645  -1.145  0.00  0.00    +0.000 NA
ATOM      5  C   UNL     1      -3.488  -3.743  -1.164  0.00  0.00    +0.000 A 
ATOM      6  C   UNL     1      -3.477  -4.686  -0.166  0.00  0.00    +0.000 A 
ATOM      7  C   UNL     1      -2.634  -4.458   0.899  0.00  0.00    +0.000 A 
ATOM      8  N   UNL     1      -1.853  -3.368   0.957  0.00  0.00    +0.000 NA
BRANCH   3  12
ATOM      9  C   UNL     1      -0.371   1.834  -2.088  0.00  0.00    +0.000 C 
ATOM     10  C   UNL     1      -0.315   0.798  -1.005  0.00  0.00    +0.000 A 
ATOM     11  C   UNL     1      -1.108  -0.343  -1.071  0.00  0.00    +0.000 A 
ATOM     12  C   UNL     1      -1.071  -1.294  -0.036  0.00  0.00    +0.000 A 
ATOM     13  C   UNL     1      -0.197  -1.037   1.029  0.00  0.00    +0.000 A 
ATOM     14  C   UNL     1       0.566   0.119   1.014  0.00  0.00    +0.000 A 
ATOM     15  N   UNL     1       0.523   1.038   0.027  0.00  0.00    +0.000 NA
ENDBRANCH   3  12
ENDBRANCH   1   7
BRANCH   1  16
ATOM     16  C   UNL     1      -3.312  -6.534   2.112  0.00  0.00    +0.000 C 
BRANCH  16  17
ATOM     17  C   UNL     1      -2.986  -7.319   3.419  0.00  0.00    +0.000 C 
ATOM     18  C   UNL     1      -3.377  -6.444   4.635  0.00  0.00    +0.000 C 
ATOM     19  C   UNL     1      -3.901  -8.569   3.460  0.00  0.00    +0.000 C 
BRANCH  17  20
ATOM     20  C   UNL     1      -1.525  -7.766   3.437  0.00  0.00    +0.000 A 
ATOM     21  C   UNL     1      -0.613  -7.405   4.415  0.00  0.00    +0.000 A 
ATOM     22  N   UNL     1       0.684  -7.774   4.430  0.00  0.00    +0.000 NA
ATOM     23  C   UNL     1       1.079  -8.556   3.399  0.00  0.00    +0.000 A 
ATOM     24  N   UNL     1       0.292  -8.985   2.398  0.00  0.00    +0.000 NA
ATOM     25  C   UNL     1      -0.988  -8.575   2.444  0.00  0.00    +0.000 A 
BRANCH  23  26
ATOM     26  C   UNL     1       2.534  -8.964   3.381  0.00  0.00    +0.000 C 
ATOM     27  N   UNL     1       3.300  -8.489   4.421  0.00  0.00    +0.000 N 
ATOM     28  O   UNL     1       3.038  -9.667   2.512  0.00  0.00    +0.000 OA
ATOM     29  H   UNL     1       2.888  -7.892   5.128  0.00  0.00    +0.000 HD
ATOM     30  H   UNL     1       4.283  -8.713   4.442  0.00  0.00    +0.000 HD
ENDBRANCH  23  26
ENDBRANCH  17  20
ENDBRANCH  16  17
ENDBRANCH   1  16
TORSDOF 6
