REMARK  Name = 
REMARK  8 active torsions:
REMARK  status: ('A' for Active; 'I' for Inactive)
REMARK    1  A    between atoms: N_1  and  C_2
REMARK    2  A    between atoms: C_2  and  C_3
REMARK    3  A    between atoms: C_3  and  N_4
REMARK    4  A    between atoms: C_3  and  C_17
REMARK    5  A    between atoms: C_5  and  C_7
REMARK    6  A    between atoms: C_20  and  O_21
REMARK    7  A    between atoms: O_21  and  C_22
REMARK    8  A    between atoms: C_22  and  C_23
REMARK                            x       y       z     vdW  Elec       q    Type
REMARK                         _______ _______ _______ _____ _____    ______ ____
ROOT
ATOM      1  C   UNL     1       2.947  -1.032  -0.949  0.00  0.00    +0.000 C 
ENDROOT
BRANCH   1   2
ATOM      2  C   UNL     1       4.461  -1.163  -1.006  0.00  0.00    +0.000 A 
ATOM      3  C   UNL     1       5.107  -2.181  -0.286  0.00  0.00    +0.000 A 
ATOM      4  C   UNL     1       6.468  -2.436  -0.484  0.00  0.00    +0.000 A 
ATOM      5  C   UNL     1       7.191  -1.676  -1.400  0.00  0.00    +0.000 A 
ATOM      6  C   UNL     1       6.595  -0.567  -1.996  0.00  0.00    +0.000 A 
ATOM      7  C   UNL     1       5.241  -0.312  -1.798  0.00  0.00    +0.000 A 
BRANCH   5   8
ATOM      8  O   UNL     1       8.464  -2.100  -1.681  0.00  0.00    +0.000 OA
BRANCH   8   9
ATOM      9  C   UNL     1       8.898  -1.760  -3.008  0.00  0.00    +0.000 C 
BRANCH   9  10
ATOM     10  C   UNL     1       9.981  -2.699  -3.473  0.00  0.00    +0.000 A 
ATOM     11  C   UNL     1       9.727  -4.066  -3.562  0.00  0.00    +0.000 A 
ATOM     12  C   UNL     1      10.729  -4.906  -4.036  0.00  0.00    +0.000 A 
ATOM     13  C   UNL     1      11.950  -4.359  -4.412  0.00  0.00    +0.000 A 
ATOM     14  C   UNL     1      12.118  -2.990  -4.308  0.00  0.00    +0.000 A 
ATOM     15  N   UNL     1      11.163  -2.149  -3.855  0.00  0.00    +0.000 NA
ENDBRANCH   9  10
ENDBRANCH   8   9
ENDBRANCH   5   8
ENDBRANCH   1   2
BRANCH   1  16
ATOM     16  N   UNL     1       2.565  -0.103   0.099  0.00  0.00    +0.000 N 
ATOM     17  C   UNL     1       1.311  -0.121   0.651  0.00  0.00    +0.000 C 
ATOM     18  O   UNL     1       0.481  -0.963   0.319  0.00  0.00    +0.000 OA
ATOM     19  H   UNL     1       3.223   0.639   0.321  0.00  0.00    +0.000 HD
BRANCH  17  20
ATOM     20  C   UNL     1       0.993   0.900   1.661  0.00  0.00    +0.000 A 
ATOM     21  C   UNL     1      -0.223   0.824   2.331  0.00  0.00    +0.000 A 
ATOM     22  S   UNL     1      -0.449   2.051   3.490  0.00  0.00    +0.000 S 
ATOM     23  C   UNL     1       1.059   2.745   3.125  0.00  0.00    +0.000 A 
ATOM     24  N   UNL     1       1.485   3.859   3.778  0.00  0.00    +0.000 NA
ATOM     25  C   UNL     1       2.635   4.297   3.392  0.00  0.00    +0.000 A 
ATOM     26  N   UNL     1       3.402   3.720   2.413  0.00  0.00    +0.000 N 
ATOM     27  C   UNL     1       3.014   2.593   1.729  0.00  0.00    +0.000 A 
ATOM     28  O   UNL     1       3.720   2.114   0.847  0.00  0.00    +0.000 OA
ATOM     29  C   UNL     1       1.728   2.053   2.128  0.00  0.00    +0.000 A 
ATOM     30  H   UNL     1       4.292   4.117   2.153  0.00  0.00    +0.000 HD
ENDBRANCH  17  20
ENDBRANCH   1  16
BRANCH   1  31
ATOM     31  C   UNL     1       2.296  -0.653  -2.322  0.00  0.00    +0.000 C 
BRANCH  31  32
ATOM     32  N   UNL     1       2.529  -1.633  -3.393  0.00  0.00    +0.000 NA
ATOM     33  H   UNL     1       1.933  -1.409  -4.188  0.00  0.00    +0.000 HD
ATOM     34  H   UNL     1       2.239  -2.556  -3.070  0.00  0.00    +0.000 HD
ENDBRANCH  31  32
ENDBRANCH   1  31
TORSDOF 8
