REMARK  Name = 
REMARK  10 active torsions:
REMARK  status: ('A' for Active; 'I' for Inactive)
REMARK    1  A    between atoms: C_1  and  C_2
REMARK    2  A    between atoms: C_2  and  N_3
REMARK    3  A    between atoms: C_2  and  C_21
REMARK    4  A    between atoms: N_3  and  C_4
REMARK    5  A    between atoms: C_4  and  C_5
REMARK    6  A    between atoms: C_8  and  C_9
REMARK    7  A    between atoms: C_9  and  N_10
REMARK    8  A    between atoms: N_10  and  C_11
REMARK    9  A    between atoms: N_10  and  C_12
REMARK   10  A    between atoms: C_12  and  C_13
REMARK                            x       y       z     vdW  Elec       q    Type
REMARK                         _______ _______ _______ _____ _____    ______ ____
ROOT
ATOM      1  C   UNL     1       2.423   2.321   1.139  0.00  0.00    +0.000 C 
ENDROOT
BRANCH   1   2
ATOM      2  C   UNL     1       3.077   2.868   2.395  0.00  0.00    +0.000 A 
ATOM      3  N   UNL     1       3.212   4.208   2.497  0.00  0.00    +0.000 NA
ATOM      4  C   UNL     1       3.534   4.687   3.711  0.00  0.00    +0.000 A 
ATOM      5  C   UNL     1       3.709   3.893   4.829  0.00  0.00    +0.000 A 
ATOM      6  C   UNL     1       3.618   2.534   4.597  0.00  0.00    +0.000 A 
ATOM      7  N   UNL     1       3.301   1.999   3.404  0.00  0.00    +0.000 NA
BRANCH   5   8
ATOM      8  C   UNL     1       3.881   4.483   6.197  0.00  0.00    +0.000 C 
BRANCH   8   9
ATOM      9  N   UNL     1       2.753   5.367   6.560  0.00  0.00    +0.000 NA
ATOM     10  C   UNL     1       1.492   4.627   6.688  0.00  0.00    +0.000 C 
BRANCH   9  11
ATOM     11  C   UNL     1       3.012   6.081   7.832  0.00  0.00    +0.000 C 
BRANCH  11  12
ATOM     12  C   UNL     1       4.201   7.022   7.802  0.00  0.00    +0.000 A 
ATOM     13  C   UNL     1       4.254   8.066   6.880  0.00  0.00    +0.000 A 
ATOM     14  C   UNL     1       5.381   8.883   6.856  0.00  0.00    +0.000 A 
ATOM     15  C   UNL     1       6.412   8.647   7.757  0.00  0.00    +0.000 A 
ATOM     16  C   UNL     1       6.273   7.600   8.651  0.00  0.00    +0.000 A 
ATOM     17  N   UNL     1       5.200   6.782   8.690  0.00  0.00    +0.000 NA
ENDBRANCH  11  12
ENDBRANCH   9  11
ENDBRANCH   8   9
ENDBRANCH   5   8
ENDBRANCH   1   2
BRANCH   1  18
ATOM     18  N   UNL     1       3.338   1.894   0.062  0.00  0.00    +0.000 NA
ATOM     19  H   UNL     1       3.878   1.086   0.389  0.00  0.00    +0.000 HD
BRANCH  18  21
ATOM     20  C   UNL     1       1.709   0.273  -1.015  0.00  0.00    +0.000 C 
ATOM     21  C   UNL     1       2.584   1.537  -1.136  0.00  0.00    +0.000 C 
BRANCH  21  22
ATOM     22  C   UNL     1       3.529   1.395  -2.309  0.00  0.00    +0.000 A 
ATOM     23  C   UNL     1       3.522   2.232  -3.413  0.00  0.00    +0.000 A 
ATOM     24  S   UNL     1       4.355   1.563  -4.750  0.00  0.00    +0.000 S 
ATOM     25  C   UNL     1       4.826   0.199  -3.845  0.00  0.00    +0.000 A 
ATOM     26  N   UNL     1       5.460  -0.861  -4.415  0.00  0.00    +0.000 NA
ATOM     27  C   UNL     1       5.802  -1.784  -3.577  0.00  0.00    +0.000 A 
ATOM     28  N   UNL     1       5.613  -1.724  -2.218  0.00  0.00    +0.000 N 
ATOM     29  C   UNL     1       4.974  -0.675  -1.597  0.00  0.00    +0.000 A 
ATOM     30  O   UNL     1       4.860  -0.621  -0.376  0.00  0.00    +0.000 OA
ATOM     31  C   UNL     1       4.475   0.329  -2.516  0.00  0.00    +0.000 A 
ATOM     32  H   UNL     1       5.973  -2.444  -1.611  0.00  0.00    +0.000 HD
ENDBRANCH  21  22
ENDBRANCH  18  21
ENDBRANCH   1  18
TORSDOF 8
