REMARK  Name = 
REMARK  10 active torsions:
REMARK  status: ('A' for Active; 'I' for Inactive)
REMARK    1  A    between atoms: C_2  and  C_23
REMARK    2  A    between atoms: N_3  and  C_4
REMARK    3  A    between atoms: C_4  and  C_5
REMARK    4  A    between atoms: C_8  and  C_9
REMARK    5  A    between atoms: C_9  and  N_10
REMARK    6  A    between atoms: N_10  and  CA_11
REMARK    7  A    between atoms: CA_11  and  C_12
REMARK    8  A    between atoms: CA_11  and  C_14
REMARK    9  A    between atoms: C_12  and  O_13
REMARK   10  A    between atoms: C_14  and  C_15
REMARK                            x       y       z     vdW  Elec       q    Type
REMARK                         _______ _______ _______ _____ _____    ______ ____
ROOT
ATOM      1  C   UNL     1       4.588  -9.761  -9.255  0.00  0.00    +0.000 A 
ATOM      2  C   UNL     1       5.263  -8.560  -9.499  0.00  0.00    +0.000 A 
ATOM      3  C   UNL     1       5.839  -7.848  -8.448  0.00  0.00    +0.000 A 
ATOM      4  C   UNL     1       5.761  -8.328  -7.132  0.00  0.00    +0.000 A 
ATOM      5  C   UNL     1       5.128  -9.554  -6.895  0.00  0.00    +0.000 A 
ATOM      6  C   UNL     1       4.552 -10.268  -7.948  0.00  0.00    +0.000 A 
ENDROOT
BRANCH   1   7
ATOM      7  C   UNL     1       3.947 -10.512 -10.392  0.00  0.00    +0.000 C 
BRANCH   7  10
ATOM      8  O   UNL     1       5.527 -10.153 -12.691  0.00  0.00    +0.000 OA
ATOM      9  C   UNL     1       5.635 -11.193 -12.051  0.00  0.00    +0.000 C 
ATOM     10  N   UNL     1       4.859 -11.474 -10.956  0.00  0.00    +0.000 N 
ATOM     11  H   UNL     1       5.118 -12.242 -10.349  0.00  0.00    +0.000 HD
BRANCH   9  12
ATOM     12  C   UNL     1       6.580 -12.244 -12.448  0.00  0.00    +0.000 A 
ATOM     13  C   UNL     1       7.040 -12.295 -13.758  0.00  0.00    +0.000 A 
ATOM     14  S   UNL     1       8.107 -13.592 -14.056  0.00  0.00    +0.000 S 
ATOM     15  C   UNL     1       8.029 -14.102 -12.434  0.00  0.00    +0.000 A 
ATOM     16  N   UNL     1       8.750 -15.172 -12.003  0.00  0.00    +0.000 NA
ATOM     17  C   UNL     1       8.631 -15.422 -10.742  0.00  0.00    +0.000 A 
ATOM     18  N   UNL     1       7.846 -14.708  -9.875  0.00  0.00    +0.000 N 
ATOM     19  C   UNL     1       7.042 -13.671 -10.281  0.00  0.00    +0.000 A 
ATOM     20  O   UNL     1       6.252 -13.142  -9.503  0.00  0.00    +0.000 OA
ATOM     21  C   UNL     1       7.177 -13.313 -11.681  0.00  0.00    +0.000 A 
ATOM     22  H   UNL     1       7.772 -14.976  -8.905  0.00  0.00    +0.000 HD
ENDBRANCH   9  12
ENDBRANCH   7  10
ENDBRANCH   1   7
BRANCH   4  23
ATOM     23  C   UNL     1       6.398  -7.555  -6.004  0.00  0.00    +0.000 C 
BRANCH  23  24
ATOM     24  N   UNL     1       5.829  -6.204  -5.895  0.00  0.00    +0.000 NA
ATOM     25  H   UNL     1       4.825  -6.310  -5.734  0.00  0.00    +0.000 HD
BRANCH  24  26
ATOM     26  CA  UNL     1       6.424  -5.428  -4.772  0.00  0.00    +0.000 C 
BRANCH  26  27
ATOM     27  C   UNL     1       5.646  -4.092  -4.662  0.00  0.00    +0.000 C 
BRANCH  27  28
ATOM     28  O   UNL     1       5.739  -3.355  -5.880  0.00  0.00    +0.000 OA
ATOM     29  H   UNL     1       5.527  -3.999  -6.584  0.00  0.00    +0.000 HD
ENDBRANCH  27  28
ENDBRANCH  26  27
BRANCH  26  30
ATOM     30  C   UNL     1       7.931  -5.177  -5.005  0.00  0.00    +0.000 C 
BRANCH  30  31
ATOM     31  C   UNL     1       8.592  -4.395  -3.905  0.00  0.00    +0.000 A 
ATOM     32  C   UNL     1       9.290  -3.224  -4.187  0.00  0.00    +0.000 A 
ATOM     33  N   UNL     1       9.948  -2.517  -3.239  0.00  0.00    +0.000 NA
ATOM     34  C   UNL     1       9.886  -3.030  -1.991  0.00  0.00    +0.000 A 
ATOM     35  C   UNL     1       9.198  -4.195  -1.702  0.00  0.00    +0.000 A 
ATOM     36  N   UNL     1       8.537  -4.902  -2.647  0.00  0.00    +0.000 NA
ENDBRANCH  30  31
ENDBRANCH  26  30
ENDBRANCH  24  26
ENDBRANCH  23  24
ENDBRANCH   4  23
TORSDOF 10
