REMARK  Name = 
REMARK  7 active torsions:
REMARK  status: ('A' for Active; 'I' for Inactive)
REMARK    1  A    between atoms: C_2  and  C_4
REMARK    2  A    between atoms: C_7  and  N_8
REMARK    3  A    between atoms: N_8  and  C_9
REMARK    4  A    between atoms: C_9  and  C_10
REMARK    5  A    between atoms: C_10  and  C_13
REMARK    6  A    between atoms: C_17  and  C_18
REMARK    7  A    between atoms: C_18  and  C_19
REMARK                            x       y       z     vdW  Elec       q    Type
REMARK                         _______ _______ _______ _____ _____    ______ ____
ROOT
ATOM      1  C   UNL     1       5.765  -7.147   0.353  0.00  0.00    +0.000 C 
ATOM      2  F   UNL     1       7.064  -6.860   0.050  0.00  0.00    +0.000 F 
ATOM      3  F   UNL     1       5.737  -7.324   1.708  0.00  0.00    +0.000 F 
ENDROOT
BRANCH   1   4
ATOM      4  C   UNL     1       5.263  -8.350  -0.403  0.00  0.00    +0.000 A 
ATOM      5  C   UNL     1       4.373  -9.239   0.180  0.00  0.00    +0.000 A 
ATOM      6  N   UNL     1       3.808 -10.275  -0.478  0.00  0.00    +0.000 NA
ATOM      7  C   UNL     1       4.152 -10.441  -1.776  0.00  0.00    +0.000 A 
ATOM      8  C   UNL     1       5.037  -9.616  -2.461  0.00  0.00    +0.000 A 
ATOM      9  C   UNL     1       5.604  -8.558  -1.747  0.00  0.00    +0.000 A 
BRANCH   8  10
ATOM     10  C   UNL     1       5.355  -9.841  -3.914  0.00  0.00    +0.000 C 
BRANCH  10  11
ATOM     11  C   UNL     1       4.364  -9.103  -4.808  0.00  0.00    +0.000 C 
ATOM     12  C   UNL     1       4.661  -9.236  -6.314  0.00  0.00    +0.000 C 
ATOM     13  N   UNL     1       4.524  -7.784  -6.474  0.00  0.00    +0.000 NA
ATOM     14  C   UNL     1       4.545  -7.586  -5.019  0.00  0.00    +0.000 C 
ATOM     15  H   UNL     1       3.654  -7.498  -6.922  0.00  0.00    +0.000 HD
ENDBRANCH  10  11
ENDBRANCH   8  10
ENDBRANCH   1   4
BRANCH   1  16
ATOM     16  C   UNL     1       4.874  -5.931   0.001  0.00  0.00    +0.000 C 
BRANCH  16  17
ATOM     17  N   UNL     1       5.305  -4.664   0.611  0.00  0.00    +0.000 N 
ATOM     18  H   UNL     1       5.668  -4.743   1.561  0.00  0.00    +0.000 HD
BRANCH  17  22
ATOM     19  C   UNL     1       3.306  -1.040  -0.215  0.00  0.00    +0.000 A 
ATOM     20  C   UNL     1       2.838  -2.227  -0.778  0.00  0.00    +0.000 A 
ATOM     21  C   UNL     1       3.479  -3.436  -0.494  0.00  0.00    +0.000 A 
ATOM     22  C   UNL     1       4.578  -3.497   0.375  0.00  0.00    +0.000 A 
ATOM     23  C   UNL     1       5.048  -2.292   0.913  0.00  0.00    +0.000 A 
ATOM     24  C   UNL     1       4.426  -1.072   0.620  0.00  0.00    +0.000 A 
BRANCH  19  26
ATOM     25  N   UNL     1       1.340   0.246  -0.851  0.00  0.00    +0.000 N 
ATOM     26  C   UNL     1       2.667   0.266  -0.518  0.00  0.00    +0.000 C 
ATOM     27  O   UNL     1       3.284   1.319  -0.447  0.00  0.00    +0.000 OA
ATOM     28  H   UNL     1       0.892   1.148  -0.962  0.00  0.00    +0.000 HD
ATOM     29  H   UNL     1       0.749  -0.553  -0.681  0.00  0.00    +0.000 HD
ENDBRANCH  19  26
ENDBRANCH  17  22
ENDBRANCH  16  17
ENDBRANCH   1  16
TORSDOF 7
