REMARK  Name = 
REMARK  4 active torsions:
REMARK  status: ('A' for Active; 'I' for Inactive)
REMARK    1  A    between atoms: N_1  and  C_2
REMARK    2  A    between atoms: C_2  and  C_3
REMARK    3  A    between atoms: C_6  and  C_7
REMARK    4  A    between atoms: C_7  and  N_8
REMARK                            x       y       z     vdW  Elec       q    Type
REMARK                         _______ _______ _______ _____ _____    ______ ____
ROOT
ATOM      1  C   UNL     1       3.732  -5.291   1.871  0.00  0.00    +0.000 C 
ENDROOT
BRANCH   1   2
ATOM      2  N   UNL     1       5.036  -5.929   1.752  0.00  0.00    +0.000 N 
ATOM      3  C   UNL     1       5.441  -6.627   0.642  0.00  0.00    +0.000 A 
ATOM      4  N   UNL     1       6.204  -7.647   0.964  0.00  0.00    +0.000 NA
ATOM      5  C   UNL     1       6.385  -7.554   2.322  0.00  0.00    +0.000 A 
ATOM      6  C   UNL     1       7.044  -8.408   3.214  0.00  0.00    +0.000 A 
ATOM      7  N   UNL     1       7.147  -8.080   4.530  0.00  0.00    +0.000 NA
ATOM      8  C   UNL     1       6.609  -6.913   4.945  0.00  0.00    +0.000 A 
ATOM      9 CL   UNL     1       6.862  -6.574   6.610  0.00  0.00    +0.000 Cl
ATOM     10  C   UNL     1       5.885  -6.025   4.159  0.00  0.00    +0.000 A 
ATOM     11  C   UNL     1       5.767  -6.408   2.822  0.00  0.00    +0.000 A 
ENDBRANCH   1   2
BRANCH   1  15
ATOM     12  C   UNL     1       2.971  -1.462   0.195  0.00  0.00    +0.000 A 
ATOM     13  C   UNL     1       3.453  -1.525   1.500  0.00  0.00    +0.000 A 
ATOM     14  C   UNL     1       3.775  -2.767   2.042  0.00  0.00    +0.000 A 
ATOM     15  C   UNL     1       3.615  -3.924   1.273  0.00  0.00    +0.000 A 
ATOM     16  C   UNL     1       3.179  -3.756  -0.039  0.00  0.00    +0.000 A 
ATOM     17  N   UNL     1       2.861  -2.561  -0.590  0.00  0.00    +0.000 NA
BRANCH  12  18
ATOM     18  C   UNL     1       2.513  -0.140  -0.389  0.00  0.00    +0.000 C 
BRANCH  18  19
ATOM     19  N   UNL     1       3.581   0.862  -0.448  0.00  0.00    +0.000 NA
ATOM     20  H   UNL     1       3.239   1.665  -0.973  0.00  0.00    +0.000 HD
ATOM     21  H   UNL     1       4.342   0.471  -1.003  0.00  0.00    +0.000 HD
ENDBRANCH  18  19
ENDBRANCH  12  18
ENDBRANCH   1  15
TORSDOF 4
