REMARK  Name = 
REMARK  6 active torsions:
REMARK  status: ('A' for Active; 'I' for Inactive)
REMARK    1  A    between atoms: N_1  and  C_2
REMARK    2  A    between atoms: C_2  and  C_3
REMARK    3  A    between atoms: C_3  and  C_4
REMARK    4  A    between atoms: C_7  and  S_8
REMARK    5  A    between atoms: S_8  and  C_9
REMARK    6  A    between atoms: C_9  and  C_10
REMARK                            x       y       z     vdW  Elec       q    Type
REMARK                         _______ _______ _______ _____ _____    ______ ____
ROOT
ATOM      1  C   UNL     1       4.416   1.150   0.958  0.00  0.00    +0.000 A 
ATOM      2  C   UNL     1       5.140   2.210   1.505  0.00  0.00    +0.000 A 
ATOM      3  C   UNL     1       6.533   2.197   1.450  0.00  0.00    +0.000 A 
ATOM      4  C   UNL     1       7.170   1.130   0.827  0.00  0.00    +0.000 A 
ATOM      5  N   UNL     1       6.492   0.093   0.290  0.00  0.00    +0.000 NA
ATOM      6  C   UNL     1       5.143   0.121   0.371  0.00  0.00    +0.000 A 
ENDROOT
BRANCH   1   7
ATOM      7  C   UNL     1       2.912   1.122   0.980  0.00  0.00    +0.000 C 
BRANCH   7   8
ATOM      8  C   UNL     1       2.303   1.771  -0.269  0.00  0.00    +0.000 C 
BRANCH   8   9
ATOM      9  N   UNL     1       0.843   1.722  -0.223  0.00  0.00    +0.000 NA
ATOM     10  H   UNL     1       0.463   2.166  -1.059  0.00  0.00    +0.000 HD
ATOM     11  H   UNL     1       0.502   2.271   0.566  0.00  0.00    +0.000 HD
ENDBRANCH   8   9
ENDBRANCH   7   8
ENDBRANCH   1   7
BRANCH   4  12
ATOM     12  S   UNL     1       8.951   1.104   0.736  0.00  0.00    +0.000 S 
BRANCH  12  13
ATOM     13  C   UNL     1       9.159   0.024  -0.714  0.00  0.00    +0.000 C 
BRANCH  13  14
ATOM     14  C   UNL     1      10.611  -0.179  -1.067  0.00  0.00    +0.000 A 
ATOM     15  C   UNL     1      11.310  -1.294  -0.595  0.00  0.00    +0.000 A 
ATOM     16  C   UNL     1      12.638  -1.454  -0.964  0.00  0.00    +0.000 A 
ATOM     17  N   UNL     1      13.308  -0.588  -1.754  0.00  0.00    +0.000 NA
ATOM     18  C   UNL     1      12.621   0.490  -2.186  0.00  0.00    +0.000 A 
ATOM     19  C   UNL     1      11.293   0.737  -1.874  0.00  0.00    +0.000 A 
ENDBRANCH  13  14
ENDBRANCH  12  13
ENDBRANCH   4  12
TORSDOF 6
