REMARK  Name = 
REMARK  5 active torsions:
REMARK  status: ('A' for Active; 'I' for Inactive)
REMARK    1  A    between atoms: N_1  and  C_2
REMARK    2  A    between atoms: C_2  and  C_3
REMARK    3  A    between atoms: C_3  and  C_4
REMARK    4  A    between atoms: C_7  and  C_8
REMARK    5  A    between atoms: C_8  and  C_9
REMARK                            x       y       z     vdW  Elec       q    Type
REMARK                         _______ _______ _______ _____ _____    ______ ____
ROOT
ATOM      1  C   UNL     1       4.506  -0.953   1.093  0.00  0.00    +0.000 A 
ATOM      2  C   UNL     1       5.189   0.270   1.078  0.00  0.00    +0.000 A 
ATOM      3  C   UNL     1       6.584   0.311   1.145  0.00  0.00    +0.000 A 
ATOM      4  C   UNL     1       7.330  -0.869   1.250  0.00  0.00    +0.000 A 
ATOM      5  C   UNL     1       6.646  -2.092   1.284  0.00  0.00    +0.000 A 
ATOM      6  C   UNL     1       5.250  -2.134   1.199  0.00  0.00    +0.000 A 
ENDROOT
BRANCH   1   7
ATOM      7  C   UNL     1       2.995  -0.999   1.040  0.00  0.00    +0.000 C 
BRANCH   7   8
ATOM      8  C   UNL     1       2.415  -0.344  -0.222  0.00  0.00    +0.000 C 
BRANCH   8   9
ATOM      9  N   UNL     1       0.954  -0.402  -0.230  0.00  0.00    +0.000 NA
ATOM     10  H   UNL     1       0.605   0.071  -1.063  0.00  0.00    +0.000 HD
ATOM     11  H   UNL     1       0.585   0.116   0.567  0.00  0.00    +0.000 HD
ENDBRANCH   8   9
ENDBRANCH   7   8
ENDBRANCH   1   7
BRANCH   4  12
ATOM     12  C   UNL     1       8.838  -0.835   1.324  0.00  0.00    +0.000 C 
BRANCH  12  13
ATOM     13  C   UNL     1       9.381  -0.757   2.711  0.00  0.00    +0.000 A 
ATOM     14  N   UNL     1       9.652  -1.782   3.498  0.00  0.00    +0.000 NA
ATOM     15  N   UNL     1      10.271  -1.311   4.634  0.00  0.00    +0.000 NA
ATOM     16  C   UNL     1      10.375  -0.008   4.524  0.00  0.00    +0.000 A 
ATOM     17  C   UNL     1      10.962   0.986   5.355  0.00  0.00    +0.000 A 
ATOM     18  C   UNL     1      10.919   2.272   4.968  0.00  0.00    +0.000 A 
ATOM     19  F   UNL     1      11.484   3.232   5.729  0.00  0.00    +0.000 F 
ATOM     20  C   UNL     1      10.280   2.684   3.731  0.00  0.00    +0.000 A 
ATOM     21  C   UNL     1       9.735   1.746   2.937  0.00  0.00    +0.000 A 
ATOM     22  N   UNL     1       9.793   0.407   3.331  0.00  0.00    +0.000 N 
ENDBRANCH  12  13
ENDBRANCH   4  12
TORSDOF 5
