REMARK  Name = 
REMARK  6 active torsions:
REMARK  status: ('A' for Active; 'I' for Inactive)
REMARK    1  A    between atoms: C_1  and  C_2
REMARK    2  A    between atoms: C_2  and  O_3
REMARK    3  A    between atoms: C_2  and  C_13
REMARK    4  A    between atoms: O_3  and  C_4
REMARK    5  A    between atoms: C_7  and  C_8
REMARK    6  A    between atoms: C_8  and  O_10
REMARK                            x       y       z     vdW  Elec       q    Type
REMARK                         _______ _______ _______ _____ _____    ______ ____
ROOT
ATOM      1  C   UNL     1       2.563  -1.321  -1.999  0.00  0.00    +0.000 A 
ATOM      2  C   UNL     1       2.362  -1.181  -3.376  0.00  0.00    +0.000 A 
ATOM      3  C   UNL     1       2.084  -2.295  -4.175  0.00  0.00    +0.000 A 
ATOM      4  C   UNL     1       2.004  -3.564  -3.590  0.00  0.00    +0.000 A 
ATOM      5  C   UNL     1       2.276  -3.714  -2.226  0.00  0.00    +0.000 A 
ATOM      6  C   UNL     1       2.561  -2.596  -1.435  0.00  0.00    +0.000 A 
ENDROOT
BRANCH   4   7
ATOM      7  C   UNL     1       1.666  -4.780  -4.371  0.00  0.00    +0.000 C 
ATOM      8  O   UNL     1       2.097  -5.886  -4.096  0.00  0.00    +0.000 OA
BRANCH   7   9
ATOM      9  O   UNL     1       0.787  -4.557  -5.371  0.00  0.00    +0.000 OA
ATOM     10  H   UNL     1       0.371  -3.676  -5.366  0.00  0.00    +0.000 HD
ENDBRANCH   7   9
ENDBRANCH   4   7
BRANCH   1  11
ATOM     11  O   UNL     1       2.762  -0.152  -1.317  0.00  0.00    +0.000 OA
BRANCH  11  13
ATOM     12  C   UNL     1       0.886  -0.232   0.246  0.00  0.00    +0.000 C 
ATOM     13  C   UNL     1       2.407  -0.109   0.077  0.00  0.00    +0.000 C 
BRANCH  13  14
ATOM     14  C   UNL     1       2.929   1.223   0.689  0.00  0.00    +0.000 C 
ATOM     15  C   UNL     1       2.317   2.471   0.025  0.00  0.00    +0.000 C 
ATOM     16  C   UNL     1       2.895   3.769   0.587  0.00  0.00    +0.000 C 
ATOM     17  C   UNL     1       4.413   3.793   0.483  0.00  0.00    +0.000 C 
ATOM     18  C   UNL     1       5.025   2.589   1.188  0.00  0.00    +0.000 C 
ATOM     19  C   UNL     1       4.470   1.278   0.637  0.00  0.00    +0.000 C 
ENDBRANCH  13  14
ENDBRANCH  11  13
ENDBRANCH   1  11
TORSDOF 5
