REMARK  Name = 
REMARK  10 active torsions:
REMARK  status: ('A' for Active; 'I' for Inactive)
REMARK    1  A    between atoms: N_1  and  C_2
REMARK    2  A    between atoms: C_2  and  C_3
REMARK    3  A    between atoms: C_3  and  N_4
REMARK    4  A    between atoms: N_4  and  C_5
REMARK    5  A    between atoms: C_5  and  C_6
REMARK    6  A    between atoms: C_9  and  C_10
REMARK    7  A    between atoms: C_10  and  N_11
REMARK    8  A    between atoms: N_11  and  C_12
REMARK    9  A    between atoms: C_12  and  C_13
REMARK   10  A    between atoms: C_20  and  C_22
REMARK                            x       y       z     vdW  Elec       q    Type
REMARK                         _______ _______ _______ _____ _____    ______ ____
ROOT
ATOM      1  N   UNL     1       6.627  -0.124  -0.262  0.00  0.00    +0.000 N 
ATOM      2  C   UNL     1       7.190  -0.888  -1.311  0.00  0.00    +0.000 C 
ATOM      3  O   UNL     1       8.336  -1.328  -1.222  0.00  0.00    +0.000 OA
ENDROOT
BRANCH   2   4
ATOM      4  C   UNL     1       6.398  -1.166  -2.532  0.00  0.00    +0.000 A 
ATOM      5  C   UNL     1       5.616  -0.235  -3.200  0.00  0.00    +0.000 A 
ATOM      6  S   UNL     1       4.863  -0.839  -4.609  0.00  0.00    +0.000 S 
ATOM      7  C   UNL     1       5.671  -2.321  -4.463  0.00  0.00    +0.000 A 
ATOM      8  N   UNL     1       5.553  -3.276  -5.426  0.00  0.00    +0.000 NA
ATOM      9  C   UNL     1       6.254  -4.337  -5.205  0.00  0.00    +0.000 A 
ATOM     10  N   UNL     1       7.035  -4.548  -4.099  0.00  0.00    +0.000 N 
ATOM     11  C   UNL     1       7.075  -3.663  -3.031  0.00  0.00    +0.000 A 
ATOM     12  O   UNL     1       7.562  -3.997  -1.960  0.00  0.00    +0.000 OA
ATOM     13  C   UNL     1       6.407  -2.401  -3.292  0.00  0.00    +0.000 A 
ATOM     14  H   UNL     1       7.496  -5.432  -3.949  0.00  0.00    +0.000 HD
ENDBRANCH   2   4
BRANCH   1  15
ATOM     15  C   UNL     1       7.459   0.100   0.935  0.00  0.00    +0.000 C 
BRANCH  15  16
ATOM     16  C   UNL     1       8.635   1.101   0.811  0.00  0.00    +0.000 C 
BRANCH  16  17
ATOM     17  N   UNL     1       8.257   2.512   0.659  0.00  0.00    +0.000 NA
ATOM     18  H   UNL     1       9.116   3.054   0.540  0.00  0.00    +0.000 HD
ATOM     19  H   UNL     1       7.859   2.851   1.536  0.00  0.00    +0.000 HD
ENDBRANCH  16  17
ENDBRANCH  15  16
ENDBRANCH   1  15
BRANCH   1  20
ATOM     20  C   UNL     1       5.218   0.257  -0.270  0.00  0.00    +0.000 C 
BRANCH  20  21
ATOM     21  C   UNL     1       4.511   0.634   0.996  0.00  0.00    +0.000 A 
ATOM     22  C   UNL     1       3.917  -0.319   1.825  0.00  0.00    +0.000 A 
ATOM     23  C   UNL     1       3.055   0.096   2.841  0.00  0.00    +0.000 A 
ATOM     24  C   UNL     1       2.816   1.460   3.008  0.00  0.00    +0.000 A 
ATOM     25  N   UNL     1       3.468   2.395   2.270  0.00  0.00    +0.000 NA
ATOM     26  C   UNL     1       4.286   1.971   1.289  0.00  0.00    +0.000 A 
BRANCH  24  27
ATOM     27  C   UNL     1       1.790   1.952   4.023  0.00  0.00    +0.000 C 
BRANCH  27  28
ATOM     28  N   UNL     1       1.159   3.210   3.601  0.00  0.00    +0.000 NA
ATOM     29  H   UNL     1       0.769   3.090   2.667  0.00  0.00    +0.000 HD
BRANCH  28  30
ATOM     30  C   UNL     1       0.176   3.725   4.541  0.00  0.00    +0.000 C 
BRANCH  30  31
ATOM     31  C   UNL     1      -0.434   5.044   4.022  0.00  0.00    +0.000 C 
ATOM     32  C   UNL     1       0.577   6.175   3.842  0.00  0.00    +0.000 C 
ATOM     33  C   UNL     1       0.502   6.937   5.148  0.00  0.00    +0.000 C 
ATOM     34  N   UNL     1      -0.920   6.909   5.502  0.00  0.00    +0.000 NA
ATOM     35  C   UNL     1      -1.443   5.620   5.023  0.00  0.00    +0.000 C 
ATOM     36  H   UNL     1      -1.391   7.658   4.993  0.00  0.00    +0.000 HD
ENDBRANCH  30  31
ENDBRANCH  28  30
ENDBRANCH  27  28
ENDBRANCH  24  27
ENDBRANCH  20  21
ENDBRANCH   1  20
TORSDOF 10
