REMARK  Name = 
REMARK  7 active torsions:
REMARK  status: ('A' for Active; 'I' for Inactive)
REMARK    1  A    between atoms: N_1  and  C_2
REMARK    2  A    between atoms: C_2  and  C_3
REMARK    3  A    between atoms: C_2  and  C_24
REMARK    4  A    between atoms: C_3  and  N_4
REMARK    5  A    between atoms: C_7  and  C_8
REMARK    6  A    between atoms: C_8  and  N_9
REMARK    7  A    between atoms: C_10  and  C_12
REMARK                            x       y       z     vdW  Elec       q    Type
REMARK                         _______ _______ _______ _____ _____    ______ ____
ROOT
ATOM      1  N   UNL     1       0.414  -1.144  -0.944  0.00  0.00    +0.000 NA
ATOM      2  C   UNL     1       0.931  -2.493  -0.677  0.00  0.00    +0.000 C 
ATOM      3  C   UNL     1       0.210  -3.601  -1.452  0.00  0.00    +0.000 C 
ATOM      4  C   UNL     1      -1.310  -3.555  -1.268  0.00  0.00    +0.000 C 
ATOM      5  C   UNL     1      -1.771  -2.146  -1.670  0.00  0.00    +0.000 C 
ATOM      6  C   UNL     1      -1.052  -1.053  -0.869  0.00  0.00    +0.000 C 
ENDROOT
BRANCH   1   7
ATOM      7  C   UNL     1       1.037  -0.125  -0.044  0.00  0.00    +0.000 C 
BRANCH   7   8
ATOM      8  C   UNL     1       2.597   0.007  -0.097  0.00  0.00    +0.000 C 
BRANCH   8   9
ATOM      9  C   UNL     1       3.108   1.084   0.866  0.00  0.00    +0.000 A 
ATOM     10  C   UNL     1       4.013   0.751   1.877  0.00  0.00    +0.000 A 
ATOM     11  C   UNL     1       4.582   1.768   2.641  0.00  0.00    +0.000 A 
ATOM     12  C   UNL     1       4.239   3.088   2.383  0.00  0.00    +0.000 A 
ATOM     13  C   UNL     1       3.326   3.338   1.373  0.00  0.00    +0.000 A 
ATOM     14  N   UNL     1       2.760   2.374   0.611  0.00  0.00    +0.000 NA
ENDBRANCH   8   9
BRANCH   8  15
ATOM     15  N   UNL     1       3.077   0.290  -1.468  0.00  0.00    +0.000 NA
ATOM     16  H   UNL     1       4.073   0.498  -1.422  0.00  0.00    +0.000 HD
ATOM     17  H   UNL     1       2.639   1.172  -1.743  0.00  0.00    +0.000 HD
ENDBRANCH   8  15
ENDBRANCH   7   8
ENDBRANCH   1   7
BRANCH   4  18
ATOM     18  C   UNL     1      -1.772  -3.905   0.162  0.00  0.00    +0.000 C 
BRANCH  18  19
ATOM     19  N   UNL     1      -1.402  -5.241   0.590  0.00  0.00    +0.000 N 
ATOM     20  C   UNL     1      -2.160  -6.346   0.288  0.00  0.00    +0.000 C 
ATOM     21  O   UNL     1      -3.164  -6.273  -0.416  0.00  0.00    +0.000 OA
ATOM     22  H   UNL     1      -0.669  -5.320   1.288  0.00  0.00    +0.000 HD
BRANCH  20  23
ATOM     23  C   UNL     1      -1.695  -7.638   0.814  0.00  0.00    +0.000 A 
ATOM     24  C   UNL     1      -2.097  -8.809   0.186  0.00  0.00    +0.000 A 
ATOM     25  S   UNL     1      -1.494 -10.225   0.916  0.00  0.00    +0.000 S 
ATOM     26  C   UNL     1      -0.707  -9.328   2.128  0.00  0.00    +0.000 A 
ATOM     27  N   UNL     1      -0.026  -9.953   3.123  0.00  0.00    +0.000 NA
ATOM     28  C   UNL     1       0.485  -9.158   4.003  0.00  0.00    +0.000 A 
ATOM     29  N   UNL     1       0.393  -7.791   3.964  0.00  0.00    +0.000 N 
ATOM     30  C   UNL     1      -0.226  -7.114   2.938  0.00  0.00    +0.000 A 
ATOM     31  O   UNL     1      -0.191  -5.887   2.871  0.00  0.00    +0.000 OA
ATOM     32  C   UNL     1      -0.868  -7.964   1.954  0.00  0.00    +0.000 A 
ATOM     33  H   UNL     1       0.842  -7.228   4.668  0.00  0.00    +0.000 HD
ENDBRANCH  20  23
ENDBRANCH  18  19
ENDBRANCH   4  18
TORSDOF 7
