REMARK  Name = 
REMARK  8 active torsions:
REMARK  status: ('A' for Active; 'I' for Inactive)
REMARK    1  A    between atoms: C_1  and  C_2
REMARK    2  A    between atoms: C_2  and  O_3
REMARK    3  A    between atoms: C_5  and  O_6
REMARK    4  A    between atoms: O_6  and  C_7
REMARK    5  A    between atoms: C_9  and  C_10
REMARK    6  A    between atoms: C_10  and  C_13
REMARK    7  A    between atoms: C_13  and  N_14
REMARK    8  A    between atoms: C_18  and  C_19
REMARK                            x       y       z     vdW  Elec       q    Type
REMARK                         _______ _______ _______ _____ _____    ______ ____
ROOT
ATOM      1  C   UNL     1       6.991  -4.752   0.707  0.00  0.00    +0.000 C 
ATOM      2  F   UNL     1       6.016  -5.089   1.606  0.00  0.00    +0.000 F 
ATOM      3  F   UNL     1       6.485  -5.113  -0.516  0.00  0.00    +0.000 F 
ENDROOT
BRANCH   1   6
ATOM      4  C   UNL     1       6.499  -0.984   0.605  0.00  0.00    +0.000 A 
ATOM      5  C   UNL     1       6.240  -2.346   0.513  0.00  0.00    +0.000 A 
ATOM      6  C   UNL     1       7.280  -3.255   0.759  0.00  0.00    +0.000 A 
ATOM      7  C   UNL     1       8.541  -2.721   1.061  0.00  0.00    +0.000 A 
ATOM      8  C   UNL     1       8.701  -1.344   1.111  0.00  0.00    +0.000 A 
ATOM      9  N   UNL     1       7.707  -0.463   0.899  0.00  0.00    +0.000 NA
BRANCH   4  10
ATOM     10  O   UNL     1       5.443  -0.122   0.391  0.00  0.00    +0.000 OA
BRANCH  10  14
ATOM     11  C   UNL     1       3.339   2.382   3.461  0.00  0.00    +0.000 C 
ATOM     12  C   UNL     1       3.928   1.408   2.454  0.00  0.00    +0.000 C 
ATOM     13  C   UNL     1       5.457   1.184   2.590  0.00  0.00    +0.000 C 
ATOM     14  C   UNL     1       5.540   1.171   1.039  0.00  0.00    +0.000 C 
ATOM     15  C   UNL     1       4.224   1.993   1.046  0.00  0.00    +0.000 C 
BRANCH  12  16
ATOM     16  O   UNL     1       3.120   0.209   2.442  0.00  0.00    +0.000 OA
ATOM     17  H   UNL     1       3.187  -0.159   3.339  0.00  0.00    +0.000 HD
ENDBRANCH  12  16
ENDBRANCH  10  14
ENDBRANCH   4  10
ENDBRANCH   1   6
BRANCH   1  18
ATOM     18  C   UNL     1       8.233  -5.648   0.973  0.00  0.00    +0.000 C 
BRANCH  18  19
ATOM     19  N   UNL     1       7.981  -7.107   0.920  0.00  0.00    +0.000 N 
ATOM     20  C   UNL     1       9.147  -7.877   1.076  0.00  0.00    +0.000 A 
ATOM     21  C   UNL     1       9.043  -9.266   1.042  0.00  0.00    +0.000 A 
ATOM     22  C   UNL     1      10.188 -10.052   1.213  0.00  0.00    +0.000 A 
ATOM     23  C   UNL     1      11.420  -9.436   1.421  0.00  0.00    +0.000 A 
ATOM     24  C   UNL     1      11.429  -8.053   1.460  0.00  0.00    +0.000 A 
ATOM     25 CL   UNL     1      12.861  -7.127   1.705  0.00  0.00    +0.000 Cl
ATOM     26  N   UNL     1      10.331  -7.274   1.300  0.00  0.00    +0.000 NA
ATOM     27  H   UNL     1       7.486  -7.376   0.071  0.00  0.00    +0.000 HD
BRANCH  23  28
ATOM     28  C   UNL     1      12.606 -10.218   1.584  0.00  0.00    +0.000 C 
ATOM     29  N   UNL     1      13.551 -10.875   1.709  0.00  0.00    +0.000 NA
ENDBRANCH  23  28
ENDBRANCH  18  19
ENDBRANCH   1  18
TORSDOF 7
