REMARK  Name = 
REMARK  8 active torsions:
REMARK  status: ('A' for Active; 'I' for Inactive)
REMARK    1  A    between atoms: C_1  and  C_2
REMARK    2  A    between atoms: C_2  and  C_3
REMARK    3  A    between atoms: C_2  and  C_4
REMARK    4  A    between atoms: C_2  and  C_22
REMARK    5  A    between atoms: C_5  and  C_6
REMARK    6  A    between atoms: C_10  and  C_11
REMARK    7  A    between atoms: C_14  and  C_15
REMARK    8  A    between atoms: C_25  and  O_26
REMARK                            x       y       z     vdW  Elec       q    Type
REMARK                         _______ _______ _______ _____ _____    ______ ____
ROOT
ATOM      1  C   UNL     1       3.134  -0.230   3.736  0.00  0.00    +0.000 A 
ATOM      2  C   UNL     1       2.338  -0.053   4.863  0.00  0.00    +0.000 A 
ATOM      3  N   UNL     1       2.716  -0.371   6.121  0.00  0.00    +0.000 NA
ATOM      4  C   UNL     1       3.962  -0.884   6.264  0.00  0.00    +0.000 A 
ATOM      5  C   UNL     1       4.875  -1.091   5.226  0.00  0.00    +0.000 A 
ATOM      6  C   UNL     1       4.421  -0.744   3.942  0.00  0.00    +0.000 A 
ENDROOT
BRANCH   5   7
ATOM      7  C   UNL     1       6.238  -1.615   5.463  0.00  0.00    +0.000 A 
ATOM      8  C   UNL     1       6.887  -2.438   4.525  0.00  0.00    +0.000 A 
ATOM      9  C   UNL     1       8.189  -2.911   4.737  0.00  0.00    +0.000 A 
ATOM     10  C   UNL     1       8.882  -2.584   5.910  0.00  0.00    +0.000 A 
ATOM     11  C   UNL     1       8.244  -1.776   6.860  0.00  0.00    +0.000 A 
ATOM     12  C   UNL     1       6.948  -1.299   6.637  0.00  0.00    +0.000 A 
BRANCH  10  13
ATOM     13  C   UNL     1      10.285  -3.077   6.156  0.00  0.00    +0.000 C 
ATOM     14  F   UNL     1      10.776  -3.852   5.149  0.00  0.00    +0.000 F 
ATOM     15  F   UNL     1      11.175  -2.058   6.309  0.00  0.00    +0.000 F 
ATOM     16  F   UNL     1      10.382  -3.830   7.287  0.00  0.00    +0.000 F 
ENDBRANCH  10  13
ENDBRANCH   5   7
BRANCH   1  18
ATOM     17  C   UNL     1       2.967  -0.398   1.256  0.00  0.00    +0.000 C 
ATOM     18  C   UNL     1       2.638   0.190   2.421  0.00  0.00    +0.000 C 
BRANCH  17  20
ATOM     19  C   UNL     1       2.970   1.466  -0.405  0.00  0.00    +0.000 C 
ATOM     20  C   UNL     1       2.444   0.038  -0.117  0.00  0.00    +0.000 C 
ATOM     21  C   UNL     1       3.070  -0.881  -1.196  0.00  0.00    +0.000 C 
BRANCH  20  22
ATOM     22  C   UNL     1       0.906  -0.072  -0.174  0.00  0.00    +0.000 A 
ATOM     23  C   UNL     1       0.077   1.039  -0.419  0.00  0.00    +0.000 A 
ATOM     24  C   UNL     1      -1.317   0.923  -0.426  0.00  0.00    +0.000 A 
ATOM     25  C   UNL     1      -1.904  -0.311  -0.186  0.00  0.00    +0.000 A 
ATOM     26  C   UNL     1      -1.119  -1.430   0.050  0.00  0.00    +0.000 A 
ATOM     27  C   UNL     1       0.275  -1.311   0.058  0.00  0.00    +0.000 A 
BRANCH  25  28
ATOM     28  O   UNL     1      -3.258  -0.461  -0.167  0.00  0.00    +0.000 OA
ATOM     29  H   UNL     1      -3.667   0.412  -0.288  0.00  0.00    +0.000 HD
ENDBRANCH  25  28
ENDBRANCH  20  22
ENDBRANCH  17  20
ENDBRANCH   1  18
TORSDOF 6
