REMARK  Name = 
REMARK  5 active torsions:
REMARK  status: ('A' for Active; 'I' for Inactive)
REMARK    1  A    between atoms: N_1  and  C_2
REMARK    2  A    between atoms: C_2  and  C_3
REMARK    3  A    between atoms: C_3  and  C_4
REMARK    4  A    between atoms: C_7  and  C_8
REMARK    5  A    between atoms: C_8  and  N_9
REMARK                            x       y       z     vdW  Elec       q    Type
REMARK                         _______ _______ _______ _____ _____    ______ ____
ROOT
ATOM      1  C   UNL     1       4.446  -0.222  -1.452  0.00  0.00    +0.000 A 
ATOM      2  C   UNL     1       5.095  -0.408  -2.679  0.00  0.00    +0.000 A 
ATOM      3  C   UNL     1       6.489  -0.353  -2.764  0.00  0.00    +0.000 A 
ATOM      4  C   UNL     1       7.266  -0.118  -1.621  0.00  0.00    +0.000 A 
ATOM      5  C   UNL     1       6.615   0.046  -0.390  0.00  0.00    +0.000 A 
ATOM      6  C   UNL     1       5.220  -0.014  -0.305  0.00  0.00    +0.000 A 
ENDROOT
BRANCH   1   7
ATOM      7  C   UNL     1       2.938  -0.214  -1.374  0.00  0.00    +0.000 C 
BRANCH   7   8
ATOM      8  C   UNL     1       2.337  -1.606  -1.157  0.00  0.00    +0.000 C 
BRANCH   8   9
ATOM      9  N   UNL     1       0.874  -1.541  -1.136  0.00  0.00    +0.000 NA
ATOM     10  H   UNL     1       0.495  -2.480  -1.024  0.00  0.00    +0.000 HD
ATOM     11  H   UNL     1       0.532  -1.201  -2.034  0.00  0.00    +0.000 HD
ENDBRANCH   8   9
ENDBRANCH   7   8
ENDBRANCH   1   7
BRANCH   4  12
ATOM     12  C   UNL     1       8.770  -0.038  -1.703  0.00  0.00    +0.000 C 
BRANCH  12  13
ATOM     13  N   UNL     1       9.253   1.320  -1.936  0.00  0.00    +0.000 N 
ATOM     14  N   UNL     1       9.533   2.114  -0.869  0.00  0.00    +0.000 NA
ATOM     15  C   UNL     1      10.087   3.199  -1.427  0.00  0.00    +0.000 A 
ATOM     16  C   UNL     1      10.188   3.098  -2.824  0.00  0.00    +0.000 A 
ATOM     17  N   UNL     1      10.711   3.946  -3.743  0.00  0.00    +0.000 NA
ATOM     18  C   UNL     1      10.651   3.499  -5.016  0.00  0.00    +0.000 A 
ATOM     19  C   UNL     1      10.105   2.287  -5.420  0.00  0.00    +0.000 A 
ATOM     20  C   UNL     1       9.568   1.425  -4.468  0.00  0.00    +0.000 A 
ATOM     21  C   UNL     1       9.630   1.865  -3.143  0.00  0.00    +0.000 A 
ENDBRANCH  12  13
ENDBRANCH   4  12
TORSDOF 5
