REMARK  Name = 
REMARK  5 active torsions:
REMARK  status: ('A' for Active; 'I' for Inactive)
REMARK    1  A    between atoms: C_2  and  C_4
REMARK    2  A    between atoms: C_7  and  O_8
REMARK    3  A    between atoms: O_8  and  C_9
REMARK    4  A    between atoms: C_9  and  C_10
REMARK    5  A    between atoms: C_12  and  C_13
REMARK                            x       y       z     vdW  Elec       q    Type
REMARK                         _______ _______ _______ _____ _____    ______ ____
ROOT
ATOM      1  C   UNL     1       4.628   5.722  -1.857  0.00  0.00    +0.000 C 
ENDROOT
BRANCH   1   2
ATOM      2  C   UNL     1       5.428   6.770  -2.599  0.00  0.00    +0.000 A 
ATOM      3  C   UNL     1       6.795   6.605  -2.813  0.00  0.00    +0.000 A 
ATOM      4  C   UNL     1       7.537   7.606  -3.455  0.00  0.00    +0.000 A 
ATOM      5  C   UNL     1       6.851   8.770  -3.822  0.00  0.00    +0.000 A 
ATOM      6  C   UNL     1       5.495   8.868  -3.563  0.00  0.00    +0.000 A 
ATOM      7  N   UNL     1       4.772   7.898  -2.964  0.00  0.00    +0.000 NA
BRANCH   4   8
ATOM      8  C   UNL     1       8.979   7.450  -3.719  0.00  0.00    +0.000 A 
ATOM      9  C   UNL     1       9.569   6.208  -3.966  0.00  0.00    +0.000 A 
ATOM     10  C   UNL     1      10.942   6.131  -4.180  0.00  0.00    +0.000 A 
ATOM     11  C   UNL     1      11.698   7.294  -4.151  0.00  0.00    +0.000 A 
ATOM     12  C   UNL     1      11.044   8.490  -3.917  0.00  0.00    +0.000 A 
ATOM     13  N   UNL     1       9.711   8.594  -3.708  0.00  0.00    +0.000 NA
ENDBRANCH   4   8
ENDBRANCH   1   2
BRANCH   1  14
ATOM     14  O   UNL     1       5.156   4.407  -2.073  0.00  0.00    +0.000 OA
BRANCH  14  18
ATOM     15  C   UNL     1       3.407   1.121  -0.190  0.00  0.00    +0.000 A 
ATOM     16  C   UNL     1       2.858   2.388   0.030  0.00  0.00    +0.000 A 
ATOM     17  C   UNL     1       3.418   3.514  -0.582  0.00  0.00    +0.000 A 
ATOM     18  C   UNL     1       4.532   3.384  -1.413  0.00  0.00    +0.000 A 
ATOM     19  C   UNL     1       5.091   2.118  -1.615  0.00  0.00    +0.000 A 
ATOM     20  C   UNL     1       4.538   0.990  -1.001  0.00  0.00    +0.000 A 
BRANCH  15  22
ATOM     21  N   UNL     1       1.485  -0.068   0.710  0.00  0.00    +0.000 N 
ATOM     22  C   UNL     1       2.825  -0.093   0.438  0.00  0.00    +0.000 C 
ATOM     23  O   UNL     1       3.501  -1.086   0.670  0.00  0.00    +0.000 OA
ATOM     24  H   UNL     1       1.077  -0.934   1.039  0.00  0.00    +0.000 HD
ATOM     25  H   UNL     1       0.864   0.615   0.301  0.00  0.00    +0.000 HD
ENDBRANCH  15  22
ENDBRANCH  14  18
ENDBRANCH   1  14
TORSDOF 5
