REMARK  Name = 
REMARK  6 active torsions:
REMARK  status: ('A' for Active; 'I' for Inactive)
REMARK    1  A    between atoms: N_1  and  C_2
REMARK    2  A    between atoms: C_2  and  C_3
REMARK    3  A    between atoms: C_6  and  C_7
REMARK    4  A    between atoms: C_7  and  N_8
REMARK    5  A    between atoms: C_13  and  C_14
REMARK    6  A    between atoms: C_14  and  O_16
REMARK                            x       y       z     vdW  Elec       q    Type
REMARK                         _______ _______ _______ _____ _____    ______ ____
ROOT
ATOM      1  N   UNL     1       5.889   4.500   1.202  0.00  0.00    +0.000 N 
ATOM      2  C   UNL     1       6.622   5.479   0.573  0.00  0.00    +0.000 A 
ATOM      3  C   UNL     1       7.934   5.357   0.974  0.00  0.00    +0.000 A 
ATOM      4  C   UNL     1       7.993   4.312   1.931  0.00  0.00    +0.000 A 
ATOM      5  C   UNL     1       9.015   3.734   2.703  0.00  0.00    +0.000 A 
ATOM      6  C   UNL     1       8.665   2.706   3.579  0.00  0.00    +0.000 A 
ATOM      7  C   UNL     1       7.341   2.278   3.613  0.00  0.00    +0.000 A 
ATOM      8  N   UNL     1       6.317   2.800   2.891  0.00  0.00    +0.000 NA
ATOM      9  C   UNL     1       6.701   3.804   2.071  0.00  0.00    +0.000 A 
ENDROOT
BRANCH   6  10
ATOM     10  C   UNL     1       9.727   2.079   4.394  0.00  0.00    +0.000 C 
ATOM     11  O   UNL     1      10.877   1.981   4.010  0.00  0.00    +0.000 OA
BRANCH  10  12
ATOM     12  O   UNL     1       9.323   1.667   5.616  0.00  0.00    +0.000 OA
ATOM     13  H   UNL     1       8.452   1.985   5.914  0.00  0.00    +0.000 HD
ENDBRANCH  10  12
ENDBRANCH   6  10
BRANCH   1  14
ATOM     14  C   UNL     1       4.476   4.244   0.955  0.00  0.00    +0.000 C 
BRANCH  14  18
ATOM     15  C   UNL     1       2.880   1.151  -0.542  0.00  0.00    +0.000 C 
ATOM     16  C   UNL     1       4.389   1.366  -0.330  0.00  0.00    +0.000 C 
ATOM     17  C   UNL     1       4.902   2.636  -1.006  0.00  0.00    +0.000 C 
ATOM     18  C   UNL     1       4.159   3.888  -0.519  0.00  0.00    +0.000 C 
ATOM     19  C   UNL     1       2.650   3.711  -0.758  0.00  0.00    +0.000 C 
ATOM     20  C   UNL     1       2.085   2.417  -0.170  0.00  0.00    +0.000 C 
BRANCH  15  21
ATOM     21  C   UNL     1       2.546   0.668  -1.970  0.00  0.00    +0.000 C 
BRANCH  21  22
ATOM     22  N   UNL     1       3.194  -0.608  -2.261  0.00  0.00    +0.000 NA
ATOM     23  H   UNL     1       2.916  -0.937  -3.184  0.00  0.00    +0.000 HD
ATOM     24  H   UNL     1       2.881  -1.314  -1.595  0.00  0.00    +0.000 HD
ENDBRANCH  21  22
ENDBRANCH  15  21
ENDBRANCH  14  18
ENDBRANCH   1  14
TORSDOF 6
