REMARK  Name = 
REMARK  4 active torsions:
REMARK  status: ('A' for Active; 'I' for Inactive)
REMARK    1  A    between atoms: C_2  and  C_4
REMARK    2  A    between atoms: N_8  and  C_9
REMARK    3  A    between atoms: C_9  and  C_10
REMARK    4  A    between atoms: C_14  and  C_15
REMARK                            x       y       z     vdW  Elec       q    Type
REMARK                         _______ _______ _______ _____ _____    ______ ____
ROOT
ATOM      1  C   UNL     1       6.215  -4.765  -2.078  0.00  0.00    +0.000 C 
ATOM      2  C   UNL     1       6.261  -5.594  -0.798  0.00  0.00    +0.000 C 
ATOM      3  C   UNL     1       7.007  -4.303  -0.869  0.00  0.00    +0.000 C 
ENDROOT
BRANCH   1   8
ATOM      4  C   UNL     1       4.098  -0.272  -3.331  0.00  0.00    +0.000 A 
ATOM      5  C   UNL     1       3.396  -1.329  -3.850  0.00  0.00    +0.000 A 
ATOM      6  N   UNL     1       3.673  -2.622  -3.568  0.00  0.00    +0.000 NA
ATOM      7  C   UNL     1       4.718  -2.867  -2.756  0.00  0.00    +0.000 A 
ATOM      8  N   UNL     1       4.902  -4.208  -2.421  0.00  0.00    +0.000 N 
ATOM      9  N   UNL     1       5.497  -1.900  -2.245  0.00  0.00    +0.000 NA
ATOM     10  C   UNL     1       5.170  -0.620  -2.543  0.00  0.00    +0.000 A 
ATOM     11  H   UNL     1       4.318  -4.745  -3.051  0.00  0.00    +0.000 HD
BRANCH   4  13
ATOM     12  N   UNL     1       2.480   1.445  -3.910  0.00  0.00    +0.000 N 
ATOM     13  C   UNL     1       3.775   1.138  -3.590  0.00  0.00    +0.000 C 
ATOM     14  O   UNL     1       4.624   2.012  -3.483  0.00  0.00    +0.000 OA
ATOM     15  H   UNL     1       2.261   2.432  -3.974  0.00  0.00    +0.000 HD
ATOM     16  H   UNL     1       1.704   0.816  -3.757  0.00  0.00    +0.000 HD
ENDBRANCH   4  13
ENDBRANCH   1   8
BRANCH   1  17
ATOM     17  C   UNL     1       7.020  -5.259  -3.277  0.00  0.00    +0.000 A 
ATOM     18  C   UNL     1       7.832  -4.383  -4.013  0.00  0.00    +0.000 A 
ATOM     19  C   UNL     1       8.642  -4.845  -5.049  0.00  0.00    +0.000 A 
ATOM     20  C   UNL     1       8.674  -6.206  -5.356  0.00  0.00    +0.000 A 
ATOM     21  C   UNL     1       7.883  -7.127  -4.650  0.00  0.00    +0.000 A 
ATOM     22  C   UNL     1       7.030  -6.617  -3.652  0.00  0.00    +0.000 A 
BRANCH  21  23
ATOM     23  C   UNL     1       7.985  -8.582  -4.871  0.00  0.00    +0.000 A 
ATOM     24  C   UNL     1       9.190  -9.217  -5.179  0.00  0.00    +0.000 A 
ATOM     25  N   UNL     1       9.322 -10.561  -5.313  0.00  0.00    +0.000 NA
ATOM     26  C   UNL     1       8.189 -11.267  -5.119  0.00  0.00    +0.000 A 
ATOM     27  C   UNL     1       6.985 -10.659  -4.811  0.00  0.00    +0.000 A 
ATOM     28  N   UNL     1       6.856  -9.317  -4.679  0.00  0.00    +0.000 NA
ENDBRANCH  21  23
ENDBRANCH   1  17
TORSDOF 4
