REMARK  Name = 
REMARK  4 active torsions:
REMARK  status: ('A' for Active; 'I' for Inactive)
REMARK    1  A    between atoms: C_1  and  O_2
REMARK    2  A    between atoms: O_2  and  C_3
REMARK    3  A    between atoms: C_6  and  C_7
REMARK    4  A    between atoms: C_7  and  C_8
REMARK                            x       y       z     vdW  Elec       q    Type
REMARK                         _______ _______ _______ _____ _____    ______ ____
ROOT
ATOM      1  C   UNL     1       5.080  -0.372   4.784  0.00  0.00    +0.000 C 
ATOM      2  C   UNL     1       5.204   0.783   5.784  0.00  0.00    +0.000 C 
ATOM      3  C   UNL     1       6.403   0.363   5.000  0.00  0.00    +0.000 C 
ENDROOT
BRANCH   1   7
ATOM      4  C   UNL     1       2.774   0.394   1.265  0.00  0.00    +0.000 A 
ATOM      5  C   UNL     1       2.295   0.587   2.539  0.00  0.00    +0.000 A 
ATOM      6  N   UNL     1       3.007   0.357   3.660  0.00  0.00    +0.000 NA
ATOM      7  C   UNL     1       4.274  -0.097   3.517  0.00  0.00    +0.000 A 
ATOM      8  N   UNL     1       4.841  -0.299   2.306  0.00  0.00    +0.000 NA
ATOM      9  C   UNL     1       4.075  -0.053   1.217  0.00  0.00    +0.000 A 
BRANCH   4  11
ATOM     10  C   UNL     1       0.764   1.019   0.197  0.00  0.00    +0.000 C 
ATOM     11  O   UNL     1       2.121   0.595   0.092  0.00  0.00    +0.000 OA
ENDBRANCH   4  11
ENDBRANCH   1   7
BRANCH   1  12
ATOM     12  C   UNL     1       4.988  -1.787   5.349  0.00  0.00    +0.000 A 
ATOM     13  C   UNL     1       5.852  -2.804   4.906  0.00  0.00    +0.000 A 
ATOM     14  C   UNL     1       5.858  -4.064   5.508  0.00  0.00    +0.000 A 
ATOM     15  C   UNL     1       4.986  -4.338   6.557  0.00  0.00    +0.000 A 
ATOM     16  C   UNL     1       4.080  -3.368   6.975  0.00  0.00    +0.000 A 
ATOM     17  C   UNL     1       4.074  -2.112   6.368  0.00  0.00    +0.000 A 
ENDBRANCH   1  12
TORSDOF 3
