REMARK  Name = 
REMARK  8 active torsions:
REMARK  status: ('A' for Active; 'I' for Inactive)
REMARK    1  A    between atoms: C_2  and  C_4
REMARK    2  A    between atoms: C_4  and  C_5
REMARK    3  A    between atoms: C_5  and  N_6
REMARK    4  A    between atoms: C_5  and  C_19
REMARK    5  A    between atoms: C_7  and  C_9
REMARK    6  A    between atoms: C_22  and  C_23
REMARK    7  A    between atoms: C_23  and  N_24
REMARK    8  A    between atoms: C_25  and  C_27
REMARK                            x       y       z     vdW  Elec       q    Type
REMARK                         _______ _______ _______ _____ _____    ______ ____
ROOT
ATOM      1  C   UNL     1       4.549   0.597  -0.890  0.00  0.00    +0.000 C 
ENDROOT
BRANCH   1   2
ATOM      2  C   UNL     1       5.350   1.594  -1.718  0.00  0.00    +0.000 A 
ATOM      3  C   UNL     1       5.040   2.962  -1.644  0.00  0.00    +0.000 A 
ATOM      4  C   UNL     1       5.683   3.895  -2.463  0.00  0.00    +0.000 A 
ATOM      5  C   UNL     1       6.661   3.489  -3.379  0.00  0.00    +0.000 A 
ATOM      6  C   UNL     1       7.024   2.136  -3.410  0.00  0.00    +0.000 A 
ATOM      7  C   UNL     1       6.375   1.199  -2.592  0.00  0.00    +0.000 A 
BRANCH   5   8
ATOM      8  C   UNL     1       7.272   4.476  -4.338  0.00  0.00    +0.000 C 
BRANCH   8   9
ATOM      9  N   UNL     1       8.444   5.135  -3.811  0.00  0.00    +0.000 N 
ATOM     10  C   UNL     1       9.194   5.985  -4.593  0.00  0.00    +0.000 C 
ATOM     11  O   UNL     1       8.882   6.277  -5.746  0.00  0.00    +0.000 OA
ATOM     12  H   UNL     1       8.831   4.852  -2.917  0.00  0.00    +0.000 HD
BRANCH  10  13
ATOM     13  C   UNL     1      10.393   6.612  -3.872  0.00  0.00    +0.000 C 
ATOM     14  C   UNL     1      11.520   6.973  -4.824  0.00  0.00    +0.000 C 
ATOM     15  C   UNL     1      12.718   6.996  -3.911  0.00  0.00    +0.000 C 
ATOM     16  C   UNL     1      12.401   5.892  -2.926  0.00  0.00    +0.000 C 
ATOM     17  O   UNL     1      10.971   5.764  -2.864  0.00  0.00    +0.000 OA
ENDBRANCH  10  13
ENDBRANCH   8   9
ENDBRANCH   5   8
ENDBRANCH   1   2
BRANCH   1  18
ATOM     18  N   UNL     1       5.405  -0.030   0.110  0.00  0.00    +0.000 N 
ATOM     19  C   UNL     1       4.923  -0.539   1.291  0.00  0.00    +0.000 C 
ATOM     20  O   UNL     1       3.730  -0.504   1.573  0.00  0.00    +0.000 OA
ATOM     21  H   UNL     1       6.406  -0.001  -0.056  0.00  0.00    +0.000 HD
BRANCH  19  22
ATOM     22  C   UNL     1       5.907  -1.168   2.185  0.00  0.00    +0.000 A 
ATOM     23  C   UNL     1       5.496  -2.100   3.127  0.00  0.00    +0.000 A 
ATOM     24  S   UNL     1       6.769  -2.710   4.089  0.00  0.00    +0.000 S 
ATOM     25  C   UNL     1       7.905  -1.708   3.318  0.00  0.00    +0.000 A 
ATOM     26  N   UNL     1       9.209  -1.686   3.710  0.00  0.00    +0.000 NA
ATOM     27  C   UNL     1       9.945  -0.837   3.076  0.00  0.00    +0.000 A 
ATOM     28  N   UNL     1       9.503  -0.030   2.060  0.00  0.00    +0.000 N 
ATOM     29  C   UNL     1       8.226  -0.090   1.565  0.00  0.00    +0.000 A 
ATOM     30  O   UNL     1       7.911   0.521   0.551  0.00  0.00    +0.000 OA
ATOM     31  C   UNL     1       7.332  -0.964   2.301  0.00  0.00    +0.000 A 
ATOM     32  H   UNL     1      10.141   0.577   1.567  0.00  0.00    +0.000 HD
ENDBRANCH  19  22
ENDBRANCH   1  18
BRANCH   1  33
ATOM     33  C   UNL     1       3.840  -0.465  -1.744  0.00  0.00    +0.000 C 
BRANCH  33  35
ATOM     34  N   UNL     1       1.866   0.871  -2.276  0.00  0.00    +0.000 N 
ATOM     35  C   UNL     1       2.903   0.135  -2.765  0.00  0.00    +0.000 C 
ATOM     36  O   UNL     1       3.025  -0.044  -3.972  0.00  0.00    +0.000 OA
ATOM     37  H   UNL     1       1.203   1.201  -2.968  0.00  0.00    +0.000 HD
ATOM     38  H   UNL     1       1.517   0.725  -1.338  0.00  0.00    +0.000 HD
ENDBRANCH  33  35
ENDBRANCH   1  33
TORSDOF 8
