REMARK  Name = 
REMARK  9 active torsions:
REMARK  status: ('A' for Active; 'I' for Inactive)
REMARK    1  A    between atoms: C_1  and  C_2
REMARK    2  A    between atoms: C_2  and  N_3
REMARK    3  A    between atoms: C_2  and  C_19
REMARK    4  A    between atoms: N_3  and  C_4
REMARK    5  A    between atoms: C_4  and  C_5
REMARK    6  A    between atoms: C_9  and  C_10
REMARK    7  A    between atoms: C_10  and  N_11
REMARK    8  A    between atoms: N_11  and  C_12
REMARK    9  A    between atoms: C_12  and  C_13
REMARK                            x       y       z     vdW  Elec       q    Type
REMARK                         _______ _______ _______ _____ _____    ______ ____
ROOT
ATOM      1  C   UNL     1       2.255  -0.242  -2.501  0.00  0.00    +0.000 C 
ENDROOT
BRANCH   1   2
ATOM      2  C   UNL     1       2.806   0.694  -3.560  0.00  0.00    +0.000 A 
ATOM      3  N   UNL     1       2.564   2.013  -3.416  0.00  0.00    +0.000 NA
ATOM      4  C   UNL     1       2.929   2.799  -4.443  0.00  0.00    +0.000 A 
ATOM      5  C   UNL     1       3.517   2.329  -5.594  0.00  0.00    +0.000 A 
ATOM      6  C   UNL     1       3.720   0.968  -5.658  0.00  0.00    +0.000 A 
ATOM      7  N   UNL     1       3.374   0.136  -4.646  0.00  0.00    +0.000 NA
BRANCH   6   8
ATOM      8  C   UNL     1       4.277   0.322  -6.911  0.00  0.00    +0.000 C 
BRANCH   8   9
ATOM      9  N   UNL     1       3.442  -0.783  -7.420  0.00  0.00    +0.000 NA
ATOM     10  H   UNL     1       3.284  -1.404  -6.620  0.00  0.00    +0.000 HD
BRANCH   9  11
ATOM     11  C   UNL     1       2.140  -0.301  -7.895  0.00  0.00    +0.000 C 
BRANCH  11  12
ATOM     12  C   UNL     1       1.258  -1.432  -8.439  0.00  0.00    +0.000 C 
ATOM     13  C   UNL     1       1.838  -2.145  -9.654  0.00  0.00    +0.000 C 
ATOM     14  C   UNL     1       0.595  -2.575 -10.392  0.00  0.00    +0.000 C 
ATOM     15  C   UNL     1      -0.338  -1.410 -10.143  0.00  0.00    +0.000 C 
ATOM     16  O   UNL     1      -0.018  -0.890  -8.853  0.00  0.00    +0.000 OA
ENDBRANCH  11  12
ENDBRANCH   9  11
ENDBRANCH   8   9
ENDBRANCH   6   8
ENDBRANCH   1   2
BRANCH   1  17
ATOM     17  N   UNL     1       3.081  -0.395  -1.285  0.00  0.00    +0.000 NA
ATOM     18  H   UNL     1       3.121   0.508  -0.799  0.00  0.00    +0.000 HD
BRANCH  17  20
ATOM     19  C   UNL     1       1.142  -1.040   0.219  0.00  0.00    +0.000 C 
ATOM     20  C   UNL     1       2.505  -1.408  -0.407  0.00  0.00    +0.000 C 
BRANCH  20  21
ATOM     21  C   UNL     1       3.490  -1.769   0.685  0.00  0.00    +0.000 A 
ATOM     22  C   UNL     1       4.077  -3.019   0.808  0.00  0.00    +0.000 A 
ATOM     23  S   UNL     1       4.758  -3.276   2.357  0.00  0.00    +0.000 S 
ATOM     24  C   UNL     1       4.376  -1.691   2.850  0.00  0.00    +0.000 A 
ATOM     25  N   UNL     1       4.565  -1.272   4.130  0.00  0.00    +0.000 NA
ATOM     26  C   UNL     1       4.283  -0.025   4.323  0.00  0.00    +0.000 A 
ATOM     27  N   UNL     1       3.873   0.850   3.348  0.00  0.00    +0.000 N 
ATOM     28  C   UNL     1       3.663   0.471   2.041  0.00  0.00    +0.000 A 
ATOM     29  O   UNL     1       3.342   1.282   1.177  0.00  0.00    +0.000 OA
ATOM     30  C   UNL     1       3.867  -0.945   1.805  0.00  0.00    +0.000 A 
ATOM     31  H   UNL     1       3.740   1.829   3.551  0.00  0.00    +0.000 HD
ENDBRANCH  20  21
ENDBRANCH  17  20
ENDBRANCH   1  17
TORSDOF 8
