REMARK  Name = 
REMARK  8 active torsions:
REMARK  status: ('A' for Active; 'I' for Inactive)
REMARK    1  A    between atoms: C_1  and  C_2
REMARK    2  A    between atoms: C_2  and  N_3
REMARK    3  A    between atoms: C_2  and  C_25
REMARK    4  A    between atoms: N_3  and  C_4
REMARK    5  A    between atoms: C_4  and  C_5
REMARK    6  A    between atoms: C_9  and  C_10
REMARK    7  A    between atoms: C_10  and  N_11
REMARK    8  A    between atoms: C_12  and  C_14
REMARK                            x       y       z     vdW  Elec       q    Type
REMARK                         _______ _______ _______ _____ _____    ______ ____
ROOT
ATOM      1  C   UNL     1      -1.134   1.361   0.185  0.00  0.00    +0.000 A 
ATOM      2  C   UNL     1      -1.865   2.463   0.632  0.00  0.00    +0.000 A 
ATOM      3  C   UNL     1      -3.247   2.430   0.528  0.00  0.00    +0.000 A 
ATOM      4  N   UNL     1      -3.942   1.385   0.028  0.00  0.00    +0.000 NA
ATOM      5  C   UNL     1      -3.229   0.310  -0.394  0.00  0.00    +0.000 A 
ATOM      6  C   UNL     1      -1.837   0.270  -0.338  0.00  0.00    +0.000 A 
ENDROOT
BRANCH   1   7
ATOM      7  C   UNL     1       0.373   1.383   0.109  0.00  0.00    +0.000 C 
BRANCH   7   8
ATOM      8  N   UNL     1       1.024   1.751   1.370  0.00  0.00    +0.000 NA
ATOM      9  H   UNL     1       0.748   1.063   2.073  0.00  0.00    +0.000 HD
BRANCH   8  11
ATOM     10  C   UNL     1       3.067   2.664   0.216  0.00  0.00    +0.000 C 
ATOM     11  C   UNL     1       2.506   1.676   1.246  0.00  0.00    +0.000 C 
BRANCH  11  12
ATOM     12  C   UNL     1       3.236   1.862   2.578  0.00  0.00    +0.000 A 
ATOM     13  C   UNL     1       2.711   2.643   3.608  0.00  0.00    +0.000 A 
ATOM     14  C   UNL     1       3.387   2.702   4.826  0.00  0.00    +0.000 A 
ATOM     15  C   UNL     1       4.583   2.014   4.977  0.00  0.00    +0.000 A 
ATOM     16  C   UNL     1       5.066   1.303   3.894  0.00  0.00    +0.000 A 
ATOM     17  N   UNL     1       4.421   1.208   2.710  0.00  0.00    +0.000 NA
ENDBRANCH  11  12
ENDBRANCH   8  11
ENDBRANCH   7   8
ENDBRANCH   1   7
BRANCH   5  18
ATOM     18  C   UNL     1      -3.994  -0.847  -0.990  0.00  0.00    +0.000 C 
BRANCH  18  19
ATOM     19  N   UNL     1      -4.181  -0.711  -2.419  0.00  0.00    +0.000 N 
ATOM     20  C   UNL     1      -3.380  -1.343  -3.332  0.00  0.00    +0.000 C 
ATOM     21  O   UNL     1      -2.435  -2.048  -2.985  0.00  0.00    +0.000 OA
ATOM     22  H   UNL     1      -4.802   0.037  -2.715  0.00  0.00    +0.000 HD
BRANCH  20  23
ATOM     23  C   UNL     1      -3.745  -1.198  -4.748  0.00  0.00    +0.000 A 
ATOM     24  C   UNL     1      -3.290  -2.134  -5.668  0.00  0.00    +0.000 A 
ATOM     25  S   UNL     1      -3.828  -1.852  -7.261  0.00  0.00    +0.000 S 
ATOM     26  C   UNL     1      -4.657  -0.444  -6.789  0.00  0.00    +0.000 A 
ATOM     27  N   UNL     1      -5.330   0.308  -7.702  0.00  0.00    +0.000 NA
ATOM     28  C   UNL     1      -5.890   1.365  -7.214  0.00  0.00    +0.000 A 
ATOM     29  N   UNL     1      -5.845   1.731  -5.895  0.00  0.00    +0.000 N 
ATOM     30  C   UNL     1      -5.225   0.974  -4.929  0.00  0.00    +0.000 A 
ATOM     31  O   UNL     1      -5.281   1.283  -3.745  0.00  0.00    +0.000 OA
ATOM     32  C   UNL     1      -4.546  -0.207  -5.430  0.00  0.00    +0.000 A 
ATOM     33  H   UNL     1      -6.320   2.560  -5.570  0.00  0.00    +0.000 HD
ENDBRANCH  20  23
ENDBRANCH  18  19
ENDBRANCH   5  18
TORSDOF 7
