REMARK  Name = 
REMARK  8 active torsions:
REMARK  status: ('A' for Active; 'I' for Inactive)
REMARK    1  A    between atoms: C_1  and  O_2
REMARK    2  A    between atoms: O_2  and  C_3
REMARK    3  A    between atoms: C_5  and  C_6
REMARK    4  A    between atoms: C_6  and  N_7
REMARK    5  A    between atoms: C_8  and  C_10
REMARK    6  A    between atoms: C_22  and  C_23
REMARK    7  A    between atoms: C_23  and  N_24
REMARK    8  A    between atoms: C_25  and  C_27
REMARK                            x       y       z     vdW  Elec       q    Type
REMARK                         _______ _______ _______ _____ _____    ______ ____
ROOT
ATOM      1  C   UNL     1       3.220   1.097   0.033  0.00  0.00    +0.000 A 
ATOM      2  C   UNL     1       2.832   2.126   0.909  0.00  0.00    +0.000 A 
ATOM      3  C   UNL     1       3.501   3.354   0.919  0.00  0.00    +0.000 A 
ATOM      4  C   UNL     1       4.568   3.488   0.046  0.00  0.00    +0.000 A 
ATOM      5  N   UNL     1       4.953   2.535  -0.833  0.00  0.00    +0.000 NA
ATOM      6  C   UNL     1       4.268   1.354  -0.859  0.00  0.00    +0.000 A 
ENDROOT
BRANCH   1   8
ATOM      7  C   UNL     1       3.099  -1.281   0.003  0.00  0.00    +0.000 C 
ATOM      8  O   UNL     1       2.438  -0.024   0.113  0.00  0.00    +0.000 OA
ENDBRANCH   1   8
BRANCH   3   9
ATOM      9  C   UNL     1       3.134   4.468   1.856  0.00  0.00    +0.000 C 
BRANCH   9  10
ATOM     10  N   UNL     1       3.857   4.364   3.101  0.00  0.00    +0.000 N 
ATOM     11  C   UNL     1       3.627   5.224   4.143  0.00  0.00    +0.000 C 
ATOM     12  O   UNL     1       2.751   6.084   4.096  0.00  0.00    +0.000 OA
ATOM     13  H   UNL     1       4.718   3.827   3.088  0.00  0.00    +0.000 HD
BRANCH  11  14
ATOM     14  C   UNL     1       4.449   5.028   5.347  0.00  0.00    +0.000 A 
ATOM     15  C   UNL     1       4.000   5.508   6.572  0.00  0.00    +0.000 A 
ATOM     16  S   UNL     1       5.043   5.150   7.873  0.00  0.00    +0.000 S 
ATOM     17  C   UNL     1       6.159   4.384   6.840  0.00  0.00    +0.000 A 
ATOM     18  N   UNL     1       7.311   3.856   7.328  0.00  0.00    +0.000 NA
ATOM     19  C   UNL     1       8.077   3.325   6.431  0.00  0.00    +0.000 A 
ATOM     20  N   UNL     1       7.790   3.274   5.092  0.00  0.00    +0.000 N 
ATOM     21  C   UNL     1       6.624   3.771   4.560  0.00  0.00    +0.000 A 
ATOM     22  O   UNL     1       6.378   3.675   3.362  0.00  0.00    +0.000 OA
ATOM     23  C   UNL     1       5.731   4.386   5.524  0.00  0.00    +0.000 A 
ATOM     24  H   UNL     1       8.427   2.838   4.442  0.00  0.00    +0.000 HD
ENDBRANCH  11  14
ENDBRANCH   9  10
ENDBRANCH   3   9
BRANCH   6  25
ATOM     25  C   UNL     1       4.715   0.402  -1.946  0.00  0.00    +0.000 C 
BRANCH  25  26
ATOM     26  N   UNL     1       3.664   0.042  -2.872  0.00  0.00    +0.000 N 
ATOM     27  C   UNL     1       3.829  -0.934  -3.830  0.00  0.00    +0.000 C 
ATOM     28  O   UNL     1       4.872  -1.553  -3.999  0.00  0.00    +0.000 OA
ATOM     29  H   UNL     1       2.733   0.442  -2.781  0.00  0.00    +0.000 HD
BRANCH  27  30
ATOM     30  C   UNL     1       2.604  -1.205  -4.654  0.00  0.00    +0.000 A 
ATOM     31  C   UNL     1       2.648  -2.143  -5.678  0.00  0.00    +0.000 A 
ATOM     32  C   UNL     1       1.494  -2.349  -6.429  0.00  0.00    +0.000 A 
ATOM     33  C   UNL     1       0.346  -1.621  -6.130  0.00  0.00    +0.000 A 
ATOM     34  C   UNL     1       0.391  -0.714  -5.081  0.00  0.00    +0.000 A 
ATOM     35  N   UNL     1       1.491  -0.486  -4.330  0.00  0.00    +0.000 NA
ENDBRANCH  27  30
ENDBRANCH  25  26
ENDBRANCH   6  25
TORSDOF 7
