REMARK  Name = 
REMARK  4 active torsions:
REMARK  status: ('A' for Active; 'I' for Inactive)
REMARK    1  A    between atoms: C_2  and  C_4
REMARK    2  A    between atoms: C_7  and  C_8
REMARK    3  A    between atoms: C_8  and  O_9
REMARK    4  A    between atoms: O_9  and  C_10
REMARK                            x       y       z     vdW  Elec       q    Type
REMARK                         _______ _______ _______ _____ _____    ______ ____
ROOT
ATOM      1  C   UNL     1       3.285  -0.802  -1.025  0.00  0.00    +0.000 A 
ATOM      2  C   UNL     1       2.916  -0.775  -2.376  0.00  0.00    +0.000 A 
ATOM      3  C   UNL     1       3.628  -1.534  -3.308  0.00  0.00    +0.000 A 
ATOM      4  C   UNL     1       4.707  -2.332  -2.902  0.00  0.00    +0.000 A 
ATOM      5  C   UNL     1       5.089  -2.326  -1.553  0.00  0.00    +0.000 A 
ATOM      6  C   UNL     1       4.384  -1.565  -0.620  0.00  0.00    +0.000 A 
ENDROOT
BRANCH   1   8
ATOM      7  N   UNL     1       1.210   0.181  -0.235  0.00  0.00    +0.000 N 
ATOM      8  C   UNL     1       2.542  -0.028   0.002  0.00  0.00    +0.000 C 
ATOM      9  O   UNL     1       3.071   0.364   1.028  0.00  0.00    +0.000 OA
ATOM     10  H   UNL     1       0.682   0.601   0.519  0.00  0.00    +0.000 HD
ATOM     11  H   UNL     1       0.700  -0.349  -0.927  0.00  0.00    +0.000 HD
ENDBRANCH   1   8
BRANCH   4  12
ATOM     12  C   UNL     1       5.454  -3.197  -3.888  0.00  0.00    +0.000 C 
BRANCH  12  13
ATOM     13  O   UNL     1       6.535  -2.468  -4.466  0.00  0.00    +0.000 OA
BRANCH  13  14
ATOM     14  C   UNL     1       7.277  -3.146  -5.400  0.00  0.00    +0.000 A 
ATOM     15  C   UNL     1       7.081  -4.477  -5.780  0.00  0.00    +0.000 A 
ATOM     16  C   UNL     1       7.872  -5.048  -6.780  0.00  0.00    +0.000 A 
ATOM     17  C   UNL     1       8.860  -4.294  -7.408  0.00  0.00    +0.000 A 
ATOM     18  C   UNL     1       9.068  -2.970  -7.029  0.00  0.00    +0.000 A 
ATOM     19  C   UNL     1       8.281  -2.401  -6.025  0.00  0.00    +0.000 A 
ENDBRANCH  13  14
ENDBRANCH  12  13
ENDBRANCH   4  12
TORSDOF 4
