REMARK  Name = 
REMARK  5 active torsions:
REMARK  status: ('A' for Active; 'I' for Inactive)
REMARK    1  A    between atoms: C_2  and  C_5
REMARK    2  A    between atoms: C_7  and  N_8
REMARK    3  A    between atoms: N_8  and  C_9
REMARK    4  A    between atoms: C_9  and  C_10
REMARK    5  A    between atoms: C_14  and  C_15
REMARK                            x       y       z     vdW  Elec       q    Type
REMARK                         _______ _______ _______ _____ _____    ______ ____
ROOT
ATOM      1  C   UNL     1       4.578   1.527   4.490  0.00  0.00    +0.000 C 
ENDROOT
BRANCH   1   2
ATOM      2  C   UNL     1       5.043   2.093   5.812  0.00  0.00    +0.000 A 
ATOM      3  C   UNL     1       5.096   3.479   6.004  0.00  0.00    +0.000 A 
ATOM      4  C   UNL     1       5.441   4.004   7.247  0.00  0.00    +0.000 A 
ATOM      5  C   UNL     1       5.721   3.149   8.315  0.00  0.00    +0.000 A 
ATOM      6  C   UNL     1       5.667   1.751   8.167  0.00  0.00    +0.000 A 
ATOM      7  C   UNL     1       5.370   1.245   6.885  0.00  0.00    +0.000 A 
BRANCH   6   8
ATOM      8  C   UNL     1       5.824   0.838   9.320  0.00  0.00    +0.000 A 
ATOM      9  C   UNL     1       5.358   1.171  10.595  0.00  0.00    +0.000 A 
ATOM     10  C   UNL     1       5.436   0.235  11.623  0.00  0.00    +0.000 A 
ATOM     11  C   UNL     1       5.983  -1.012  11.362  0.00  0.00    +0.000 A 
ATOM     12  C   UNL     1       6.434  -1.269  10.079  0.00  0.00    +0.000 A 
ATOM     13  N   UNL     1       6.362  -0.381   9.060  0.00  0.00    +0.000 NA
ENDBRANCH   6   8
ENDBRANCH   1   2
BRANCH   1  14
ATOM     14  N   UNL     1       5.677   1.485   3.533  0.00  0.00    +0.000 N 
ATOM     15  H   UNL     1       6.514   1.082   3.952  0.00  0.00    +0.000 HD
BRANCH  14  18
ATOM     16  C   UNL     1       4.047   0.667   0.275  0.00  0.00    +0.000 A 
ATOM     17  C   UNL     1       4.200   1.116   1.593  0.00  0.00    +0.000 A 
ATOM     18  C   UNL     1       5.428   0.983   2.248  0.00  0.00    +0.000 A 
ATOM     19  C   UNL     1       6.489   0.453   1.509  0.00  0.00    +0.000 A 
ATOM     20  C   UNL     1       6.272   0.024   0.212  0.00  0.00    +0.000 A 
ATOM     21  N   UNL     1       5.081   0.105  -0.415  0.00  0.00    +0.000 NA
BRANCH  16  23
ATOM     22  F   UNL     1       1.741   1.380   0.372  0.00  0.00    +0.000 F 
ATOM     23  C   UNL     1       2.702   0.818  -0.423  0.00  0.00    +0.000 C 
ATOM     24  F   UNL     1       2.174  -0.371  -0.834  0.00  0.00    +0.000 F 
ATOM     25  F   UNL     1       2.756   1.611  -1.532  0.00  0.00    +0.000 F 
ENDBRANCH  16  23
ENDBRANCH  14  18
ENDBRANCH   1  14
TORSDOF 5
