REMARK  Name = 
REMARK  6 active torsions:
REMARK  status: ('A' for Active; 'I' for Inactive)
REMARK    1  A    between atoms: C_2  and  C_4
REMARK    2  A    between atoms: C_7  and  O_8
REMARK    3  A    between atoms: O_8  and  C_9
REMARK    4  A    between atoms: C_9  and  C_10
REMARK    5  A    between atoms: C_14  and  N_15
REMARK    6  A    between atoms: C_18  and  O_19
REMARK                            x       y       z     vdW  Elec       q    Type
REMARK                         _______ _______ _______ _____ _____    ______ ____
ROOT
ATOM      1  C   UNL     1       5.280   4.716  -3.370  0.00  0.00    +0.000 C 
ATOM      2  C   UNL     1       4.176   3.675  -3.377  0.00  0.00    +0.000 C 
ATOM      3  C   UNL     1       4.536   4.327  -2.089  0.00  0.00    +0.000 C 
ENDROOT
BRANCH   1   4
ATOM      4  C   UNL     1       6.679   4.208  -3.626  0.00  0.00    +0.000 A 
ATOM      5  C   UNL     1       7.093   3.833  -4.902  0.00  0.00    +0.000 A 
ATOM      6  N   UNL     1       8.294   3.290  -5.195  0.00  0.00    +0.000 NA
ATOM      7  C   UNL     1       9.135   3.106  -4.149  0.00  0.00    +0.000 A 
ATOM      8  C   UNL     1       8.878   3.465  -2.824  0.00  0.00    +0.000 A 
ATOM      9  C   UNL     1       7.624   4.044  -2.602  0.00  0.00    +0.000 A 
BRANCH   8  10
ATOM     10  N   UNL     1       9.757   3.250  -1.782  0.00  0.00    +0.000 N 
ATOM     11  C   UNL     1      10.651   2.094  -1.754  0.00  0.00    +0.000 C 
ATOM     12  C   UNL     1      12.102   2.556  -1.798  0.00  0.00    +0.000 C 
ATOM     13  C   UNL     1      12.393   3.614  -0.733  0.00  0.00    +0.000 C 
ATOM     14  C   UNL     1      11.383   4.761  -0.769  0.00  0.00    +0.000 C 
ATOM     15  C   UNL     1       9.942   4.256  -0.735  0.00  0.00    +0.000 C 
BRANCH  13  16
ATOM     16  O   UNL     1      12.433   3.024   0.566  0.00  0.00    +0.000 OA
ATOM     17  H   UNL     1      11.562   2.646   0.772  0.00  0.00    +0.000 HD
ENDBRANCH  13  16
ENDBRANCH   8  10
ENDBRANCH   1   4
BRANCH   1  18
ATOM     18  O   UNL     1       5.069   6.116  -3.663  0.00  0.00    +0.000 OA
BRANCH  18  22
ATOM     19  C   UNL     1       2.746   7.318  -6.735  0.00  0.00    +0.000 A 
ATOM     20  C   UNL     1       2.925   5.964  -6.497  0.00  0.00    +0.000 A 
ATOM     21  N   UNL     1       3.771   5.500  -5.544  0.00  0.00    +0.000 NA
ATOM     22  C   UNL     1       4.395   6.450  -4.815  0.00  0.00    +0.000 A 
ATOM     23  C   UNL     1       4.260   7.806  -5.094  0.00  0.00    +0.000 A 
ATOM     24  N   UNL     1       3.438   8.284  -6.064  0.00  0.00    +0.000 NA
BRANCH  19  26
ATOM     25  N   UNL     1       1.598   9.107  -7.885  0.00  0.00    +0.000 N 
ATOM     26  C   UNL     1       1.689   7.757  -7.682  0.00  0.00    +0.000 C 
ATOM     27  O   UNL     1       0.926   6.967  -8.223  0.00  0.00    +0.000 OA
ATOM     28  H   UNL     1       0.841   9.472  -8.446  0.00  0.00    +0.000 HD
ATOM     29  H   UNL     1       2.205   9.738  -7.372  0.00  0.00    +0.000 HD
ENDBRANCH  19  26
ENDBRANCH  18  22
ENDBRANCH   1  18
TORSDOF 6
