REMARK  Name = 
REMARK  8 active torsions:
REMARK  status: ('A' for Active; 'I' for Inactive)
REMARK    1  A    between atoms: C_1  and  C_2
REMARK    2  A    between atoms: C_2  and  N_3
REMARK    3  A    between atoms: C_2  and  C_22
REMARK    4  A    between atoms: C_4  and  C_6
REMARK    5  A    between atoms: C_9  and  C_10
REMARK    6  A    between atoms: C_10  and  N_11
REMARK    7  A    between atoms: C_12  and  C_14
REMARK    8  A    between atoms: N_17  and  C_18
REMARK                            x       y       z     vdW  Elec       q    Type
REMARK                         _______ _______ _______ _____ _____    ______ ____
ROOT
ATOM      1  N   UNL     1      -1.749   2.807  -2.145  0.00  0.00    +0.000 N 
ATOM      2  C   UNL     1      -1.935   1.577  -1.576  0.00  0.00    +0.000 C 
ATOM      3  O   UNL     1      -2.498   0.661  -2.169  0.00  0.00    +0.000 OA
ATOM      4  H   UNL     1      -1.483   3.583  -1.554  0.00  0.00    +0.000 HD
ENDROOT
BRANCH   2   5
ATOM      5  C   UNL     1      -1.327   1.409  -0.172  0.00  0.00    +0.000 C 
ATOM      6  C   UNL     1      -1.776   2.492   0.815  0.00  0.00    +0.000 C 
ATOM      7  C   UNL     1      -3.277   2.404   1.075  0.00  0.00    +0.000 C 
ATOM      8  C   UNL     1      -3.705   1.028   1.618  0.00  0.00    +0.000 C 
ATOM      9  C   UNL     1      -3.155  -0.118   0.752  0.00  0.00    +0.000 C 
ATOM     10  C   UNL     1      -1.666   0.027   0.409  0.00  0.00    +0.000 C 
BRANCH   8  11
ATOM     11  C   UNL     1      -3.307   0.809   3.087  0.00  0.00    +0.000 C 
BRANCH  11  12
ATOM     12  N   UNL     1      -3.836   1.832   3.952  0.00  0.00    +0.000 N 
ATOM     13  C   UNL     1      -3.045   2.711   4.658  0.00  0.00    +0.000 C 
ATOM     14  O   UNL     1      -1.818   2.690   4.648  0.00  0.00    +0.000 OA
ATOM     15  H   UNL     1      -4.839   1.990   4.027  0.00  0.00    +0.000 HD
BRANCH  13  16
ATOM     16  C   UNL     1      -3.818   3.692   5.430  0.00  0.00    +0.000 A 
ATOM     17  C   UNL     1      -3.295   4.709   6.269  0.00  0.00    +0.000 A 
ATOM     18  C   UNL     1      -4.390   5.365   6.777  0.00  0.00    +0.000 A 
ATOM     19  N   UNL     1      -5.478   4.741   6.245  0.00  0.00    +0.000 N 
ATOM     20  C   UNL     1      -6.863   5.053   6.502  0.00  0.00    +0.000 C 
ATOM     21  N   UNL     1      -5.169   3.723   5.418  0.00  0.00    +0.000 NA
ENDBRANCH  13  16
ENDBRANCH  11  12
ENDBRANCH   8  11
ENDBRANCH   2   5
BRANCH   1  23
ATOM     22  C   UNL     1      -3.773   3.739  -3.197  0.00  0.00    +0.000 C 
ATOM     23  C   UNL     1      -2.379   3.153  -3.408  0.00  0.00    +0.000 C 
BRANCH  23  24
ATOM     24  C   UNL     1      -1.433   4.052  -4.168  0.00  0.00    +0.000 A 
ATOM     25  C   UNL     1      -1.026   3.788  -5.468  0.00  0.00    +0.000 A 
ATOM     26  S   UNL     1       0.167   4.871  -6.035  0.00  0.00    +0.000 S 
ATOM     27  C   UNL     1       0.198   5.705  -4.551  0.00  0.00    +0.000 A 
ATOM     28  N   UNL     1       1.105   6.691  -4.310  0.00  0.00    +0.000 NA
ATOM     29  C   UNL     1       1.027   7.206  -3.128  0.00  0.00    +0.000 A 
ATOM     30  N   UNL     1       0.092   6.866  -2.183  0.00  0.00    +0.000 N 
ATOM     31  C   UNL     1      -0.849   5.886  -2.384  0.00  0.00    +0.000 A 
ATOM     32  O   UNL     1      -1.658   5.583  -1.513  0.00  0.00    +0.000 OA
ATOM     33  C   UNL     1      -0.754   5.226  -3.673  0.00  0.00    +0.000 A 
ATOM     34  H   UNL     1       0.079   7.317  -1.280  0.00  0.00    +0.000 HD
ENDBRANCH  23  24
ENDBRANCH   1  23
TORSDOF 6
