REMARK  Name = 
REMARK  7 active torsions:
REMARK  status: ('A' for Active; 'I' for Inactive)
REMARK    1  A    between atoms: C_2  and  C_3
REMARK    2  A    between atoms: C_3  and  N_4
REMARK    3  A    between atoms: C_3  and  C_17
REMARK    4  A    between atoms: C_5  and  C_7
REMARK    5  A    between atoms: C_20  and  O_21
REMARK    6  A    between atoms: O_21  and  C_22
REMARK    7  A    between atoms: C_22  and  C_23
REMARK                            x       y       z     vdW  Elec       q    Type
REMARK                         _______ _______ _______ _____ _____    ______ ____
ROOT
ATOM      1  C   UNL     1       3.776  -0.073   0.162  0.00  0.00    +0.000 C 
ENDROOT
BRANCH   1   2
ATOM      2  C   UNL     1       4.185  -1.125  -0.862  0.00  0.00    +0.000 A 
ATOM      3  C   UNL     1       5.062  -0.789  -1.908  0.00  0.00    +0.000 A 
ATOM      4  C   UNL     1       5.468  -1.756  -2.833  0.00  0.00    +0.000 A 
ATOM      5  C   UNL     1       5.008  -3.068  -2.727  0.00  0.00    +0.000 A 
ATOM      6  C   UNL     1       4.078  -3.392  -1.738  0.00  0.00    +0.000 A 
ATOM      7  C   UNL     1       3.670  -2.429  -0.815  0.00  0.00    +0.000 A 
BRANCH   5   8
ATOM      8  O   UNL     1       5.524  -3.958  -3.629  0.00  0.00    +0.000 OA
BRANCH   8   9
ATOM      9  C   UNL     1       5.479  -5.326  -3.213  0.00  0.00    +0.000 C 
BRANCH   9  10
ATOM     10  C   UNL     1       6.477  -6.150  -3.975  0.00  0.00    +0.000 A 
ATOM     11  C   UNL     1       7.131  -7.222  -3.358  0.00  0.00    +0.000 A 
ATOM     12  C   UNL     1       8.040  -7.986  -4.080  0.00  0.00    +0.000 A 
ATOM     13  C   UNL     1       8.255  -7.662  -5.408  0.00  0.00    +0.000 A 
ATOM     14  N   UNL     1       7.624  -6.653  -6.047  0.00  0.00    +0.000 NA
ATOM     15  C   UNL     1       6.750  -5.922  -5.319  0.00  0.00    +0.000 A 
ENDBRANCH   9  10
ENDBRANCH   8   9
ENDBRANCH   5   8
ENDBRANCH   1   2
BRANCH   1  16
ATOM     16  N   UNL     1       2.520   0.526  -0.254  0.00  0.00    +0.000 N 
ATOM     17  C   UNL     1       2.239   1.831   0.041  0.00  0.00    +0.000 C 
ATOM     18  O   UNL     1       3.042   2.538   0.645  0.00  0.00    +0.000 OA
ATOM     19  H   UNL     1       1.787  -0.093  -0.588  0.00  0.00    +0.000 HD
BRANCH  17  20
ATOM     20  C   UNL     1       0.972   2.370  -0.458  0.00  0.00    +0.000 A 
ATOM     21  C   UNL     1       0.853   3.737  -0.671  0.00  0.00    +0.000 A 
ATOM     22  S   UNL     1      -0.681   4.210  -1.242  0.00  0.00    +0.000 S 
ATOM     23  C   UNL     1      -1.255   2.610  -1.182  0.00  0.00    +0.000 A 
ATOM     24  N   UNL     1      -2.545   2.319  -1.498  0.00  0.00    +0.000 NA
ATOM     25  C   UNL     1      -2.857   1.074  -1.374  0.00  0.00    +0.000 A 
ATOM     26  N   UNL     1      -1.987   0.086  -0.985  0.00  0.00    +0.000 N 
ATOM     27  C   UNL     1      -0.658   0.323  -0.721  0.00  0.00    +0.000 A 
ATOM     28  O   UNL     1       0.129  -0.590  -0.487  0.00  0.00    +0.000 OA
ATOM     29  C   UNL     1      -0.274   1.720  -0.783  0.00  0.00    +0.000 A 
ATOM     30  H   UNL     1      -2.292  -0.875  -0.941  0.00  0.00    +0.000 HD
ENDBRANCH  17  20
ENDBRANCH   1  16
BRANCH   1  32
ATOM     31  N   UNL     1       3.646  -1.085   2.607  0.00  0.00    +0.000 NA
ATOM     32  C   UNL     1       3.703  -0.618   1.546  0.00  0.00    +0.000 C 
ENDBRANCH   1  32
TORSDOF 7
