REMARK  Name = 
REMARK  4 active torsions:
REMARK  status: ('A' for Active; 'I' for Inactive)
REMARK    1  A    between atoms: C_2  and  C_3
REMARK    2  A    between atoms: C_7  and  C_8
REMARK    3  A    between atoms: C_8  and  N_9
REMARK    4  A    between atoms: C_14  and  C_15
REMARK                            x       y       z     vdW  Elec       q    Type
REMARK                         _______ _______ _______ _____ _____    ______ ____
ROOT
ATOM      1  N   UNL     1       3.815   2.316   0.015  0.00  0.00    +0.000 N 
ATOM      2  C   UNL     1       4.657   2.724   1.013  0.00  0.00    +0.000 A 
ATOM      3  N   UNL     1       5.893   2.337   0.794  0.00  0.00    +0.000 NA
ATOM      4  C   UNL     1       5.850   1.639  -0.387  0.00  0.00    +0.000 A 
ATOM      5  C   UNL     1       6.889   0.985  -1.068  0.00  0.00    +0.000 A 
ATOM      6  C   UNL     1       6.596   0.315  -2.266  0.00  0.00    +0.000 A 
ATOM      7  C   UNL     1       5.282   0.313  -2.764  0.00  0.00    +0.000 A 
ATOM      8  C   UNL     1       4.236   0.959  -2.097  0.00  0.00    +0.000 A 
ATOM      9  C   UNL     1       4.557   1.611  -0.904  0.00  0.00    +0.000 A 
ENDROOT
BRANCH   6  10
ATOM     10  C   UNL     1       7.626  -0.421  -3.053  0.00  0.00    +0.000 C 
ATOM     11  N   UNL     1       8.912  -0.447  -2.592  0.00  0.00    +0.000 N 
ATOM     12  O   UNL     1       7.341  -0.999  -4.095  0.00  0.00    +0.000 OA
ATOM     13  H   UNL     1       9.242  -0.003  -1.751  0.00  0.00    +0.000 HD
ATOM     14  H   UNL     1       9.584  -0.957  -3.151  0.00  0.00    +0.000 HD
ENDBRANCH   6  10
BRANCH   1  15
ATOM     15  C   UNL     1       2.371   2.487   0.015  0.00  0.00    +0.000 C 
BRANCH  15  20
ATOM     16  C   UNL     1       0.796   5.955  -0.250  0.00  0.00    +0.000 A 
ATOM     17  C   UNL     1       1.133   6.324  -1.553  0.00  0.00    +0.000 A 
ATOM     18  C   UNL     1       1.848   5.442  -2.361  0.00  0.00    +0.000 A 
ATOM     19  C   UNL     1       2.240   4.196  -1.864  0.00  0.00    +0.000 A 
ATOM     20  C   UNL     1       1.945   3.824  -0.543  0.00  0.00    +0.000 A 
ATOM     21  C   UNL     1       1.204   4.712   0.254  0.00  0.00    +0.000 A 
BRANCH  16  23
ATOM     22  N   UNL     1      -0.614   7.543   1.240  0.00  0.00    +0.000 NA
ATOM     23  C   UNL     1       0.022   6.839   0.570  0.00  0.00    +0.000 C 
ENDBRANCH  16  23
ENDBRANCH  15  20
ENDBRANCH   1  15
TORSDOF 4
