REMARK  Name = 
REMARK  11 active torsions:
REMARK  status: ('A' for Active; 'I' for Inactive)
REMARK    1  A    between atoms: N_1  and  C_2
REMARK    2  A    between atoms: C_2  and  C_3
REMARK    3  A    between atoms: C_3  and  C_4
REMARK    4  A    between atoms: C_4  and  N_5
REMARK    5  A    between atoms: C_8  and  C_9
REMARK    6  A    between atoms: C_9  and  C_10
REMARK    7  A    between atoms: C_10  and  N_11
REMARK    8  A    between atoms: C_10  and  C_12
REMARK    9  A    between atoms: C_15  and  C_16
REMARK   10  A    between atoms: C_16  and  N_17
REMARK   11  A    between atoms: C_18  and  C_20
REMARK                            x       y       z     vdW  Elec       q    Type
REMARK                         _______ _______ _______ _____ _____    ______ ____
ROOT
ATOM      1  C   UNL     1       1.047  -6.486  -2.042  0.00  0.00    +0.000 A 
ATOM      2  C   UNL     1       0.417  -7.582  -2.621  0.00  0.00    +0.000 A 
ATOM      3  C   UNL     1      -0.959  -7.540  -2.801  0.00  0.00    +0.000 A 
ATOM      4  C   UNL     1      -1.656  -6.420  -2.378  0.00  0.00    +0.000 A 
ATOM      5  N   UNL     1      -1.020  -5.376  -1.802  0.00  0.00    +0.000 NA
ATOM      6  N   UNL     1       0.338  -5.412  -1.628  0.00  0.00    +0.000 NA
ENDROOT
BRANCH   1   7
ATOM      7  C   UNL     1       2.567  -6.440  -1.913  0.00  0.00    +0.000 C 
BRANCH   7   8
ATOM      8  N   UNL     1       2.992  -6.528  -0.513  0.00  0.00    +0.000 NA
ATOM      9  H   UNL     1       2.722  -5.664  -0.040  0.00  0.00    +0.000 HD
ATOM     10  H   UNL     1       4.007  -6.580  -0.459  0.00  0.00    +0.000 HD
ENDBRANCH   7   8
BRANCH   7  11
ATOM     11  C   UNL     1       3.092  -5.165  -2.612  0.00  0.00    +0.000 C 
BRANCH  11  15
ATOM     12  N   UNL     1       5.194  -4.809  -5.635  0.00  0.00    +0.000 NA
ATOM     13  C   UNL     1       4.603  -3.685  -4.890  0.00  0.00    +0.000 C 
ATOM     14  C   UNL     1       4.993  -3.692  -3.409  0.00  0.00    +0.000 C 
ATOM     15  C   UNL     1       4.628  -5.015  -2.719  0.00  0.00    +0.000 C 
ATOM     16  C   UNL     1       5.313  -6.135  -3.509  0.00  0.00    +0.000 C 
ATOM     17  C   UNL     1       4.937  -6.111  -4.994  0.00  0.00    +0.000 C 
BRANCH  12  18
ATOM     18  C   UNL     1       4.714  -4.843  -7.035  0.00  0.00    +0.000 C 
BRANCH  18  19
ATOM     19  C   UNL     1       5.107  -3.601  -7.848  0.00  0.00    +0.000 C 
BRANCH  19  20
ATOM     20  C   UNL     1       4.635  -3.708  -9.297  0.00  0.00    +0.000 C 
BRANCH  20  21
ATOM     21  N   UNL     1       5.003  -2.502 -10.032  0.00  0.00    +0.000 NA
ATOM     22  H   UNL     1       4.744  -2.604 -11.012  0.00  0.00    +0.000 HD
ATOM     23  H   UNL     1       6.016  -2.386 -10.014  0.00  0.00    +0.000 HD
ENDBRANCH  20  21
ENDBRANCH  19  20
ENDBRANCH  18  19
ENDBRANCH  12  18
ENDBRANCH  11  15
ENDBRANCH   7  11
ENDBRANCH   1   7
BRANCH   4  24
ATOM     24  C   UNL     1      -3.141  -6.295  -2.589  0.00  0.00    +0.000 C 
BRANCH  24  25
ATOM     25  N   UNL     1      -3.461  -5.655  -3.847  0.00  0.00    +0.000 N 
ATOM     26  C   UNL     1      -3.777  -6.362  -4.976  0.00  0.00    +0.000 C 
ATOM     27  O   UNL     1      -3.826  -7.591  -4.980  0.00  0.00    +0.000 OA
ATOM     28  H   UNL     1      -3.211  -4.673  -3.922  0.00  0.00    +0.000 HD
BRANCH  26  29
ATOM     29  C   UNL     1      -4.118  -5.578  -6.171  0.00  0.00    +0.000 A 
ATOM     30  C   UNL     1      -4.889  -6.155  -7.172  0.00  0.00    +0.000 A 
ATOM     31  S   UNL     1      -5.222  -5.106  -8.473  0.00  0.00    +0.000 S 
ATOM     32  C   UNL     1      -4.309  -3.855  -7.770  0.00  0.00    +0.000 A 
ATOM     33  N   UNL     1      -4.159  -2.660  -8.402  0.00  0.00    +0.000 NA
ATOM     34  C   UNL     1      -3.418  -1.811  -7.770  0.00  0.00    +0.000 A 
ATOM     35  N   UNL     1      -2.822  -2.048  -6.559  0.00  0.00    +0.000 N 
ATOM     36  C   UNL     1      -2.988  -3.220  -5.860  0.00  0.00    +0.000 A 
ATOM     37  O   UNL     1      -2.517  -3.366  -4.736  0.00  0.00    +0.000 OA
ATOM     38  C   UNL     1      -3.783  -4.222  -6.544  0.00  0.00    +0.000 A 
ATOM     39  H   UNL     1      -2.273  -1.332  -6.104  0.00  0.00    +0.000 HD
ENDBRANCH  26  29
ENDBRANCH  24  25
ENDBRANCH   4  24
TORSDOF 11
