REMARK  Name = 
REMARK  5 active torsions:
REMARK  status: ('A' for Active; 'I' for Inactive)
REMARK    1  A    between atoms: C_2  and  C_4
REMARK    2  A    between atoms: C_7  and  O_8
REMARK    3  A    between atoms: O_8  and  C_9
REMARK    4  A    between atoms: C_9  and  C_10
REMARK    5  A    between atoms: C_12  and  C_13
REMARK                            x       y       z     vdW  Elec       q    Type
REMARK                         _______ _______ _______ _____ _____    ______ ____
ROOT
ATOM      1  C   UNL     1       5.359  -5.299   1.969  0.00  0.00    +0.000 C 
ENDROOT
BRANCH   1   2
ATOM      2  C   UNL     1       6.397  -6.168   2.637  0.00  0.00    +0.000 A 
ATOM      3  C   UNL     1       7.529  -5.651   3.287  0.00  0.00    +0.000 A 
ATOM      4  C   UNL     1       8.478  -6.490   3.907  0.00  0.00    +0.000 A 
ATOM      5  C   UNL     1       8.263  -7.880   3.839  0.00  0.00    +0.000 A 
ATOM      6  C   UNL     1       7.144  -8.410   3.195  0.00  0.00    +0.000 A 
ATOM      7  C   UNL     1       6.225  -7.554   2.605  0.00  0.00    +0.000 A 
ATOM      8  F   UNL     1       5.155  -8.078   1.990  0.00  0.00    +0.000 F 
BRANCH   4   9
ATOM      9  C   UNL     1       9.665  -5.941   4.591  0.00  0.00    +0.000 A 
ATOM     10  C   UNL     1       9.681  -4.695   5.221  0.00  0.00    +0.000 A 
ATOM     11  N   UNL     1      10.778  -4.170   5.824  0.00  0.00    +0.000 NA
ATOM     12  C   UNL     1      11.878  -4.950   5.783  0.00  0.00    +0.000 A 
ATOM     13  C   UNL     1      11.880  -6.193   5.178  0.00  0.00    +0.000 A 
ATOM     14  N   UNL     1      10.784  -6.713   4.578  0.00  0.00    +0.000 NA
ENDBRANCH   4   9
ENDBRANCH   1   2
BRANCH   1  15
ATOM     15  O   UNL     1       5.673  -3.903   2.080  0.00  0.00    +0.000 OA
BRANCH  15  19
ATOM     16  C   UNL     1       2.826  -1.496   0.329  0.00  0.00    +0.000 A 
ATOM     17  C   UNL     1       3.941  -0.913   0.936  0.00  0.00    +0.000 A 
ATOM     18  C   UNL     1       4.902  -1.739   1.528  0.00  0.00    +0.000 A 
ATOM     19  C   UNL     1       4.711  -3.112   1.485  0.00  0.00    +0.000 A 
ATOM     20  N   UNL     1       3.642  -3.697   0.907  0.00  0.00    +0.000 NA
ATOM     21  C   UNL     1       2.718  -2.878   0.352  0.00  0.00    +0.000 A 
BRANCH  16  23
ATOM     22  N   UNL     1       2.053   0.501  -0.820  0.00  0.00    +0.000 N 
ATOM     23  C   UNL     1       1.741  -0.726  -0.309  0.00  0.00    +0.000 C 
ATOM     24  O   UNL     1       0.611  -1.185  -0.414  0.00  0.00    +0.000 OA
ATOM     25  H   UNL     1       1.322   0.953  -1.357  0.00  0.00    +0.000 HD
ATOM     26  H   UNL     1       3.004   0.798  -0.986  0.00  0.00    +0.000 HD
ENDBRANCH  16  23
ENDBRANCH  15  19
ENDBRANCH   1  15
TORSDOF 5
