REMARK  Name = 
REMARK  6 active torsions:
REMARK  status: ('A' for Active; 'I' for Inactive)
REMARK    1  A    between atoms: C_1  and  C_2
REMARK    2  A    between atoms: C_2  and  C_3
REMARK    3  A    between atoms: C_2  and  N_4
REMARK    4  A    between atoms: C_2  and  C_14
REMARK    5  A    between atoms: N_4  and  C_5
REMARK    6  A    between atoms: C_9  and  C_10
REMARK                            x       y       z     vdW  Elec       q    Type
REMARK                         _______ _______ _______ _____ _____    ______ ____
ROOT
ATOM      1  N   UNL     1       2.960  -0.295  -1.379  0.00  0.00    +0.000 N 
ATOM      2  H   UNL     1       3.836  -0.804  -1.444  0.00  0.00    +0.000 HD
ENDROOT
BRANCH   1   3
ATOM      3  C   UNL     1       2.793   0.605  -2.434  0.00  0.00    +0.000 A 
ATOM      4  C   UNL     1       1.995   1.754  -2.364  0.00  0.00    +0.000 A 
ATOM      5  C   UNL     1       1.771   2.567  -3.475  0.00  0.00    +0.000 A 
ATOM      6  C   UNL     1       2.354   2.252  -4.694  0.00  0.00    +0.000 A 
ATOM      7  C   UNL     1       3.168   1.121  -4.811  0.00  0.00    +0.000 A 
ATOM      8  C   UNL     1       3.358   0.292  -3.688  0.00  0.00    +0.000 A 
BRANCH   7   9
ATOM      9  C   UNL     1       3.793   0.881  -6.146  0.00  0.00    +0.000 C 
ATOM     10  N   UNL     1       4.673  -0.152  -6.292  0.00  0.00    +0.000 N 
ATOM     11  O   UNL     1       3.555   1.606  -7.103  0.00  0.00    +0.000 OA
ATOM     12  H   UNL     1       4.979  -0.764  -5.555  0.00  0.00    +0.000 HD
ATOM     13  H   UNL     1       5.112  -0.237  -7.200  0.00  0.00    +0.000 HD
ENDBRANCH   7   9
ENDBRANCH   1   3
BRANCH   1  15
ATOM     14  C   UNL     1       0.983  -0.158   0.130  0.00  0.00    +0.000 C 
ATOM     15  C   UNL     1       2.526  -0.066   0.028  0.00  0.00    +0.000 C 
ATOM     16  C   UNL     1       3.065  -1.242   0.880  0.00  0.00    +0.000 C 
BRANCH  15  17
ATOM     17  C   UNL     1       3.098   1.245   0.609  0.00  0.00    +0.000 A 
ATOM     18  C   UNL     1       4.472   1.521   0.558  0.00  0.00    +0.000 A 
ATOM     19  C   UNL     1       4.947   2.724   1.077  0.00  0.00    +0.000 A 
ATOM     20  C   UNL     1       4.051   3.627   1.633  0.00  0.00    +0.000 A 
ATOM     21  C   UNL     1       2.714   3.281   1.645  0.00  0.00    +0.000 A 
ATOM     22 CL   UNL     1       1.530   4.340   2.286  0.00  0.00    +0.000 Cl
ATOM     23  N   UNL     1       2.222   2.123   1.163  0.00  0.00    +0.000 NA
ENDBRANCH  15  17
ENDBRANCH   1  15
TORSDOF 4
