REMARK  Name = 
REMARK  8 active torsions:
REMARK  status: ('A' for Active; 'I' for Inactive)
REMARK    1  A    between atoms: N_1  and  C_2
REMARK    2  A    between atoms: C_2  and  C_3
REMARK    3  A    between atoms: C_3  and  N_4
REMARK    4  A    between atoms: C_3  and  C_12
REMARK    5  A    between atoms: C_5  and  C_7
REMARK    6  A    between atoms: C_15  and  C_16
REMARK    7  A    between atoms: C_16  and  N_17
REMARK    8  A    between atoms: C_18  and  C_20
REMARK                            x       y       z     vdW  Elec       q    Type
REMARK                         _______ _______ _______ _____ _____    ______ ____
ROOT
ATOM      1  C   UNL     1       4.368   0.923   1.058  0.00  0.00    +0.000 A 
ATOM      2  C   UNL     1       5.076  -0.279   1.087  0.00  0.00    +0.000 A 
ATOM      3  C   UNL     1       6.471  -0.252   1.098  0.00  0.00    +0.000 A 
ATOM      4  C   UNL     1       7.143   0.970   1.102  0.00  0.00    +0.000 A 
ATOM      5  C   UNL     1       6.362   2.118   1.067  0.00  0.00    +0.000 A 
ATOM      6  N   UNL     1       5.007   2.120   1.054  0.00  0.00    +0.000 NA
ENDROOT
BRANCH   1   7
ATOM      7  C   UNL     1       2.838   0.932   0.987  0.00  0.00    +0.000 C 
BRANCH   7   8
ATOM      8  N   UNL     1       2.261   0.325   2.191  0.00  0.00    +0.000 N 
ATOM      9  C   UNL     1       0.914   0.354   2.467  0.00  0.00    +0.000 C 
ATOM     10  O   UNL     1       0.073   0.819   1.702  0.00  0.00    +0.000 OA
ATOM     11  H   UNL     1       2.861   0.088   2.977  0.00  0.00    +0.000 HD
BRANCH   9  12
ATOM     12  C   UNL     1       0.520  -0.200   3.840  0.00  0.00    +0.000 C 
ATOM     13  C   UNL     1       0.394   0.897   4.877  0.00  0.00    +0.000 C 
ATOM     14  C   UNL     1       0.447   0.124   6.183  0.00  0.00    +0.000 C 
ATOM     15  C   UNL     1       1.294  -1.103   5.871  0.00  0.00    +0.000 C 
ATOM     16  N   UNL     1       1.572  -1.067   4.428  0.00  0.00    +0.000 NA
ATOM     17  H   UNL     1       1.494  -2.005   4.035  0.00  0.00    +0.000 HD
ENDBRANCH   9  12
ENDBRANCH   7   8
BRANCH   7  18
ATOM     18  C   UNL     1       2.331   0.226  -0.314  0.00  0.00    +0.000 C 
BRANCH  18  19
ATOM     19  N   UNL     1       2.834   0.768  -1.584  0.00  0.00    +0.000 NA
ATOM     20  H   UNL     1       2.623   0.113  -2.334  0.00  0.00    +0.000 HD
ATOM     21  H   UNL     1       3.849   0.866  -1.545  0.00  0.00    +0.000 HD
ENDBRANCH  18  19
ENDBRANCH   7  18
ENDBRANCH   1   7
BRANCH   4  22
ATOM     22  C   UNL     1       8.642   1.048   1.106  0.00  0.00    +0.000 C 
BRANCH  22  23
ATOM     23  N   UNL     1       9.177   1.040  -0.233  0.00  0.00    +0.000 N 
ATOM     24  C   UNL     1      10.530   0.994  -0.459  0.00  0.00    +0.000 C 
ATOM     25  O   UNL     1      11.338   0.879   0.459  0.00  0.00    +0.000 OA
ATOM     26  H   UNL     1       8.565   1.360  -0.977  0.00  0.00    +0.000 HD
BRANCH  24  27
ATOM     27  C   UNL     1      10.964   1.033  -1.863  0.00  0.00    +0.000 A 
ATOM     28  C   UNL     1      12.210   0.530  -2.214  0.00  0.00    +0.000 A 
ATOM     29  S   UNL     1      12.534   0.609  -3.886  0.00  0.00    +0.000 S 
ATOM     30  C   UNL     1      11.042   1.369  -4.195  0.00  0.00    +0.000 A 
ATOM     31  N   UNL     1      10.697   1.739  -5.458  0.00  0.00    +0.000 NA
ATOM     32  C   UNL     1       9.556   2.338  -5.543  0.00  0.00    +0.000 A 
ATOM     33  N   UNL     1       8.726   2.593  -4.482  0.00  0.00    +0.000 N 
ATOM     34  C   UNL     1       9.018   2.204  -3.197  0.00  0.00    +0.000 A 
ATOM     35  O   UNL     1       8.230   2.391  -2.277  0.00  0.00    +0.000 OA
ATOM     36  C   UNL     1      10.299   1.540  -3.041  0.00  0.00    +0.000 A 
ATOM     37  H   UNL     1       7.840   3.059  -4.617  0.00  0.00    +0.000 HD
ENDBRANCH  24  27
ENDBRANCH  22  23
ENDBRANCH   4  22
TORSDOF 8
