REMARK  Name = 
REMARK  5 active torsions:
REMARK  status: ('A' for Active; 'I' for Inactive)
REMARK    1  A    between atoms: C_2  and  C_4
REMARK    2  A    between atoms: C_7  and  N_8
REMARK    3  A    between atoms: N_8  and  C_9
REMARK    4  A    between atoms: C_9  and  C_10
REMARK    5  A    between atoms: C_15  and  C_16
REMARK                            x       y       z     vdW  Elec       q    Type
REMARK                         _______ _______ _______ _____ _____    ______ ____
ROOT
ATOM      1  C   UNL     1       4.461  -5.608   2.184  0.00  0.00    +0.000 C 
ENDROOT
BRANCH   1   2
ATOM      2  C   UNL     1       5.178  -6.674   2.987  0.00  0.00    +0.000 A 
ATOM      3  C   UNL     1       6.162  -6.334   3.918  0.00  0.00    +0.000 A 
ATOM      4  C   UNL     1       6.796  -7.335   4.641  0.00  0.00    +0.000 A 
ATOM      5  F   UNL     1       7.742  -7.003   5.531  0.00  0.00    +0.000 F 
ATOM      6  C   UNL     1       6.471  -8.679   4.463  0.00  0.00    +0.000 A 
ATOM      7  C   UNL     1       5.499  -9.067   3.527  0.00  0.00    +0.000 A 
ATOM      8  C   UNL     1       4.872  -8.036   2.793  0.00  0.00    +0.000 A 
BRANCH   7   9
ATOM      9  C   UNL     1       5.145 -10.490   3.316  0.00  0.00    +0.000 A 
ATOM     10  C   UNL     1       3.851 -10.895   2.951  0.00  0.00    +0.000 A 
ATOM     11  C   UNL     1       3.552 -12.243   2.747  0.00  0.00    +0.000 A 
ATOM     12  C   UNL     1       4.559 -13.173   2.926  0.00  0.00    +0.000 A 
ATOM     13  N   UNL     1       5.815 -12.846   3.283  0.00  0.00    +0.000 NA
ATOM     14  C   UNL     1       6.074 -11.525   3.462  0.00  0.00    +0.000 A 
ENDBRANCH   7   9
ENDBRANCH   1   2
BRANCH   1  15
ATOM     15  N   UNL     1       3.028  -5.699   2.452  0.00  0.00    +0.000 N 
ATOM     16  H   UNL     1       2.828  -5.620   3.445  0.00  0.00    +0.000 HD
BRANCH  15  20
ATOM     17  C   UNL     1       0.552  -3.219   0.298  0.00  0.00    +0.000 A 
ATOM     18  C   UNL     1       1.927  -3.157   0.137  0.00  0.00    +0.000 A 
ATOM     19  N   UNL     1       2.785  -3.945   0.842  0.00  0.00    +0.000 NA
ATOM     20  C   UNL     1       2.231  -4.803   1.726  0.00  0.00    +0.000 A 
ATOM     21  C   UNL     1       0.836  -4.844   1.876  0.00  0.00    +0.000 A 
ATOM     22  N   UNL     1      -0.038  -4.063   1.186  0.00  0.00    +0.000 NA
BRANCH  17  24
ATOM     23  N   UNL     1      -1.676  -2.475  -0.292  0.00  0.00    +0.000 N 
ATOM     24  C   UNL     1      -0.334  -2.358  -0.533  0.00  0.00    +0.000 C 
ATOM     25  O   UNL     1       0.106  -1.596  -1.385  0.00  0.00    +0.000 OA
ATOM     26  H   UNL     1      -2.329  -1.929  -0.836  0.00  0.00    +0.000 HD
ATOM     27  H   UNL     1      -2.012  -3.122   0.413  0.00  0.00    +0.000 HD
ENDBRANCH  17  24
ENDBRANCH  15  20
ENDBRANCH   1  15
TORSDOF 5
