REMARK  Name = 
REMARK  6 active torsions:
REMARK  status: ('A' for Active; 'I' for Inactive)
REMARK    1  A    between atoms: C_1  and  O_2
REMARK    2  A    between atoms: O_2  and  C_3
REMARK    3  A    between atoms: C_6  and  C_7
REMARK    4  A    between atoms: C_7  and  N_8
REMARK    5  A    between atoms: N_8  and  C_9
REMARK    6  A    between atoms: C_12  and  C_13
REMARK                            x       y       z     vdW  Elec       q    Type
REMARK                         _______ _______ _______ _____ _____    ______ ____
ROOT
ATOM      1  N   UNL     1       5.269   3.884   3.876  0.00  0.00    +0.000 N 
ATOM      2  H   UNL     1       4.425   4.286   3.471  0.00  0.00    +0.000 HD
ENDROOT
BRANCH   1   3
ATOM      3  C   UNL     1       6.436   4.595   3.551  0.00  0.00    +0.000 A 
ATOM      4  C   UNL     1       7.734   4.136   3.780  0.00  0.00    +0.000 A 
ATOM      5  C   UNL     1       8.837   4.987   3.618  0.00  0.00    +0.000 A 
ATOM      6  C   UNL     1       8.661   6.308   3.191  0.00  0.00    +0.000 A 
ATOM      7  C   UNL     1       7.372   6.768   2.919  0.00  0.00    +0.000 A 
ATOM      8  C   UNL     1       6.278   5.918   3.105  0.00  0.00    +0.000 A 
BRANCH   6   9
ATOM      9  C   UNL     1       9.845   7.202   3.106  0.00  0.00    +0.000 C 
ATOM     10  N   UNL     1       9.766   8.272   2.258  0.00  0.00    +0.000 N 
ATOM     11  O   UNL     1      10.862   6.985   3.752  0.00  0.00    +0.000 OA
ATOM     12  H   UNL     1       9.050   8.363   1.553  0.00  0.00    +0.000 HD
ATOM     13  H   UNL     1      10.607   8.825   2.152  0.00  0.00    +0.000 HD
ENDBRANCH   6   9
ENDBRANCH   1   3
BRANCH   1  14
ATOM     14  C   UNL     1       5.137   2.458   4.227  0.00  0.00    +0.000 C 
ATOM     15  C   UNL     1       5.943   1.744   5.296  0.00  0.00    +0.000 C 
ATOM     16  C   UNL     1       4.576   2.229   5.631  0.00  0.00    +0.000 C 
BRANCH  14  20
ATOM     17  C   UNL     1       3.519   0.279   0.960  0.00  0.00    +0.000 A 
ATOM     18  C   UNL     1       2.694   0.827   1.927  0.00  0.00    +0.000 A 
ATOM     19  N   UNL     1       3.172   1.518   2.995  0.00  0.00    +0.000 NA
ATOM     20  C   UNL     1       4.529   1.629   3.091  0.00  0.00    +0.000 A 
ATOM     21  C   UNL     1       5.336   1.058   2.102  0.00  0.00    +0.000 A 
ATOM     22  N   UNL     1       4.863   0.377   1.030  0.00  0.00    +0.000 NA
BRANCH  17  24
ATOM     23  C   UNL     1       3.863  -0.766  -1.096  0.00  0.00    +0.000 C 
ATOM     24  O   UNL     1       2.925  -0.378  -0.095  0.00  0.00    +0.000 OA
ENDBRANCH  17  24
ENDBRANCH  14  20
ENDBRANCH   1  14
TORSDOF 5
