REMARK  Name = 
REMARK  10 active torsions:
REMARK  status: ('A' for Active; 'I' for Inactive)
REMARK    1  A    between atoms: C_1  and  C_2
REMARK    2  A    between atoms: C_2  and  O_3
REMARK    3  A    between atoms: O_3  and  C_4
REMARK    4  A    between atoms: C_4  and  C_5
REMARK    5  A    between atoms: C_5  and  N_6
REMARK    6  A    between atoms: N_6  and  C_7
REMARK    7  A    between atoms: C_7  and  C_8
REMARK    8  A    between atoms: C_11  and  C_12
REMARK    9  A    between atoms: C_12  and  C_13
REMARK   10  A    between atoms: C_21  and  C_23
REMARK                            x       y       z     vdW  Elec       q    Type
REMARK                         _______ _______ _______ _____ _____    ______ ____
ROOT
ATOM      1  N   UNL     1       6.372  -1.211  -2.571  0.00  0.00    +0.000 N 
ATOM      2  C   UNL     1       7.071  -1.952  -3.550  0.00  0.00    +0.000 C 
ATOM      3  O   UNL     1       6.471  -2.507  -4.469  0.00  0.00    +0.000 OA
ENDROOT
BRANCH   2   4
ATOM      4  C   UNL     1       8.542  -2.086  -3.469  0.00  0.00    +0.000 A 
ATOM      5  C   UNL     1       9.250  -2.384  -2.314  0.00  0.00    +0.000 A 
ATOM      6  S   UNL     1      10.936  -2.521  -2.553  0.00  0.00    +0.000 S 
ATOM      7  C   UNL     1      10.764  -2.341  -4.233  0.00  0.00    +0.000 A 
ATOM      8  N   UNL     1      11.833  -2.471  -5.062  0.00  0.00    +0.000 NA
ATOM      9  C   UNL     1      11.545  -2.378  -6.316  0.00  0.00    +0.000 A 
ATOM     10  N   UNL     1      10.292  -2.123  -6.815  0.00  0.00    +0.000 N 
ATOM     11  C   UNL     1       9.211  -1.850  -6.012  0.00  0.00    +0.000 A 
ATOM     12  O   UNL     1       8.174  -1.389  -6.475  0.00  0.00    +0.000 OA
ATOM     13  C   UNL     1       9.454  -2.074  -4.592  0.00  0.00    +0.000 A 
ATOM     14  H   UNL     1      10.151  -1.992  -7.804  0.00  0.00    +0.000 HD
ENDBRANCH   2   4
BRANCH   1  15
ATOM     15  C   UNL     1       4.906  -1.121  -2.704  0.00  0.00    +0.000 C 
BRANCH  15  16
ATOM     16  C   UNL     1       4.104  -2.432  -2.570  0.00  0.00    +0.000 C 
BRANCH  16  17
ATOM     17  O   UNL     1       3.984  -2.918  -1.220  0.00  0.00    +0.000 OA
BRANCH  17  19
ATOM     18  C   UNL     1       2.933  -4.630   0.184  0.00  0.00    +0.000 C 
ATOM     19  C   UNL     1       3.087  -4.042  -1.207  0.00  0.00    +0.000 C 
ENDBRANCH  17  19
ENDBRANCH  16  17
ENDBRANCH  15  16
ENDBRANCH   1  15
BRANCH   1  20
ATOM     20  C   UNL     1       7.067  -0.447  -1.537  0.00  0.00    +0.000 C 
BRANCH  20  21
ATOM     21  C   UNL     1       6.387   0.684  -0.820  0.00  0.00    +0.000 A 
ATOM     22  C   UNL     1       6.339   1.977  -1.343  0.00  0.00    +0.000 A 
ATOM     23  C   UNL     1       5.933   3.034  -0.527  0.00  0.00    +0.000 A 
ATOM     24  C   UNL     1       5.589   2.770   0.797  0.00  0.00    +0.000 A 
ATOM     25  N   UNL     1       5.543   1.509   1.294  0.00  0.00    +0.000 NA
ATOM     26  C   UNL     1       5.929   0.503   0.481  0.00  0.00    +0.000 A 
BRANCH  24  27
ATOM     27  C   UNL     1       5.335   3.898   1.773  0.00  0.00    +0.000 C 
BRANCH  27  28
ATOM     28  C   UNL     1       3.912   4.398   1.824  0.00  0.00    +0.000 A 
ATOM     29  C   UNL     1       2.861   3.530   2.152  0.00  0.00    +0.000 A 
ATOM     30  C   UNL     1       1.549   3.999   2.226  0.00  0.00    +0.000 A 
ATOM     31  C   UNL     1       1.276   5.344   1.987  0.00  0.00    +0.000 A 
ATOM     32  C   UNL     1       2.315   6.222   1.683  0.00  0.00    +0.000 A 
ATOM     33  C   UNL     1       3.627   5.753   1.604  0.00  0.00    +0.000 A 
ENDBRANCH  27  28
ENDBRANCH  24  27
ENDBRANCH  20  21
ENDBRANCH   1  20
TORSDOF 9
