REMARK  Name = 
REMARK  5 active torsions:
REMARK  status: ('A' for Active; 'I' for Inactive)
REMARK    1  A    between atoms: N_1  and  C_2
REMARK    2  A    between atoms: C_2  and  C_3
REMARK    3  A    between atoms: C_3  and  C_4
REMARK    4  A    between atoms: C_7  and  C_8
REMARK    5  A    between atoms: C_8  and  C_9
REMARK                            x       y       z     vdW  Elec       q    Type
REMARK                         _______ _______ _______ _____ _____    ______ ____
ROOT
ATOM      1  C   UNL     1       4.504  -0.220  -1.393  0.00  0.00    +0.000 A 
ATOM      2  C   UNL     1       5.125  -1.465  -1.504  0.00  0.00    +0.000 A 
ATOM      3  C   UNL     1       6.522  -1.565  -1.533  0.00  0.00    +0.000 A 
ATOM      4  C   UNL     1       7.316  -0.414  -1.454  0.00  0.00    +0.000 A 
ATOM      5  C   UNL     1       6.695   0.832  -1.340  0.00  0.00    +0.000 A 
ATOM      6  C   UNL     1       5.297   0.928  -1.308  0.00  0.00    +0.000 A 
ENDROOT
BRANCH   1   7
ATOM      7  C   UNL     1       3.005  -0.123  -1.365  0.00  0.00    +0.000 C 
BRANCH   7   8
ATOM      8  C   UNL     1       2.443  -0.234   0.055  0.00  0.00    +0.000 C 
BRANCH   8   9
ATOM      9  N   UNL     1       0.978  -0.178   0.056  0.00  0.00    +0.000 NA
ATOM     10  H   UNL     1       0.644  -0.284   1.013  0.00  0.00    +0.000 HD
ATOM     11  H   UNL     1       0.610  -0.977  -0.464  0.00  0.00    +0.000 HD
ENDBRANCH   8   9
ENDBRANCH   7   8
ENDBRANCH   1   7
BRANCH   4  12
ATOM     12  C   UNL     1       8.817  -0.536  -1.478  0.00  0.00    +0.000 C 
BRANCH  12  13
ATOM     13  C   UNL     1       9.511  -0.281  -2.798  0.00  0.00    +0.000 A 
ATOM     14  C   UNL     1      10.880   0.006  -2.757  0.00  0.00    +0.000 A 
ATOM     15  C   UNL     1      11.529   0.471  -3.893  0.00  0.00    +0.000 A 
ATOM     16  C   UNL     1      10.827   0.555  -5.105  0.00  0.00    +0.000 A 
ATOM     17  C   UNL     1      11.367   1.120  -6.250  0.00  0.00    +0.000 A 
ATOM     18  N   UNL     1      10.782   1.063  -7.458  0.00  0.00    +0.000 NA
ATOM     19  C   UNL     1       9.599   0.434  -7.484  0.00  0.00    +0.000 A 
ATOM     20  N   UNL     1       8.916  -0.022  -6.421  0.00  0.00    +0.000 NA
ATOM     21  C   UNL     1       9.527   0.066  -5.227  0.00  0.00    +0.000 A 
ATOM     22  C   UNL     1       8.873  -0.307  -4.053  0.00  0.00    +0.000 A 
ENDBRANCH  12  13
ENDBRANCH   4  12
TORSDOF 5
