REMARK  Name = 
REMARK  9 active torsions:
REMARK  status: ('A' for Active; 'I' for Inactive)
REMARK    1  A    between atoms: C_1  and  O_2
REMARK    2  A    between atoms: O_2  and  C_3
REMARK    3  A    between atoms: C_10  and  C_11
REMARK    4  A    between atoms: N_13  and  C_14
REMARK    5  A    between atoms: C_14  and  C_15
REMARK    6  A    between atoms: C_18  and  C_19
REMARK    7  A    between atoms: C_19  and  O_20
REMARK    8  A    between atoms: O_20  and  C_21
REMARK    9  A    between atoms: C_21  and  C_22
REMARK                            x       y       z     vdW  Elec       q    Type
REMARK                         _______ _______ _______ _____ _____    ______ ____
ROOT
ATOM      1  C   UNL     1       3.070  -1.086  -3.282  0.00  0.00    +0.000 C 
ENDROOT
BRANCH   1   2
ATOM      2  C   UNL     1       1.875  -1.890  -2.838  0.00  0.00    +0.000 A 
ATOM      3  C   UNL     1       1.933  -3.288  -2.767  0.00  0.00    +0.000 A 
ATOM      4  C   UNL     1       0.841  -4.023  -2.288  0.00  0.00    +0.000 A 
ATOM      5  C   UNL     1      -0.333  -3.376  -1.879  0.00  0.00    +0.000 A 
ATOM      6  C   UNL     1      -0.408  -1.983  -2.002  0.00  0.00    +0.000 A 
ATOM      7  C   UNL     1       0.681  -1.248  -2.482  0.00  0.00    +0.000 A 
BRANCH   5   8
ATOM      8  C   UNL     1      -1.490  -4.162  -1.312  0.00  0.00    +0.000 C 
BRANCH   8   9
ATOM      9  O   UNL     1      -1.066  -4.843  -0.135  0.00  0.00    +0.000 OA
BRANCH   9  10
ATOM     10  C   UNL     1      -2.143  -5.570   0.469  0.00  0.00    +0.000 C 
BRANCH  10  11
ATOM     11  C   UNL     1      -1.682  -6.293   1.718  0.00  0.00    +0.000 A 
ATOM     12  N   UNL     1      -1.811  -5.654   2.902  0.00  0.00    +0.000 NA
ATOM     13  C   UNL     1      -1.378  -6.317   3.992  0.00  0.00    +0.000 A 
ATOM     14  C   UNL     1      -0.840  -7.581   3.950  0.00  0.00    +0.000 A 
ATOM     15  C   UNL     1      -0.765  -8.151   2.702  0.00  0.00    +0.000 A 
ATOM     16  N   UNL     1      -1.180  -7.539   1.577  0.00  0.00    +0.000 NA
ENDBRANCH  10  11
ENDBRANCH   9  10
ENDBRANCH   8   9
ENDBRANCH   5   8
ENDBRANCH   1   2
BRANCH   1  19
ATOM     17  C   UNL     1       4.109  -0.234  -5.335  0.00  0.00    +0.000 C 
ATOM     18  O   UNL     1       5.040   0.249  -4.692  0.00  0.00    +0.000 OA
ATOM     19  N   UNL     1       3.090  -0.899  -4.710  0.00  0.00    +0.000 N 
ATOM     20  H   UNL     1       2.295  -1.234  -5.241  0.00  0.00    +0.000 HD
BRANCH  17  28
ATOM     21  C   UNL     1       1.901  -1.376  -7.726  0.00  0.00    +0.000 A 
ATOM     22  N   UNL     1       1.269  -1.759  -8.853  0.00  0.00    +0.000 NA
ATOM     23  C   UNL     1       1.799  -1.409 -10.027  0.00  0.00    +0.000 A 
ATOM     24  N   UNL     1       2.908  -0.704 -10.223  0.00  0.00    +0.000 NA
ATOM     25  C   UNL     1       3.518  -0.353  -9.078  0.00  0.00    +0.000 A 
ATOM     26  S   UNL     1       4.945   0.564  -9.142  0.00  0.00    +0.000 S 
ATOM     27  C   UNL     1       5.077   0.562  -7.448  0.00  0.00    +0.000 A 
ATOM     28  C   UNL     1       4.059  -0.128  -6.803  0.00  0.00    +0.000 A 
ATOM     29  C   UNL     1       3.108  -0.652  -7.782  0.00  0.00    +0.000 A 
BRANCH  21  31
ATOM     30  C   UNL     1       0.077  -2.376  -6.635  0.00  0.00    +0.000 C 
ATOM     31  O   UNL     1       1.320  -1.684  -6.513  0.00  0.00    +0.000 OA
ENDBRANCH  21  31
ENDBRANCH  17  28
ENDBRANCH   1  19
TORSDOF 8
