REMARK  Name = 
REMARK  6 active torsions:
REMARK  status: ('A' for Active; 'I' for Inactive)
REMARK    1  A    between atoms: N_1  and  C_2
REMARK    2  A    between atoms: C_2  and  C_3
REMARK    3  A    between atoms: C_6  and  C_7
REMARK    4  A    between atoms: C_7  and  C_8
REMARK    5  A    between atoms: C_8  and  C_9
REMARK    6  A    between atoms: C_13  and  O_14
REMARK                            x       y       z     vdW  Elec       q    Type
REMARK                         _______ _______ _______ _____ _____    ______ ____
ROOT
ATOM      1  C   UNL     1       2.914  -0.802   1.104  0.00  0.00    +0.000 A 
ATOM      2  C   UNL     1       3.281  -0.173   2.299  0.00  0.00    +0.000 A 
ATOM      3  C   UNL     1       3.573  -0.920   3.443  0.00  0.00    +0.000 A 
ATOM      4  C   UNL     1       3.479  -2.318   3.434  0.00  0.00    +0.000 A 
ATOM      5  C   UNL     1       3.144  -2.949   2.227  0.00  0.00    +0.000 A 
ATOM      6  C   UNL     1       2.859  -2.201   1.078  0.00  0.00    +0.000 A 
ENDROOT
BRANCH   1   7
ATOM      7  C   UNL     1       2.554   0.011  -0.113  0.00  0.00    +0.000 C 
BRANCH   7   8
ATOM      8  N   UNL     1       3.633   0.909  -0.510  0.00  0.00    +0.000 NA
ATOM      9  H   UNL     1       3.401   1.335  -1.404  0.00  0.00    +0.000 HD
ATOM     10  H   UNL     1       4.476   0.358  -0.660  0.00  0.00    +0.000 HD
ENDBRANCH   7   8
ENDBRANCH   1   7
BRANCH   4  11
ATOM     11  C   UNL     1       3.784  -3.162   4.656  0.00  0.00    +0.000 C 
BRANCH  11  12
ATOM     12  C   UNL     1       3.385  -2.520   5.990  0.00  0.00    +0.000 C 
BRANCH  12  13
ATOM     13  C   UNL     1       3.682  -3.402   7.171  0.00  0.00    +0.000 A 
ATOM     14  C   UNL     1       2.725  -4.271   7.686  0.00  0.00    +0.000 A 
ATOM     15  N   UNL     1       2.944  -5.041   8.780  0.00  0.00    +0.000 NA
ATOM     16  C   UNL     1       4.168  -4.902   9.341  0.00  0.00    +0.000 A 
ATOM     17  C   UNL     1       5.131  -4.047   8.825  0.00  0.00    +0.000 A 
ATOM     18  N   UNL     1       4.912  -3.291   7.735  0.00  0.00    +0.000 NA
BRANCH  17  19
ATOM     19  O   UNL     1       6.364  -3.903   9.388  0.00  0.00    +0.000 OA
ATOM     20  H   UNL     1       6.411  -4.467  10.173  0.00  0.00    +0.000 HD
ENDBRANCH  17  19
ENDBRANCH  12  13
ENDBRANCH  11  12
ENDBRANCH   4  11
TORSDOF 6
