REMARK  Name = 
REMARK  12 active torsions:
REMARK  status: ('A' for Active; 'I' for Inactive)
REMARK    1  A    between atoms: C_1  and  O_2
REMARK    2  A    between atoms: O_2  and  C_3
REMARK    3  A    between atoms: C_5  and  C_6
REMARK    4  A    between atoms: C_6  and  N_7
REMARK    5  A    between atoms: C_8  and  C_10
REMARK    6  A    between atoms: C_22  and  C_23
REMARK    7  A    between atoms: C_23  and  N_24
REMARK    8  A    between atoms: C_25  and  C_27
REMARK    9  A    between atoms: C_33  and  C_34
REMARK   10  A    between atoms: N_36  and  C_37
REMARK   11  A    between atoms: C_37  and  C_38
REMARK   12  A    between atoms: C_38  and  O_39
REMARK                            x       y       z     vdW  Elec       q    Type
REMARK                         _______ _______ _______ _____ _____    ______ ____
ROOT
ATOM      1  C   UNL     1       3.078  -0.716  -0.862  0.00  0.00    +0.000 A 
ATOM      2  C   UNL     1       2.737  -0.506  -2.218  0.00  0.00    +0.000 A 
ATOM      3  C   UNL     1       3.453  -1.126  -3.260  0.00  0.00    +0.000 A 
ATOM      4  C   UNL     1       4.509  -1.976  -2.917  0.00  0.00    +0.000 A 
ATOM      5  C   UNL     1       4.818  -2.225  -1.577  0.00  0.00    +0.000 A 
ATOM      6  C   UNL     1       4.088  -1.638  -0.531  0.00  0.00    +0.000 A 
ENDROOT
BRANCH   1   8
ATOM      7  C   UNL     1       3.004   0.442   1.215  0.00  0.00    +0.000 C 
ATOM      8  O   UNL     1       2.320  -0.004   0.042  0.00  0.00    +0.000 OA
ENDBRANCH   1   8
BRANCH   3   9
ATOM      9  C   UNL     1       3.105  -0.891  -4.717  0.00  0.00    +0.000 C 
BRANCH   9  10
ATOM     10  N   UNL     1       2.138  -1.842  -5.204  0.00  0.00    +0.000 N 
ATOM     11  C   UNL     1       1.748  -1.879  -6.528  0.00  0.00    +0.000 C 
ATOM     12  O   UNL     1       2.208  -1.129  -7.363  0.00  0.00    +0.000 OA
ATOM     13  H   UNL     1       1.541  -2.275  -4.509  0.00  0.00    +0.000 HD
BRANCH  11  14
ATOM     14  C   UNL     1       0.775  -2.931  -6.871  0.00  0.00    +0.000 A 
ATOM     15  C   UNL     1       0.711  -3.419  -8.170  0.00  0.00    +0.000 A 
ATOM     16  S   UNL     1      -0.436  -4.664  -8.381  0.00  0.00    +0.000 S 
ATOM     17  C   UNL     1      -0.921  -4.563  -6.753  0.00  0.00    +0.000 A 
ATOM     18  N   UNL     1      -1.921  -5.357  -6.267  0.00  0.00    +0.000 NA
ATOM     19  C   UNL     1      -2.205  -5.158  -5.024  0.00  0.00    +0.000 A 
ATOM     20  N   UNL     1      -1.581  -4.241  -4.217  0.00  0.00    +0.000 N 
ATOM     21  C   UNL     1      -0.540  -3.459  -4.649  0.00  0.00    +0.000 A 
ATOM     22  O   UNL     1       0.042  -2.695  -3.878  0.00  0.00    +0.000 OA
ATOM     23  C   UNL     1      -0.200  -3.612  -6.047  0.00  0.00    +0.000 A 
ATOM     24  H   UNL     1      -1.835  -4.156  -3.248  0.00  0.00    +0.000 HD
ENDBRANCH  11  14
ENDBRANCH   9  10
ENDBRANCH   3   9
BRANCH   6  25
ATOM     25  C   UNL     1       4.417  -2.087   0.872  0.00  0.00    +0.000 C 
BRANCH  25  26
ATOM     26  N   UNL     1       3.256  -2.664   1.523  0.00  0.00    +0.000 N 
ATOM     27  C   UNL     1       3.281  -2.963   2.868  0.00  0.00    +0.000 C 
ATOM     28  O   UNL     1       4.283  -2.790   3.545  0.00  0.00    +0.000 OA
ATOM     29  H   UNL     1       2.365  -2.490   1.074  0.00  0.00    +0.000 HD
BRANCH  27  30
ATOM     30  C   UNL     1       2.012  -3.454   3.477  0.00  0.00    +0.000 A 
ATOM     31  C   UNL     1       1.067  -4.080   2.635  0.00  0.00    +0.000 A 
ATOM     32  C   UNL     1      -0.057  -4.710   3.163  0.00  0.00    +0.000 A 
ATOM     33 CL   UNL     1      -1.198  -5.438   2.102  0.00  0.00    +0.000 Cl
ATOM     34  C   UNL     1      -0.244  -4.768   4.536  0.00  0.00    +0.000 A 
ATOM     35  C   UNL     1       0.662  -4.121   5.380  0.00  0.00    +0.000 A 
ATOM     36  C   UNL     1       1.774  -3.418   4.867  0.00  0.00    +0.000 A 
BRANCH  36  37
ATOM     37  C   UNL     1       2.534  -2.618   5.885  0.00  0.00    +0.000 C 
ATOM     38  O   UNL     1       2.555  -2.987   7.055  0.00  0.00    +0.000 OA
ATOM     39  N   UNL     1       3.071  -1.412   5.482  0.00  0.00    +0.000 N 
ATOM     40  H   UNL     1       3.344  -1.316   4.514  0.00  0.00    +0.000 HD
BRANCH  39  41
ATOM     41  C   UNL     1       3.760  -0.527   6.410  0.00  0.00    +0.000 C 
BRANCH  41  42
ATOM     42  C   UNL     1       5.250  -0.848   6.491  0.00  0.00    +0.000 C 
BRANCH  42  43
ATOM     43  O   UNL     1       5.848  -0.691   5.202  0.00  0.00    +0.000 OA
ATOM     44  H   UNL     1       5.492  -1.415   4.648  0.00  0.00    +0.000 HD
ENDBRANCH  42  43
ENDBRANCH  41  42
ENDBRANCH  39  41
ENDBRANCH  36  37
ENDBRANCH  27  30
ENDBRANCH  25  26
ENDBRANCH   6  25
TORSDOF 11
