REMARK  Name = 
REMARK  10 active torsions:
REMARK  status: ('A' for Active; 'I' for Inactive)
REMARK    1  A    between atoms: C_1  and  C_2
REMARK    2  A    between atoms: C_2  and  C_3
REMARK    3  A    between atoms: C_2  and  N_10
REMARK    4  A    between atoms: C_3  and  C_4
REMARK    5  A    between atoms: N_10  and  C_11
REMARK    6  A    between atoms: C_11  and  C_12
REMARK    7  A    between atoms: C_15  and  C_16
REMARK    8  A    between atoms: C_16  and  N_17
REMARK    9  A    between atoms: C_18  and  C_20
REMARK   10  A    between atoms: N_26  and  C_27
REMARK                            x       y       z     vdW  Elec       q    Type
REMARK                         _______ _______ _______ _____ _____    ______ ____
ROOT
ATOM      1  C   UNL     1       4.974   2.670  -1.023  0.00  0.00    +0.000 A 
ATOM      2  C   UNL     1       4.471   3.828  -0.433  0.00  0.00    +0.000 A 
ATOM      3  C   UNL     1       4.820   5.063  -0.972  0.00  0.00    +0.000 A 
ATOM      4  C   UNL     1       5.674   5.121  -2.074  0.00  0.00    +0.000 A 
ATOM      5  C   UNL     1       6.123   3.912  -2.598  0.00  0.00    +0.000 A 
ATOM      6  N   UNL     1       5.797   2.696  -2.101  0.00  0.00    +0.000 NA
ENDROOT
BRANCH   1   7
ATOM      7  C   UNL     1       4.522   1.316  -0.515  0.00  0.00    +0.000 C 
BRANCH   7   8
ATOM      8  N   UNL     1       3.079   1.067  -0.683  0.00  0.00    +0.000 NA
ATOM      9  H   UNL     1       2.863   0.155  -0.283  0.00  0.00    +0.000 HD
BRANCH   8  11
ATOM     10  C   UNL     1       1.088   1.000  -2.033  0.00  0.00    +0.000 C 
ATOM     11  C   UNL     1       2.618   1.106  -2.090  0.00  0.00    +0.000 C 
BRANCH  11  12
ATOM     12  C   UNL     1       3.259  -0.016  -2.941  0.00  0.00    +0.000 C 
BRANCH  12  13
ATOM     13  C   UNL     1       2.846  -0.072  -4.391  0.00  0.00    +0.000 A 
ATOM     14  C   UNL     1       3.600   0.572  -5.373  0.00  0.00    +0.000 A 
ATOM     15  C   UNL     1       3.229   0.414  -6.700  0.00  0.00    +0.000 A 
ATOM     16  N   UNL     1       2.140  -0.270  -7.105  0.00  0.00    +0.000 NA
ATOM     17  C   UNL     1       1.420  -0.878  -6.139  0.00  0.00    +0.000 A 
ATOM     18  C   UNL     1       1.737  -0.821  -4.791  0.00  0.00    +0.000 A 
ENDBRANCH  12  13
ENDBRANCH  11  12
ENDBRANCH   8  11
ENDBRANCH   7   8
ENDBRANCH   1   7
BRANCH   4  19
ATOM     19  C   UNL     1       6.016   6.425  -2.734  0.00  0.00    +0.000 C 
BRANCH  19  20
ATOM     20  N   UNL     1       5.032   6.752  -3.735  0.00  0.00    +0.000 N 
ATOM     21  C   UNL     1       5.094   7.902  -4.476  0.00  0.00    +0.000 C 
ATOM     22  O   UNL     1       5.923   8.780  -4.248  0.00  0.00    +0.000 OA
ATOM     23  H   UNL     1       4.485   5.975  -4.093  0.00  0.00    +0.000 HD
BRANCH  21  24
ATOM     24  C   UNL     1       4.079   8.051  -5.529  0.00  0.00    +0.000 A 
ATOM     25  C   UNL     1       3.730   9.312  -5.989  0.00  0.00    +0.000 A 
ATOM     26  S   UNL     1       2.500   9.293  -7.172  0.00  0.00    +0.000 S 
ATOM     27  C   UNL     1       2.424   7.592  -7.145  0.00  0.00    +0.000 A 
ATOM     28  N   UNL     1       1.563   6.918  -7.953  0.00  0.00    +0.000 NA
ATOM     29  C   UNL     1       1.626   5.633  -7.843  0.00  0.00    +0.000 A 
ATOM     30  N   UNL     1       2.472   4.943  -6.998  0.00  0.00    +0.000 N 
ATOM     31  C   UNL     1       2.474   3.508  -6.969  0.00  0.00    +0.000 C 
ATOM     32  C   UNL     1       3.370   5.602  -6.167  0.00  0.00    +0.000 A 
ATOM     33  O   UNL     1       4.143   5.005  -5.421  0.00  0.00    +0.000 OA
ATOM     34  C   UNL     1       3.319   7.051  -6.244  0.00  0.00    +0.000 A 
ENDBRANCH  21  24
ENDBRANCH  19  20
ENDBRANCH   4  19
TORSDOF 8
