REMARK  Name = 
REMARK  5 active torsions:
REMARK  status: ('A' for Active; 'I' for Inactive)
REMARK    1  A    between atoms: N_1  and  C_2
REMARK    2  A    between atoms: C_2  and  C_3
REMARK    3  A    between atoms: C_6  and  O_7
REMARK    4  A    between atoms: O_7  and  C_8
REMARK    5  A    between atoms: C_8  and  C_9
REMARK                            x       y       z     vdW  Elec       q    Type
REMARK                         _______ _______ _______ _____ _____    ______ ____
ROOT
ATOM      1  C   UNL     1       2.849  -0.939   0.926  0.00  0.00    +0.000 A 
ATOM      2  C   UNL     1       3.241  -0.542   2.213  0.00  0.00    +0.000 A 
ATOM      3  C   UNL     1       3.502  -1.489   3.208  0.00  0.00    +0.000 A 
ATOM      4  C   UNL     1       3.365  -2.846   2.927  0.00  0.00    +0.000 A 
ATOM      5  C   UNL     1       3.018  -3.252   1.638  0.00  0.00    +0.000 A 
ATOM      6  C   UNL     1       2.756  -2.307   0.644  0.00  0.00    +0.000 A 
ENDROOT
BRANCH   1   7
ATOM      7  C   UNL     1       2.484   0.087  -0.115  0.00  0.00    +0.000 C 
BRANCH   7   8
ATOM      8  N   UNL     1       3.567   1.032  -0.354  0.00  0.00    +0.000 NA
ATOM      9  H   UNL     1       3.311   1.638  -1.133  0.00  0.00    +0.000 HD
ATOM     10  H   UNL     1       4.391   0.513  -0.656  0.00  0.00    +0.000 HD
ENDBRANCH   7   8
ENDBRANCH   1   7
BRANCH   4  11
ATOM     11  O   UNL     1       3.591  -3.859   3.815  0.00  0.00    +0.000 OA
BRANCH  11  12
ATOM     12  C   UNL     1       3.285  -3.574   5.182  0.00  0.00    +0.000 C 
BRANCH  12  13
ATOM     13  C   UNL     1       3.484  -4.817   5.997  0.00  0.00    +0.000 A 
ATOM     14  C   UNL     1       4.435  -5.770   5.693  0.00  0.00    +0.000 A 
ATOM     15  N   UNL     1       4.637  -6.887   6.421  0.00  0.00    +0.000 NA
ATOM     16  C   UNL     1       3.848  -7.033   7.493  0.00  0.00    +0.000 A 
ATOM     17  N   UNL     1       2.916  -6.163   7.910  0.00  0.00    +0.000 NA
ATOM     18  C   UNL     1       2.760  -5.065   7.144  0.00  0.00    +0.000 A 
ENDBRANCH  12  13
ENDBRANCH  11  12
ENDBRANCH   4  11
TORSDOF 5
