REMARK  Name = 
REMARK  6 active torsions:
REMARK  status: ('A' for Active; 'I' for Inactive)
REMARK    1  A    between atoms: C_1  and  O_2
REMARK    2  A    between atoms: O_2  and  C_3
REMARK    3  A    between atoms: N_6  and  C_7
REMARK    4  A    between atoms: C_7  and  C_8
REMARK    5  A    between atoms: C_12  and  C_13
REMARK    6  A    between atoms: C_23  and  C_24
REMARK                            x       y       z     vdW  Elec       q    Type
REMARK                         _______ _______ _______ _____ _____    ______ ____
ROOT
ATOM      1  C   UNL     1       7.342   0.596  -0.937  0.00  0.00    +0.000 A 
ATOM      2  N   UNL     1       7.168  -0.641  -1.470  0.00  0.00    +0.000 NA
ATOM      3  C   UNL     1       6.154  -1.414  -1.024  0.00  0.00    +0.000 A 
ATOM      4  N   UNL     1       5.912  -2.659  -1.602  0.00  0.00    +0.000 N 
ATOM      5  C   UNL     1       5.278  -0.943  -0.054  0.00  0.00    +0.000 A 
ATOM      6  C   UNL     1       5.450   0.339   0.471  0.00  0.00    +0.000 A 
ATOM      7  C   UNL     1       6.497   1.148   0.021  0.00  0.00    +0.000 A 
ATOM      8  H   UNL     1       5.589  -3.355  -0.941  0.00  0.00    +0.000 HD
ENDROOT
BRANCH   7   9
ATOM      9  C   UNL     1       6.622   2.508   0.606  0.00  0.00    +0.000 C 
ATOM     10  N   UNL     1       7.635   3.322   0.185  0.00  0.00    +0.000 N 
ATOM     11  O   UNL     1       5.832   2.909   1.458  0.00  0.00    +0.000 OA
ATOM     12  H   UNL     1       8.292   3.043  -0.535  0.00  0.00    +0.000 HD
ATOM     13  H   UNL     1       7.697   4.253   0.573  0.00  0.00    +0.000 HD
ENDBRANCH   7   9
BRANCH   1  15
ATOM     14  C   UNL     1       9.436   0.544  -1.987  0.00  0.00    +0.000 C 
ATOM     15  O   UNL     1       8.409   1.342  -1.404  0.00  0.00    +0.000 OA
ENDBRANCH   1  15
BRANCH   4  16
ATOM     16  C   UNL     1       6.838  -3.177  -2.600  0.00  0.00    +0.000 C 
BRANCH  16  17
ATOM     17  C   UNL     1       7.991  -3.966  -2.015  0.00  0.00    +0.000 A 
ATOM     18  C   UNL     1       8.184  -5.312  -2.327  0.00  0.00    +0.000 A 
ATOM     19  C   UNL     1       9.320  -5.950  -1.849  0.00  0.00    +0.000 A 
ATOM     20  N   UNL     1      10.260  -5.354  -1.081  0.00  0.00    +0.000 NA
ATOM     21  C   UNL     1      10.070  -4.055  -0.753  0.00  0.00    +0.000 A 
ATOM     22  C   UNL     1       8.960  -3.347  -1.216  0.00  0.00    +0.000 A 
BRANCH  21  23
ATOM     23  C   UNL     1      11.096  -3.439   0.104  0.00  0.00    +0.000 A 
ATOM     24  C   UNL     1      12.433  -3.845   0.063  0.00  0.00    +0.000 A 
ATOM     25  N   UNL     1      13.439  -3.311   0.812  0.00  0.00    +0.000 NA
ATOM     26  C   UNL     1      13.093  -2.324   1.666  0.00  0.00    +0.000 A 
ATOM     27  C   UNL     1      11.801  -1.854   1.795  0.00  0.00    +0.000 A 
ATOM     28  F   UNL     1      11.512  -0.873   2.659  0.00  0.00    +0.000 F 
ATOM     29  C   UNL     1      10.797  -2.410   1.013  0.00  0.00    +0.000 A 
ENDBRANCH  21  23
ENDBRANCH  16  17
ENDBRANCH   4  16
TORSDOF 5
