REMARK  Name = 
REMARK  7 active torsions:
REMARK  status: ('A' for Active; 'I' for Inactive)
REMARK    1  A    between atoms: C_1  and  C_2
REMARK    2  A    between atoms: C_2  and  O_3
REMARK    3  A    between atoms: C_8  and  C_9
REMARK    4  A    between atoms: C_9  and  C_10
REMARK    5  A    between atoms: C_10  and  O_11
REMARK    6  A    between atoms: O_11  and  C_12
REMARK    7  A    between atoms: C_15  and  C_16
REMARK                            x       y       z     vdW  Elec       q    Type
REMARK                         _______ _______ _______ _____ _____    ______ ____
ROOT
ATOM      1  C   UNL     1       1.467  -2.306  -3.058  0.00  0.00    +0.000 C 
ATOM      2  C   UNL     1       2.442  -1.834  -1.974  0.00  0.00    +0.000 C 
ATOM      3  C   UNL     1       2.214  -0.366  -1.528  0.00  0.00    +0.000 C 
ATOM      4  N   UNL     1       2.757   0.636  -2.452  0.00  0.00    +0.000 N 
ATOM      5  C   UNL     1       1.874   1.370  -3.227  0.00  0.00    +0.000 A 
ATOM      6  C   UNL     1       2.239   2.647  -3.650  0.00  0.00    +0.000 A 
ATOM      7  C   UNL     1       1.347   3.445  -4.374  0.00  0.00    +0.000 A 
ATOM      8  C   UNL     1       0.098   2.912  -4.684  0.00  0.00    +0.000 A 
ATOM      9  C   UNL     1      -0.197   1.636  -4.231  0.00  0.00    +0.000 A 
ATOM     10  N   UNL     1       0.653   0.870  -3.508  0.00  0.00    +0.000 NA
ATOM     11  C   UNL     1       4.091   0.335  -2.980  0.00  0.00    +0.000 C 
ATOM     12  C   UNL     1       4.211  -1.132  -3.420  0.00  0.00    +0.000 C 
ATOM     13  O   UNL     1       3.792  -2.056  -2.409  0.00  0.00    +0.000 OA
ENDROOT
BRANCH   2  14
ATOM     14  O   UNL     1       2.245  -2.655  -0.812  0.00  0.00    +0.000 OA
ATOM     15  H   UNL     1       1.335  -2.990  -0.833  0.00  0.00    +0.000 HD
ENDBRANCH   2  14
BRANCH   7  16
ATOM     16  C   UNL     1       1.757   4.816  -4.845  0.00  0.00    +0.000 C 
BRANCH  16  17
ATOM     17  C   UNL     1       2.457   4.726  -6.199  0.00  0.00    +0.000 C 
BRANCH  17  18
ATOM     18  O   UNL     1       2.841   6.031  -6.648  0.00  0.00    +0.000 OA
BRANCH  18  19
ATOM     19  C   UNL     1       3.463   6.058  -7.861  0.00  0.00    +0.000 A 
ATOM     20  C   UNL     1       3.761   4.985  -8.674  0.00  0.00    +0.000 A 
ATOM     21  N   UNL     1       4.375   5.083  -9.872  0.00  0.00    +0.000 NA
ATOM     22  C   UNL     1       4.720   6.324 -10.293  0.00  0.00    +0.000 A 
ATOM     23  N   UNL     1       4.474   7.444  -9.565  0.00  0.00    +0.000 NA
ATOM     24  C   UNL     1       3.852   7.279  -8.372  0.00  0.00    +0.000 A 
BRANCH  22  25
ATOM     25  C   UNL     1       5.413   6.462 -11.656  0.00  0.00    +0.000 C 
ATOM     26  F   UNL     1       5.610   5.268 -12.296  0.00  0.00    +0.000 F 
ATOM     27  F   UNL     1       4.709   7.230 -12.542  0.00  0.00    +0.000 F 
ATOM     28  F   UNL     1       6.652   7.033 -11.575  0.00  0.00    +0.000 F 
ENDBRANCH  22  25
ENDBRANCH  18  19
ENDBRANCH  17  18
ENDBRANCH  16  17
ENDBRANCH   7  16
TORSDOF 6
