REMARK  Name = 
REMARK  8 active torsions:
REMARK  status: ('A' for Active; 'I' for Inactive)
REMARK    1  A    between atoms: C_2  and  C_3
REMARK    2  A    between atoms: C_7  and  C_8
REMARK    3  A    between atoms: C_12  and  C_13
REMARK    4  A    between atoms: C_13  and  C_14
REMARK    5  A    between atoms: C_13  and  C_16
REMARK    6  A    between atoms: C_14  and  O_15
REMARK    7  A    between atoms: C_16  and  N_17
REMARK    8  A    between atoms: C_20  and  C_21
REMARK                            x       y       z     vdW  Elec       q    Type
REMARK                         _______ _______ _______ _____ _____    ______ ____
ROOT
ATOM      1  C   UNL     1      -5.268   4.155   1.724  0.00  0.00    +0.000 C 
ENDROOT
BRANCH   1   6
ATOM      2  C   UNL     1      -4.515   2.983   5.318  0.00  0.00    +0.000 A 
ATOM      3  C   UNL     1      -3.730   4.056   5.772  0.00  0.00    +0.000 A 
ATOM      4  C   UNL     1      -3.480   5.166   4.964  0.00  0.00    +0.000 A 
ATOM      5  C   UNL     1      -4.009   5.227   3.679  0.00  0.00    +0.000 A 
ATOM      6  C   UNL     1      -4.766   4.165   3.169  0.00  0.00    +0.000 A 
ATOM      7  C   UNL     1      -5.024   3.064   4.005  0.00  0.00    +0.000 A 
BRANCH   2  12
ATOM      8  C   UNL     1      -4.075   0.159   7.826  0.00  0.00    +0.000 A 
ATOM      9  C   UNL     1      -5.312  -0.447   7.696  0.00  0.00    +0.000 A 
ATOM     10  N   UNL     1      -6.280   0.004   6.868  0.00  0.00    +0.000 NA
ATOM     11  C   UNL     1      -5.991   1.111   6.138  0.00  0.00    +0.000 A 
ATOM     12  C   UNL     1      -4.775   1.802   6.169  0.00  0.00    +0.000 A 
ATOM     13  C   UNL     1      -3.809   1.292   7.051  0.00  0.00    +0.000 A 
BRANCH   8  15
ATOM     14  N   UNL     1      -2.304  -0.791   9.455  0.00  0.00    +0.000 NA
ATOM     15  C   UNL     1      -3.099  -0.369   8.725  0.00  0.00    +0.000 C 
ENDBRANCH   8  15
ENDBRANCH   2  12
ENDBRANCH   1   6
BRANCH   1  16
ATOM     16  C   UNL     1      -4.098   3.977   0.735  0.00  0.00    +0.000 C 
BRANCH  16  17
ATOM     17  O   UNL     1      -3.199   5.081   0.713  0.00  0.00    +0.000 OA
ATOM     18  H   UNL     1      -2.601   4.976   1.472  0.00  0.00    +0.000 HD
ENDBRANCH  16  17
ENDBRANCH   1  16
BRANCH   1  19
ATOM     19  C   UNL     1      -6.143   5.384   1.412  0.00  0.00    +0.000 C 
BRANCH  19  20
ATOM     20  N   UNL     1      -6.768   5.280   0.086  0.00  0.00    +0.000 N 
ATOM     21  C   UNL     1      -7.569   6.389  -0.241  0.00  0.00    +0.000 A 
ATOM     22  C   UNL     1      -8.153   6.445  -1.501  0.00  0.00    +0.000 A 
ATOM     23  C   UNL     1      -8.947   7.545  -1.842  0.00  0.00    +0.000 A 
ATOM     24  C   UNL     1      -9.127   8.566  -0.912  0.00  0.00    +0.000 A 
ATOM     25  C   UNL     1      -8.505   8.435   0.311  0.00  0.00    +0.000 A 
ATOM     26  N   UNL     1      -7.740   7.380   0.655  0.00  0.00    +0.000 NA
ATOM     27  H   UNL     1      -7.314   4.433  -0.040  0.00  0.00    +0.000 HD
BRANCH  23  28
ATOM     28  C   UNL     1      -9.560   7.571  -3.199  0.00  0.00    +0.000 C 
ATOM     29  N   UNL     1     -10.345   8.638  -3.544  0.00  0.00    +0.000 N 
ATOM     30  O   UNL     1      -9.380   6.660  -3.998  0.00  0.00    +0.000 OA
ATOM     31  H   UNL     1     -10.554   9.432  -2.962  0.00  0.00    +0.000 HD
ATOM     32  H   UNL     1     -10.744   8.618  -4.475  0.00  0.00    +0.000 HD
ENDBRANCH  23  28
ENDBRANCH  19  20
ENDBRANCH   1  19
TORSDOF 8
