REMARK  Name = 
REMARK  6 active torsions:
REMARK  status: ('A' for Active; 'I' for Inactive)
REMARK    1  A    between atoms: C_2  and  C_20
REMARK    2  A    between atoms: N_3  and  C_4
REMARK    3  A    between atoms: C_4  and  C_5
REMARK    4  A    between atoms: C_8  and  C_9
REMARK    5  A    between atoms: C_9  and  N_10
REMARK    6  A    between atoms: C_11  and  C_13
REMARK                            x       y       z     vdW  Elec       q    Type
REMARK                         _______ _______ _______ _____ _____    ______ ____
ROOT
ATOM      1  C   UNL     1       3.284  -3.810   0.677  0.00  0.00    +0.000 C 
ATOM      2  C   UNL     1       2.554  -5.158   0.766  0.00  0.00    +0.000 C 
ATOM      3  C   UNL     1       3.478  -6.304   1.168  0.00  0.00    +0.000 C 
ATOM      4  C   UNL     1       4.241  -6.019   2.474  0.00  0.00    +0.000 C 
ATOM      5  C   UNL     1       4.912  -4.634   2.453  0.00  0.00    +0.000 C 
ATOM      6  C   UNL     1       3.966  -3.517   2.018  0.00  0.00    +0.000 C 
ENDROOT
BRANCH   1   7
ATOM      7  C   UNL     1       4.287  -3.744  -0.492  0.00  0.00    +0.000 C 
BRANCH   7  10
ATOM      8  O   UNL     1       5.373  -4.843  -2.879  0.00  0.00    +0.000 OA
ATOM      9  C   UNL     1       4.244  -4.363  -2.892  0.00  0.00    +0.000 C 
ATOM     10  N   UNL     1       3.617  -3.889  -1.765  0.00  0.00    +0.000 N 
ATOM     11  H   UNL     1       2.805  -3.298  -1.896  0.00  0.00    +0.000 HD
BRANCH   9  12
ATOM     12  C   UNL     1       3.433  -4.326  -4.116  0.00  0.00    +0.000 A 
ATOM     13  C   UNL     1       3.624  -5.264  -5.119  0.00  0.00    +0.000 A 
ATOM     14  S   UNL     1       2.514  -5.112  -6.409  0.00  0.00    +0.000 S 
ATOM     15  C   UNL     1       1.778  -3.752  -5.691  0.00  0.00    +0.000 A 
ATOM     16  N   UNL     1       0.725  -3.123  -6.281  0.00  0.00    +0.000 NA
ATOM     17  C   UNL     1       0.291  -2.092  -5.636  0.00  0.00    +0.000 A 
ATOM     18  N   UNL     1       0.821  -1.622  -4.463  0.00  0.00    +0.000 N 
ATOM     19  C   UNL     1       1.870  -2.237  -3.823  0.00  0.00    +0.000 A 
ATOM     20  O   UNL     1       2.295  -1.816  -2.753  0.00  0.00    +0.000 OA
ATOM     21  C   UNL     1       2.381  -3.415  -4.496  0.00  0.00    +0.000 A 
ATOM     22  H   UNL     1       0.438  -0.809  -4.009  0.00  0.00    +0.000 HD
ENDBRANCH   9  12
ENDBRANCH   7  10
ENDBRANCH   1   7
BRANCH   4  23
ATOM     23  C   UNL     1       5.309  -7.095   2.743  0.00  0.00    +0.000 C 
BRANCH  23  24
ATOM     24  N   UNL     1       4.762  -8.424   2.890  0.00  0.00    +0.000 N 
ATOM     25  C   UNL     1       4.299  -8.925   4.085  0.00  0.00    +0.000 C 
ATOM     26  O   UNL     1       4.355  -8.314   5.148  0.00  0.00    +0.000 OA
ATOM     27  H   UNL     1       4.571  -9.001   2.073  0.00  0.00    +0.000 HD
BRANCH  25  28
ATOM     28  C   UNL     1       3.769 -10.361   3.994  0.00  0.00    +0.000 C 
ATOM     29  C   UNL     1       4.863 -11.398   4.159  0.00  0.00    +0.000 C 
ATOM     30  C   UNL     1       4.233 -12.646   3.569  0.00  0.00    +0.000 C 
ATOM     31  C   UNL     1       3.253 -12.130   2.522  0.00  0.00    +0.000 C 
ATOM     32  N   UNL     1       3.263 -10.668   2.629  0.00  0.00    +0.000 NA
ATOM     33  H   UNL     1       2.318 -10.296   2.527  0.00  0.00    +0.000 HD
ENDBRANCH  25  28
ENDBRANCH  23  24
ENDBRANCH   4  23
TORSDOF 6
