REMARK  Name = 
REMARK  10 active torsions:
REMARK  status: ('A' for Active; 'I' for Inactive)
REMARK    1  A    between atoms: C_1  and  O_2
REMARK    2  A    between atoms: O_2  and  C_3
REMARK    3  A    between atoms: C_10  and  C_11
REMARK    4  A    between atoms: N_13  and  C_14
REMARK    5  A    between atoms: C_14  and  C_15
REMARK    6  A    between atoms: C_18  and  C_19
REMARK    7  A    between atoms: C_19  and  N_20
REMARK    8  A    between atoms: N_20  and  C_21
REMARK    9  A    between atoms: C_21  and  C_22
REMARK   10  A    between atoms: C_26  and  C_27
REMARK                            x       y       z     vdW  Elec       q    Type
REMARK                         _______ _______ _______ _____ _____    ______ ____
ROOT
ATOM      1  C   UNL     1       1.650  -3.222  -1.047  0.00  0.00    +0.000 A 
ATOM      2  C   UNL     1       1.537  -4.545  -0.603  0.00  0.00    +0.000 A 
ATOM      3  C   UNL     1       0.534  -4.908   0.302  0.00  0.00    +0.000 A 
ATOM      4  C   UNL     1      -0.380  -3.956   0.779  0.00  0.00    +0.000 A 
ATOM      5  C   UNL     1      -0.303  -2.648   0.285  0.00  0.00    +0.000 A 
ATOM      6  C   UNL     1       0.696  -2.286  -0.623  0.00  0.00    +0.000 A 
ENDROOT
BRANCH   1   7
ATOM      7  C   UNL     1       2.783  -2.806  -1.946  0.00  0.00    +0.000 C 
BRANCH   7  10
ATOM      8  C   UNL     1       3.346  -2.580  -4.313  0.00  0.00    +0.000 C 
ATOM      9  O   UNL     1       4.453  -2.131  -4.021  0.00  0.00    +0.000 OA
ATOM     10  N   UNL     1       2.450  -2.934  -3.341  0.00  0.00    +0.000 N 
ATOM     11  H   UNL     1       1.551  -3.331  -3.585  0.00  0.00    +0.000 HD
BRANCH   8  19
ATOM     12  C   UNL     1       0.479  -3.726  -5.850  0.00  0.00    +0.000 A 
ATOM     13  N   UNL     1      -0.479  -4.151  -6.699  0.00  0.00    +0.000 NA
ATOM     14  C   UNL     1      -0.232  -4.089  -8.010  0.00  0.00    +0.000 A 
ATOM     15  N   UNL     1       0.875  -3.643  -8.595  0.00  0.00    +0.000 NA
ATOM     16  C   UNL     1       1.809  -3.243  -7.715  0.00  0.00    +0.000 A 
ATOM     17  S   UNL     1       3.287  -2.638  -8.289  0.00  0.00    +0.000 S 
ATOM     18  C   UNL     1       3.853  -2.388  -6.708  0.00  0.00    +0.000 A 
ATOM     19  C   UNL     1       2.945  -2.753  -5.719  0.00  0.00    +0.000 A 
ATOM     20  C   UNL     1       1.716  -3.255  -6.326  0.00  0.00    +0.000 A 
BRANCH  12  22
ATOM     21  C   UNL     1      -1.176  -3.772  -4.202  0.00  0.00    +0.000 C 
ATOM     22  O   UNL     1       0.220  -3.788  -4.496  0.00  0.00    +0.000 OA
ENDBRANCH  12  22
ENDBRANCH   8  19
ENDBRANCH   7  10
ENDBRANCH   1   7
BRANCH   4  23
ATOM     23  C   UNL     1      -1.407  -4.331   1.827  0.00  0.00    +0.000 C 
BRANCH  23  24
ATOM     24  N   UNL     1      -0.750  -4.819   3.037  0.00  0.00    +0.000 NA
ATOM     25  H   UNL     1      -0.126  -4.091   3.389  0.00  0.00    +0.000 HD
BRANCH  24  26
ATOM     26  C   UNL     1      -1.718  -5.135   4.095  0.00  0.00    +0.000 C 
BRANCH  26  27
ATOM     27  C   UNL     1      -1.030  -5.636   5.353  0.00  0.00    +0.000 A 
ATOM     28  C   UNL     1      -0.235  -6.780   5.303  0.00  0.00    +0.000 A 
ATOM     29  C   UNL     1       0.417  -7.197   6.458  0.00  0.00    +0.000 A 
ATOM     30  C   UNL     1       0.252  -6.472   7.632  0.00  0.00    +0.000 A 
ATOM     31  C   UNL     1      -0.566  -5.346   7.615  0.00  0.00    +0.000 A 
ATOM     32  C   UNL     1      -0.787  -4.544   8.862  0.00  0.00    +0.000 C 
ATOM     33  N   UNL     1      -1.202  -4.921   6.495  0.00  0.00    +0.000 NA
ENDBRANCH  26  27
ENDBRANCH  24  26
ENDBRANCH  23  24
ENDBRANCH   4  23
TORSDOF 8
