REMARK  Name = 
REMARK  4 active torsions:
REMARK  status: ('A' for Active; 'I' for Inactive)
REMARK    1  A    between atoms: C_2  and  O_3
REMARK    2  A    between atoms: C_2  and  C_4
REMARK    3  A    between atoms: C_8  and  C_9
REMARK    4  A    between atoms: C_9  and  N_10
REMARK                            x       y       z     vdW  Elec       q    Type
REMARK                         _______ _______ _______ _____ _____    ______ ____
ROOT
ATOM      1  C   UNL     1       3.424  -2.360   0.384  0.00  0.00    +0.000 A 
ATOM      2  C   UNL     1       2.433  -2.410   1.371  0.00  0.00    +0.000 A 
ATOM      3  C   UNL     1       2.721  -1.993   2.669  0.00  0.00    +0.000 A 
ATOM      4  C   UNL     1       4.000  -1.536   2.990  0.00  0.00    +0.000 A 
ATOM      5  C   UNL     1       5.006  -1.481   2.015  0.00  0.00    +0.000 A 
ATOM      6  C   UNL     1       4.701  -1.875   0.702  0.00  0.00    +0.000 A 
ENDROOT
BRANCH   1   8
ATOM      7  O   UNL     1       1.954  -2.670  -1.460  0.00  0.00    +0.000 OA
ATOM      8  C   UNL     1       3.072  -2.795  -0.988  0.00  0.00    +0.000 C 
BRANCH   8   9
ATOM      9  O   UNL     1       4.096  -3.372  -1.654  0.00  0.00    +0.000 OA
ATOM     10  H   UNL     1       4.865  -3.604  -1.101  0.00  0.00    +0.000 HD
ENDBRANCH   8   9
ENDBRANCH   1   8
BRANCH   5  11
ATOM     11  C   UNL     1       6.402  -1.032   2.370  0.00  0.00    +0.000 C 
BRANCH  11  12
ATOM     12  N   UNL     1       7.249  -2.160   2.750  0.00  0.00    +0.000 N 
ATOM     13  C   UNL     1       7.974  -2.915   1.857  0.00  0.00    +0.000 A 
ATOM     14  C   UNL     1       8.746  -3.799   2.574  0.00  0.00    +0.000 A 
ATOM     15  C   UNL     1       8.488  -3.580   3.955  0.00  0.00    +0.000 A 
ATOM     16  C   UNL     1       8.984  -4.146   5.137  0.00  0.00    +0.000 A 
ATOM     17  N   UNL     1       8.537  -3.727   6.345  0.00  0.00    +0.000 NA
ATOM     18  C   UNL     1       7.599  -2.759   6.389  0.00  0.00    +0.000 A 
ATOM     19  C   UNL     1       7.049  -2.132   5.281  0.00  0.00    +0.000 A 
ATOM     20  C   UNL     1       7.529  -2.565   4.041  0.00  0.00    +0.000 A 
ENDBRANCH  11  12
ENDBRANCH   5  11
TORSDOF 4
