REMARK  Name = 
REMARK  5 active torsions:
REMARK  status: ('A' for Active; 'I' for Inactive)
REMARK    1  A    between atoms: C_1  and  N_2
REMARK    2  A    between atoms: N_8  and  C_9
REMARK    3  A    between atoms: C_9  and  C_10
REMARK    4  A    between atoms: C_14  and  C_15
REMARK    5  A    between atoms: C_19  and  C_20
REMARK                            x       y       z     vdW  Elec       q    Type
REMARK                         _______ _______ _______ _____ _____    ______ ____
ROOT
ATOM      1  C   UNL     1       7.271   2.405   3.589  0.00  0.00    +0.000 A 
ATOM      2  C   UNL     1       7.318   3.805   3.557  0.00  0.00    +0.000 A 
ATOM      3  C   UNL     1       8.205   4.500   4.372  0.00  0.00    +0.000 A 
ATOM      4  C   UNL     1       9.043   3.801   5.243  0.00  0.00    +0.000 A 
ATOM      5  C   UNL     1       9.013   2.396   5.329  0.00  0.00    +0.000 A 
ATOM      6  C   UNL     1       8.145   1.711   4.453  0.00  0.00    +0.000 A 
ENDROOT
BRANCH   5   7
ATOM      7  C   UNL     1       9.810   1.685   6.355  0.00  0.00    +0.000 A 
ATOM      8  C   UNL     1       9.995   2.223   7.619  0.00  0.00    +0.000 A 
ATOM      9  C   UNL     1      10.731   1.483   8.511  0.00  0.00    +0.000 A 
ATOM     10  N   UNL     1      11.266   0.292   8.212  0.00  0.00    +0.000 NA
ATOM     11  C   UNL     1      11.038  -0.168   6.969  0.00  0.00    +0.000 A 
ATOM     12  C   UNL     1      11.627  -1.501   6.623  0.00  0.00    +0.000 C 
ATOM     13  N   UNL     1      10.319   0.476   6.023  0.00  0.00    +0.000 NA
ENDBRANCH   5   7
BRANCH   1  14
ATOM     14  C   UNL     1       6.274   1.672   2.715  0.00  0.00    +0.000 C 
BRANCH  14  22
ATOM     15  C   UNL     1       1.840  -0.619  -0.902  0.00  0.00    +0.000 C 
ATOM     16  N   UNL     1       2.600   0.484  -0.357  0.00  0.00    +0.000 N 
ATOM     17  C   UNL     1       3.981   0.348  -0.414  0.00  0.00    +0.000 A 
ATOM     18  N   UNL     1       4.534  -0.365  -1.385  0.00  0.00    +0.000 NA
ATOM     19  C   UNL     1       5.859  -0.404  -1.360  0.00  0.00    +0.000 A 
ATOM     20  N   UNL     1       6.642   0.185  -0.464  0.00  0.00    +0.000 NA
ATOM     21  C   UNL     1       5.995   0.873   0.468  0.00  0.00    +0.000 A 
ATOM     22  N   UNL     1       6.807   1.537   1.377  0.00  0.00    +0.000 N 
ATOM     23  N   UNL     1       4.669   0.966   0.543  0.00  0.00    +0.000 NA
ATOM     24  H   UNL     1       2.361   0.768   0.587  0.00  0.00    +0.000 HD
ATOM     25  H   UNL     1       7.730   1.124   1.321  0.00  0.00    +0.000 HD
ENDBRANCH  14  22
ENDBRANCH   1  14
TORSDOF 3
