REMARK  Name = 
REMARK  8 active torsions:
REMARK  status: ('A' for Active; 'I' for Inactive)
REMARK    1  A    between atoms: C_1  and  O_2
REMARK    2  A    between atoms: O_2  and  C_3
REMARK    3  A    between atoms: C_7  and  N_8
REMARK    4  A    between atoms: N_8  and  C_9
REMARK    5  A    between atoms: C_9  and  C_10
REMARK    6  A    between atoms: C_15  and  C_16
REMARK    7  A    between atoms: C_20  and  C_21
REMARK    8  A    between atoms: C_21  and  O_22
REMARK                            x       y       z     vdW  Elec       q    Type
REMARK                         _______ _______ _______ _____ _____    ______ ____
ROOT
ATOM      1  C   UNL     1       1.953  -1.275  -6.570  0.00  0.00    +0.000 A 
ATOM      2  C   UNL     1       2.015  -2.594  -7.028  0.00  0.00    +0.000 A 
ATOM      3  C   UNL     1       1.910  -2.852  -8.387  0.00  0.00    +0.000 A 
ATOM      4  F   UNL     1       1.959  -4.118  -8.822  0.00  0.00    +0.000 F 
ATOM      5  C   UNL     1       1.753  -1.822  -9.306  0.00  0.00    +0.000 A 
ATOM      6  C   UNL     1       1.720  -0.479  -8.890  0.00  0.00    +0.000 A 
ATOM      7  C   UNL     1       1.830  -0.232  -7.507  0.00  0.00    +0.000 A 
ENDROOT
BRANCH   6   8
ATOM      8  C   UNL     1       1.608   0.634  -9.862  0.00  0.00    +0.000 A 
ATOM      9  C   UNL     1       0.898   1.810  -9.559  0.00  0.00    +0.000 A 
ATOM     10  C   UNL     1       0.844   2.881 -10.454  0.00  0.00    +0.000 A 
ATOM     11  C   UNL     1       1.487   2.795 -11.688  0.00  0.00    +0.000 A 
ATOM     12  C   UNL     1       2.173   1.630 -12.045  0.00  0.00    +0.000 A 
ATOM     13  C   UNL     1       2.234   0.571 -11.122  0.00  0.00    +0.000 A 
BRANCH  12  14
ATOM     14  C   UNL     1       2.930   1.519 -13.345  0.00  0.00    +0.000 C 
BRANCH  14  15
ATOM     15  O   UNL     1       2.323   2.280 -14.383  0.00  0.00    +0.000 OA
ATOM     16  H   UNL     1       1.392   2.004 -14.423  0.00  0.00    +0.000 HD
ENDBRANCH  14  15
ENDBRANCH  12  14
ENDBRANCH   6   8
BRANCH   1  17
ATOM     17  C   UNL     1       2.036  -0.971  -5.097  0.00  0.00    +0.000 C 
BRANCH  17  18
ATOM     18  N   UNL     1       3.426  -0.881  -4.686  0.00  0.00    +0.000 N 
ATOM     19  H   UNL     1       4.026  -0.410  -5.361  0.00  0.00    +0.000 HD
BRANCH  18  24
ATOM     20  C   UNL     1       3.220  -0.354  -0.996  0.00  0.00    +0.000 A 
ATOM     21  C   UNL     1       4.568  -0.125  -0.764  0.00  0.00    +0.000 A 
ATOM     22  N   UNL     1       5.516  -0.136  -1.727  0.00  0.00    +0.000 NA
ATOM     23  C   UNL     1       5.081  -0.374  -2.988  0.00  0.00    +0.000 A 
ATOM     24  C   UNL     1       3.747  -0.569  -3.361  0.00  0.00    +0.000 A 
ATOM     25  C   UNL     1       2.817  -0.574  -2.315  0.00  0.00    +0.000 A 
BRANCH  20  27
ATOM     26  C   UNL     1       1.196  -1.082  -0.024  0.00  0.00    +0.000 C 
ATOM     27  O   UNL     1       2.391  -0.315   0.089  0.00  0.00    +0.000 OA
ENDBRANCH  20  27
ENDBRANCH  18  24
ENDBRANCH  17  18
ENDBRANCH   1  17
TORSDOF 7
