REMARK  Name = 
REMARK  5 active torsions:
REMARK  status: ('A' for Active; 'I' for Inactive)
REMARK    1  A    between atoms: N_1  and  C_2
REMARK    2  A    between atoms: C_2  and  C_3
REMARK    3  A    between atoms: C_3  and  C_4
REMARK    4  A    between atoms: C_4  and  N_5
REMARK    5  A    between atoms: C_11  and  C_12
REMARK                            x       y       z     vdW  Elec       q    Type
REMARK                         _______ _______ _______ _____ _____    ______ ____
ROOT
ATOM      1  N   UNL     1       4.917   1.003  -2.593  0.00  0.00    +0.000 NA
ATOM      2  C   UNL     1       6.220   0.442  -2.991  0.00  0.00    +0.000 C 
ATOM      3  C   UNL     1       6.553   0.843  -4.437  0.00  0.00    +0.000 C 
ATOM      4  C   UNL     1       6.354   2.316  -4.687  0.00  0.00    +0.000 A 
ATOM      5  N   UNL     1       6.891   2.841  -5.816  0.00  0.00    +0.000 NA
ATOM      6  C   UNL     1       6.657   4.159  -6.062  0.00  0.00    +0.000 A 
ATOM      7  C   UNL     1       5.918   4.992  -5.231  0.00  0.00    +0.000 A 
ATOM      8  C   UNL     1       5.383   4.431  -4.077  0.00  0.00    +0.000 A 
ATOM      9  C   UNL     1       5.585   3.071  -3.804  0.00  0.00    +0.000 A 
ATOM     10  C   UNL     1       5.015   2.471  -2.552  0.00  0.00    +0.000 C 
ENDROOT
BRANCH   7  11
ATOM     11  C   UNL     1       5.747   6.415  -5.610  0.00  0.00    +0.000 C 
ATOM     12  N   UNL     1       5.011   7.229  -4.791  0.00  0.00    +0.000 N 
ATOM     13  O   UNL     1       6.250   6.866  -6.631  0.00  0.00    +0.000 OA
ATOM     14  H   UNL     1       4.540   6.950  -3.946  0.00  0.00    +0.000 HD
ATOM     15  H   UNL     1       4.911   8.195  -5.085  0.00  0.00    +0.000 HD
ENDBRANCH   7  11
BRANCH   1  16
ATOM     16  C   UNL     1       4.453   0.456  -1.306  0.00  0.00    +0.000 C 
BRANCH  16  17
ATOM     17  C   UNL     1       3.061   0.987  -0.924  0.00  0.00    +0.000 C 
BRANCH  17  18
ATOM     18  C   UNL     1       2.555   0.409   0.392  0.00  0.00    +0.000 C 
BRANCH  18  19
ATOM     19  N   UNL     1       1.258   1.001   0.707  0.00  0.00    +0.000 NA
ATOM     20  H   UNL     1       0.883   0.581   1.555  0.00  0.00    +0.000 HD
ATOM     21  H   UNL     1       0.593   0.790  -0.037  0.00  0.00    +0.000 HD
ENDBRANCH  18  19
ENDBRANCH  17  18
ENDBRANCH  16  17
ENDBRANCH   1  16
TORSDOF 5
