REMARK  Name = 
REMARK  4 active torsions:
REMARK  status: ('A' for Active; 'I' for Inactive)
REMARK    1  A    between atoms: N_1  and  C_2
REMARK    2  A    between atoms: C_2  and  C_3
REMARK    3  A    between atoms: C_6  and  C_7
REMARK    4  A    between atoms: C_8  and  C_9
REMARK                            x       y       z     vdW  Elec       q    Type
REMARK                         _______ _______ _______ _____ _____    ______ ____
ROOT
ATOM      1  C   UNL     1       2.819   0.492  -1.306  0.00  0.00    +0.000 A 
ATOM      2  C   UNL     1       3.280  -0.322  -2.337  0.00  0.00    +0.000 A 
ATOM      3  N   UNL     1       3.636   0.153  -3.559  0.00  0.00    +0.000 NA
ATOM      4  C   UNL     1       3.521   1.491  -3.723  0.00  0.00    +0.000 A 
ATOM      5  C   UNL     1       3.076   2.307  -2.685  0.00  0.00    +0.000 A 
ATOM      6  N   UNL     1       2.718   1.836  -1.465  0.00  0.00    +0.000 NA
ENDROOT
BRANCH   4   7
ATOM      7  C   UNL     1       3.872   2.073  -5.024  0.00  0.00    +0.000 C 
ATOM      8  C   UNL     1       4.334   1.382  -6.080  0.00  0.00    +0.000 C 
BRANCH   8   9
ATOM      9  C   UNL     1       4.683   2.007  -7.366  0.00  0.00    +0.000 A 
ATOM     10  C   UNL     1       5.203   3.307  -7.446  0.00  0.00    +0.000 A 
ATOM     11  C   UNL     1       5.535   3.872  -8.678  0.00  0.00    +0.000 A 
ATOM     12  C   UNL     1       5.371   3.136  -9.847  0.00  0.00    +0.000 A 
ATOM     13  C   UNL     1       4.879   1.833  -9.784  0.00  0.00    +0.000 A 
ATOM     14  C   UNL     1       4.542   1.271  -8.549  0.00  0.00    +0.000 A 
ENDBRANCH   8   9
ENDBRANCH   4   7
BRANCH   1  15
ATOM     15  C   UNL     1       2.380  -0.097   0.012  0.00  0.00    +0.000 C 
BRANCH  15  16
ATOM     16  N   UNL     1       3.437  -0.850   0.690  0.00  0.00    +0.000 NA
ATOM     17  H   UNL     1       3.088  -1.148   1.600  0.00  0.00    +0.000 HD
ATOM     18  H   UNL     1       4.207  -0.210   0.889  0.00  0.00    +0.000 HD
ENDBRANCH  15  16
ENDBRANCH   1  15
TORSDOF 4
