REMARK  Name = 
REMARK  4 active torsions:
REMARK  status: ('A' for Active; 'I' for Inactive)
REMARK    1  A    between atoms: C_4  and  C_5
REMARK    2  A    between atoms: C_5  and  N_6
REMARK    3  A    between atoms: C_11  and  C_12
REMARK    4  A    between atoms: C_18  and  C_19
REMARK                            x       y       z     vdW  Elec       q    Type
REMARK                         _______ _______ _______ _____ _____    ______ ____
ROOT
ATOM      1  F   UNL     1       1.595  -1.353  -0.011  0.00  0.00    +0.000 F 
ATOM      2  C   UNL     1       0.426  -0.696  -0.007  0.00  0.00    +0.000 A 
ATOM      3  C   UNL     1      -0.757  -1.421  -0.030  0.00  0.00    +0.000 A 
ATOM      4  C   UNL     1      -1.983  -0.747  -0.047  0.00  0.00    +0.000 A 
ATOM      5  C   UNL     1      -1.986   0.663   0.005  0.00  0.00    +0.000 A 
ATOM      6  C   UNL     1      -0.792   1.421   0.018  0.00  0.00    +0.000 A 
ATOM      7  C   UNL     1       0.414   0.697   0.005  0.00  0.00    +0.000 A 
ATOM      8  F   UNL     1       1.595   1.336  -0.016  0.00  0.00    +0.000 F 
ENDROOT
BRANCH   6   9
ATOM      9  C   UNL     1      -0.823   2.908   0.027  0.00  0.00    +0.000 A 
ATOM     10  C   UNL     1       0.166   3.668   0.670  0.00  0.00    +0.000 A 
ATOM     11  C   UNL     1       0.108   5.055   0.625  0.00  0.00    +0.000 A 
ATOM     12  N   UNL     1      -0.869   5.745   0.007  0.00  0.00    +0.000 NA
ATOM     13  C   UNL     1      -1.822   5.015  -0.601  0.00  0.00    +0.000 A 
ATOM     14  C   UNL     1      -1.839   3.626  -0.622  0.00  0.00    +0.000 A 
ENDBRANCH   6   9
BRANCH   4  15
ATOM     15  C   UNL     1      -3.280  -1.527  -0.103  0.00  0.00    +0.000 C 
BRANCH  15  16
ATOM     16  N   UNL     1      -3.728  -1.808   1.241  0.00  0.00    +0.000 N 
ATOM     17  C   UNL     1      -4.909  -2.527   1.326  0.00  0.00    +0.000 A 
ATOM     18  N   UNL     1      -5.679  -2.253   2.383  0.00  0.00    +0.000 NA
ATOM     19  C   UNL     1      -6.809  -2.970   2.526  0.00  0.00    +0.000 A 
ATOM     20  C   UNL     1      -7.204  -3.943   1.645  0.00  0.00    +0.000 A 
ATOM     21  C   UNL     1      -6.366  -4.159   0.568  0.00  0.00    +0.000 A 
ATOM     22  N   UNL     1      -5.220  -3.442   0.400  0.00  0.00    +0.000 NA
ATOM     23  H   UNL     1      -3.831  -1.006   1.851  0.00  0.00    +0.000 HD
BRANCH  21  24
ATOM     24  C   UNL     1      -6.715  -5.223  -0.460  0.00  0.00    +0.000 C 
ATOM     25  F   UNL     1      -7.864  -5.902  -0.160  0.00  0.00    +0.000 F 
ATOM     26  F   UNL     1      -6.914  -4.713  -1.709  0.00  0.00    +0.000 F 
ATOM     27  F   UNL     1      -5.754  -6.180  -0.590  0.00  0.00    +0.000 F 
ENDBRANCH  21  24
ENDBRANCH  15  16
ENDBRANCH   4  15
TORSDOF 4
