REMARK  Name = 
REMARK  5 active torsions:
REMARK  status: ('A' for Active; 'I' for Inactive)
REMARK    1  A    between atoms: C_2  and  C_4
REMARK    2  A    between atoms: C_7  and  C_8
REMARK    3  A    between atoms: C_8  and  C_9
REMARK    4  A    between atoms: C_9  and  C_10
REMARK    5  A    between atoms: C_14  and  C_15
REMARK                            x       y       z     vdW  Elec       q    Type
REMARK                         _______ _______ _______ _____ _____    ______ ____
ROOT
ATOM      1  C   UNL     1       5.014  -4.973  -3.333  0.00  0.00    +0.000 C 
ATOM      2  C   UNL     1       5.046  -4.173  -4.636  0.00  0.00    +0.000 C 
ATOM      3  C   UNL     1       3.735  -4.647  -4.097  0.00  0.00    +0.000 C 
ENDROOT
BRANCH   1   4
ATOM      4  C   UNL     1       5.562  -6.396  -3.425  0.00  0.00    +0.000 A 
ATOM      5  C   UNL     1       4.720  -7.518  -3.417  0.00  0.00    +0.000 A 
ATOM      6  C   UNL     1       5.223  -8.800  -3.627  0.00  0.00    +0.000 A 
ATOM      7  C   UNL     1       6.590  -8.990  -3.826  0.00  0.00    +0.000 A 
ATOM      8  C   UNL     1       7.482  -7.905  -3.818  0.00  0.00    +0.000 A 
ATOM      9  C   UNL     1       6.941  -6.623  -3.605  0.00  0.00    +0.000 A 
BRANCH   8  10
ATOM     10  C   UNL     1       8.919  -8.086  -4.079  0.00  0.00    +0.000 A 
ATOM     11  C   UNL     1       9.413  -8.996  -4.999  0.00  0.00    +0.000 A 
ATOM     12  N   UNL     1      10.720  -9.174  -5.289  0.00  0.00    +0.000 NA
ATOM     13  C   UNL     1      11.573  -8.387  -4.620  0.00  0.00    +0.000 A 
ATOM     14  N   UNL     1      11.238  -7.467  -3.705  0.00  0.00    +0.000 NA
ATOM     15  C   UNL     1       9.914  -7.345  -3.458  0.00  0.00    +0.000 A 
ENDBRANCH   8  10
ENDBRANCH   1   4
BRANCH   1  16
ATOM     16  C   UNL     1       5.392  -4.163  -2.102  0.00  0.00    +0.000 C 
BRANCH  16  20
ATOM     17  C   UNL     1       4.053  -5.326   1.768  0.00  0.00    +0.000 A 
ATOM     18  C   UNL     1       5.251  -5.855   1.287  0.00  0.00    +0.000 A 
ATOM     19  C   UNL     1       5.663  -5.541  -0.011  0.00  0.00    +0.000 A 
ATOM     20  C   UNL     1       4.872  -4.699  -0.790  0.00  0.00    +0.000 A 
ATOM     21  N   UNL     1       3.683  -4.215  -0.353  0.00  0.00    +0.000 NA
ATOM     22  C   UNL     1       3.296  -4.545   0.906  0.00  0.00    +0.000 A 
BRANCH  17  24
ATOM     23  N   UNL     1       4.506  -5.783   4.111  0.00  0.00    +0.000 N 
ATOM     24  C   UNL     1       3.568  -5.552   3.141  0.00  0.00    +0.000 C 
ATOM     25  O   UNL     1       2.378  -5.486   3.417  0.00  0.00    +0.000 OA
ATOM     26  H   UNL     1       4.164  -5.811   5.065  0.00  0.00    +0.000 HD
ATOM     27  H   UNL     1       5.486  -5.574   3.978  0.00  0.00    +0.000 HD
ENDBRANCH  17  24
ENDBRANCH  16  20
ENDBRANCH   1  16
TORSDOF 5
