REMARK  Name = 
REMARK  3 active torsions:
REMARK  status: ('A' for Active; 'I' for Inactive)
REMARK    1  A    between atoms: C_2  and  C_4
REMARK    2  A    between atoms: N_8  and  C_9
REMARK    3  A    between atoms: C_9  and  C_10
REMARK                            x       y       z     vdW  Elec       q    Type
REMARK                         _______ _______ _______ _____ _____    ______ ____
ROOT
ATOM      1  C   UNL     1       3.876   3.950   0.569  0.00  0.00    +0.000 A 
ATOM      2  N   UNL     1       3.125   3.952   1.696  0.00  0.00    +0.000 NA
ATOM      3  C   UNL     1       3.720   3.349   2.761  0.00  0.00    +0.000 A 
ATOM      4  C   UNL     1       4.975   2.763   2.735  0.00  0.00    +0.000 A 
ATOM      5  N   UNL     1       5.549   2.032   3.777  0.00  0.00    +0.000 N 
ATOM      6  N   UNL     1       5.661   2.818   1.575  0.00  0.00    +0.000 NA
ATOM      7  N   UNL     1       5.113   3.424   0.471  0.00  0.00    +0.000 NA
ATOM      8  H   UNL     1       6.485   1.762   3.480  0.00  0.00    +0.000 HD
ENDROOT
BRANCH   1  10
ATOM      9  N   UNL     1       1.937   4.891  -0.578  0.00  0.00    +0.000 N 
ATOM     10  C   UNL     1       3.251   4.499  -0.687  0.00  0.00    +0.000 C 
ATOM     11  O   UNL     1       3.839   4.582  -1.759  0.00  0.00    +0.000 OA
ATOM     12  H   UNL     1       1.453   5.203  -1.408  0.00  0.00    +0.000 HD
ATOM     13  H   UNL     1       1.433   4.776   0.293  0.00  0.00    +0.000 HD
ENDBRANCH   1  10
BRANCH   5  14
ATOM     14  C   UNL     1       5.377   2.307   5.211  0.00  0.00    +0.000 C 
ATOM     15  C   UNL     1       5.120   1.069   6.066  0.00  0.00    +0.000 C 
ATOM     16  C   UNL     1       4.064   2.115   5.946  0.00  0.00    +0.000 C 
BRANCH  14  17
ATOM     17  C   UNL     1       6.342   3.352   5.772  0.00  0.00    +0.000 A 
ATOM     18  C   UNL     1       5.988   4.714   5.833  0.00  0.00    +0.000 A 
ATOM     19  C   UNL     1       6.826   5.658   6.433  0.00  0.00    +0.000 A 
ATOM     20  C   UNL     1       8.038   5.252   6.972  0.00  0.00    +0.000 A 
ATOM     21  F   UNL     1       8.826   6.149   7.579  0.00  0.00    +0.000 F 
ATOM     22  C   UNL     1       8.439   3.926   6.899  0.00  0.00    +0.000 A 
ATOM     23  C   UNL     1       7.600   2.987   6.293  0.00  0.00    +0.000 A 
ENDBRANCH  14  17
ENDBRANCH   5  14
TORSDOF 3
