REMARK  Name = 
REMARK  7 active torsions:
REMARK  status: ('A' for Active; 'I' for Inactive)
REMARK    1  A    between atoms: C_1  and  C_2
REMARK    2  A    between atoms: C_2  and  N_3
REMARK    3  A    between atoms: C_2  and  C_12
REMARK    4  A    between atoms: C_4  and  C_6
REMARK    5  A    between atoms: C_15  and  C_16
REMARK    6  A    between atoms: C_16  and  N_17
REMARK    7  A    between atoms: C_18  and  C_20
REMARK                            x       y       z     vdW  Elec       q    Type
REMARK                         _______ _______ _______ _____ _____    ______ ____
ROOT
ATOM      1  C   UNL     1      -2.542   1.681  -3.016  0.00  0.00    +0.000 A 
ATOM      2  C   UNL     1      -2.234   2.472  -4.133  0.00  0.00    +0.000 A 
ATOM      3  C   UNL     1      -1.594   3.711  -3.972  0.00  0.00    +0.000 A 
ATOM      4  C   UNL     1      -1.230   4.162  -2.694  0.00  0.00    +0.000 A 
ATOM      5  C   UNL     1      -1.626   3.425  -1.581  0.00  0.00    +0.000 A 
ATOM      6  C   UNL     1      -2.283   2.213  -1.741  0.00  0.00    +0.000 A 
ENDROOT
BRANCH   1   8
ATOM      7  C   UNL     1      -4.057  -0.063  -2.050  0.00  0.00    +0.000 C 
ATOM      8  C   UNL     1      -3.076   0.257  -3.178  0.00  0.00    +0.000 C 
BRANCH   8   9
ATOM      9  N   UNL     1      -1.960  -0.697  -3.195  0.00  0.00    +0.000 N 
ATOM     10  C   UNL     1      -2.124  -2.059  -3.457  0.00  0.00    +0.000 C 
ATOM     11  O   UNL     1      -3.214  -2.581  -3.614  0.00  0.00    +0.000 OA
ATOM     12  H   UNL     1      -1.164  -0.458  -2.622  0.00  0.00    +0.000 HD
BRANCH  10  13
ATOM     13  C   UNL     1      -0.778  -2.855  -3.471  0.00  0.00    +0.000 C 
ATOM     14  C   UNL     1      -0.955  -4.373  -3.639  0.00  0.00    +0.000 C 
ATOM     15  C   UNL     1      -1.152  -4.816  -5.086  0.00  0.00    +0.000 C 
ATOM     16  C   UNL     1      -0.085  -4.209  -5.987  0.00  0.00    +0.000 C 
ATOM     17  C   UNL     1      -0.023  -2.694  -5.825  0.00  0.00    +0.000 C 
ATOM     18  N   UNL     1       0.190  -2.284  -4.436  0.00  0.00    +0.000 NA
ATOM     19  H   UNL     1       0.172  -1.266  -4.377  0.00  0.00    +0.000 HD
ENDBRANCH  10  13
ENDBRANCH   8   9
ENDBRANCH   1   8
BRANCH   4  20
ATOM     20  C   UNL     1      -0.402   5.398  -2.464  0.00  0.00    +0.000 C 
BRANCH  20  21
ATOM     21  N   UNL     1      -1.216   6.564  -2.329  0.00  0.00    +0.000 N 
ATOM     22  C   UNL     1      -0.659   7.797  -2.115  0.00  0.00    +0.000 C 
ATOM     23  O   UNL     1       0.557   7.973  -2.036  0.00  0.00    +0.000 OA
ATOM     24  H   UNL     1      -2.167   6.412  -2.012  0.00  0.00    +0.000 HD
BRANCH  22  25
ATOM     25  C   UNL     1      -1.610   8.902  -2.050  0.00  0.00    +0.000 A 
ATOM     26  C   UNL     1      -1.221  10.178  -2.435  0.00  0.00    +0.000 A 
ATOM     27  S   UNL     1      -2.483  11.322  -2.352  0.00  0.00    +0.000 S 
ATOM     28  C   UNL     1      -3.576  10.160  -1.758  0.00  0.00    +0.000 A 
ATOM     29  N   UNL     1      -4.856  10.495  -1.445  0.00  0.00    +0.000 NA
ATOM     30  C   UNL     1      -5.566   9.521  -0.981  0.00  0.00    +0.000 A 
ATOM     31  N   UNL     1      -5.113   8.236  -0.811  0.00  0.00    +0.000 N 
ATOM     32  C   UNL     1      -3.850   7.842  -1.152  0.00  0.00    +0.000 A 
ATOM     33  O   UNL     1      -3.497   6.674  -1.055  0.00  0.00    +0.000 OA
ATOM     34  C   UNL     1      -2.990   8.904  -1.647  0.00  0.00    +0.000 A 
ATOM     35  H   UNL     1      -5.722   7.516  -0.459  0.00  0.00    +0.000 HD
ENDBRANCH  22  25
ENDBRANCH  20  21
ENDBRANCH   4  20
TORSDOF 6
