REMARK  Name = 
REMARK  7 active torsions:
REMARK  status: ('A' for Active; 'I' for Inactive)
REMARK    1  A    between atoms: C_1  and  C_2
REMARK    2  A    between atoms: C_2  and  N_3
REMARK    3  A    between atoms: C_2  and  C_17
REMARK    4  A    between atoms: C_4  and  C_6
REMARK    5  A    between atoms: N_12  and  C_13
REMARK    6  A    between atoms: C_20  and  C_21
REMARK    7  A    between atoms: C_21  and  N_22
REMARK                            x       y       z     vdW  Elec       q    Type
REMARK                         _______ _______ _______ _____ _____    ______ ____
ROOT
ATOM      1  C   UNL     1       0.919   0.130  -0.040  0.00  0.00    +0.000 C 
ATOM      2  C   UNL     1       2.450   0.059  -0.078  0.00  0.00    +0.000 C 
ENDROOT
BRANCH   2   3
ATOM      3  C   UNL     1       2.937  -1.249   0.533  0.00  0.00    +0.000 A 
ATOM      4  C   UNL     1       2.619  -2.460  -0.073  0.00  0.00    +0.000 A 
ATOM      5  N   UNL     1       2.955  -3.664   0.450  0.00  0.00    +0.000 NA
ATOM      6  C   UNL     1       3.648  -3.632   1.618  0.00  0.00    +0.000 A 
ATOM      7  C   UNL     1       4.003  -2.424   2.207  0.00  0.00    +0.000 A 
ATOM      8  N   UNL     1       3.650  -1.219   1.696  0.00  0.00    +0.000 NA
BRANCH   6   9
ATOM      9  C   UNL     1       3.993  -4.945   2.286  0.00  0.00    +0.000 C 
BRANCH   9  10
ATOM     10  N   UNL     1       5.292  -5.453   1.845  0.00  0.00    +0.000 N 
ATOM     11  C   UNL     1       5.670  -6.657   2.464  0.00  0.00    +0.000 A 
ATOM     12  C   UNL     1       6.865  -7.241   2.090  0.00  0.00    +0.000 A 
ATOM     13  C   UNL     1       7.198  -8.426   2.707  0.00  0.00    +0.000 A 
ATOM     14  N   UNL     1       6.426  -9.022   3.630  0.00  0.00    +0.000 NA
ATOM     15  C   UNL     1       5.281  -8.389   3.909  0.00  0.00    +0.000 A 
ATOM     16  N   UNL     1       4.862  -7.233   3.370  0.00  0.00    +0.000 NA
ATOM     17  H   UNL     1       6.037  -4.770   1.927  0.00  0.00    +0.000 HD
ENDBRANCH   9  10
ENDBRANCH   6   9
ENDBRANCH   2   3
BRANCH   2  18
ATOM     18  N   UNL     1       3.008   1.200   0.627  0.00  0.00    +0.000 N 
ATOM     19  C   UNL     1       3.229   2.418   0.049  0.00  0.00    +0.000 C 
ATOM     20  O   UNL     1       3.109   2.608  -1.158  0.00  0.00    +0.000 OA
ATOM     21  H   UNL     1       3.023   1.104   1.637  0.00  0.00    +0.000 HD
BRANCH  19  22
ATOM     22  C   UNL     1       3.668   3.483   0.958  0.00  0.00    +0.000 A 
ATOM     23  C   UNL     1       4.485   4.507   0.500  0.00  0.00    +0.000 A 
ATOM     24  S   UNL     1       4.886   5.644   1.709  0.00  0.00    +0.000 S 
ATOM     25  C   UNL     1       3.949   4.825   2.871  0.00  0.00    +0.000 A 
ATOM     26  N   UNL     1       3.836   5.295   4.139  0.00  0.00    +0.000 NA
ATOM     27  C   UNL     1       3.072   4.588   4.907  0.00  0.00    +0.000 A 
ATOM     28  N   UNL     1       2.407   3.438   4.537  0.00  0.00    +0.000 N 
ATOM     29  C   UNL     1       1.585   2.712   5.481  0.00  0.00    +0.000 C 
ATOM     30  C   UNL     1       2.514   2.921   3.250  0.00  0.00    +0.000 A 
ATOM     31  O   UNL     1       1.952   1.884   2.909  0.00  0.00    +0.000 OA
ATOM     32  C   UNL     1       3.356   3.692   2.352  0.00  0.00    +0.000 A 
ENDBRANCH  19  22
ENDBRANCH   2  18
TORSDOF 5
