REMARK  Name = 
REMARK  4 active torsions:
REMARK  status: ('A' for Active; 'I' for Inactive)
REMARK    1  A    between atoms: C_2  and  C_4
REMARK    2  A    between atoms: N_8  and  C_9
REMARK    3  A    between atoms: C_9  and  C_10
REMARK    4  A    between atoms: C_14  and  C_15
REMARK                            x       y       z     vdW  Elec       q    Type
REMARK                         _______ _______ _______ _____ _____    ______ ____
ROOT
ATOM      1  C   UNL     1       5.037   3.409   4.789  0.00  0.00    +0.000 C 
ENDROOT
BRANCH   1   6
ATOM      2  C   UNL     1       3.164   0.675   1.087  0.00  0.00    +0.000 A 
ATOM      3  C   UNL     1       4.338   1.214   0.564  0.00  0.00    +0.000 A 
ATOM      4  C   UNL     1       5.105   2.068   1.358  0.00  0.00    +0.000 A 
ATOM      5  C   UNL     1       4.702   2.359   2.661  0.00  0.00    +0.000 A 
ATOM      6  N   UNL     1       5.470   3.269   3.406  0.00  0.00    +0.000 N 
ATOM      7  N   UNL     1       3.562   1.847   3.172  0.00  0.00    +0.000 NA
ATOM      8  C   UNL     1       2.817   1.030   2.380  0.00  0.00    +0.000 A 
ATOM      9  H   UNL     1       6.455   3.033   3.334  0.00  0.00    +0.000 HD
BRANCH   2  11
ATOM     10  N   UNL     1       2.802  -0.923  -0.711  0.00  0.00    +0.000 N 
ATOM     11  C   UNL     1       2.259  -0.205   0.317  0.00  0.00    +0.000 C 
ATOM     12  O   UNL     1       1.074  -0.308   0.602  0.00  0.00    +0.000 OA
ATOM     13  H   UNL     1       2.187  -1.580  -1.176  0.00  0.00    +0.000 HD
ATOM     14  H   UNL     1       3.797  -1.050  -0.833  0.00  0.00    +0.000 HD
ENDBRANCH   2  11
ENDBRANCH   1   6
BRANCH   1  15
ATOM     15  C   UNL     1       5.991   4.308   5.531  0.00  0.00    +0.000 A 
ATOM     16  C   UNL     1       7.038   3.783   6.276  0.00  0.00    +0.000 A 
ATOM     17  N   UNL     1       7.902   4.531   6.990  0.00  0.00    +0.000 NA
ATOM     18  C   UNL     1       7.707   5.874   6.968  0.00  0.00    +0.000 A 
ATOM     19  C   UNL     1       6.711   6.536   6.245  0.00  0.00    +0.000 A 
ATOM     20  C   UNL     1       5.857   5.704   5.501  0.00  0.00    +0.000 A 
BRANCH  19  21
ATOM     21  C   UNL     1       6.551   8.009   6.278  0.00  0.00    +0.000 A 
ATOM     22  C   UNL     1       7.655   8.872   6.426  0.00  0.00    +0.000 A 
ATOM     23  C   UNL     1       7.495  10.262   6.465  0.00  0.00    +0.000 A 
ATOM     24  C   UNL     1       6.227  10.810   6.342  0.00  0.00    +0.000 A 
ATOM     25  F   UNL     1       6.074  12.140   6.371  0.00  0.00    +0.000 F 
ATOM     26  C   UNL     1       5.116   9.996   6.189  0.00  0.00    +0.000 A 
ATOM     27  C   UNL     1       5.278   8.607   6.164  0.00  0.00    +0.000 A 
ENDBRANCH  19  21
ENDBRANCH   1  15
TORSDOF 4
