REMARK  Name = 
REMARK  7 active torsions:
REMARK  status: ('A' for Active; 'I' for Inactive)
REMARK    1  A    between atoms: C_1  and  C_2
REMARK    2  A    between atoms: C_2  and  O_3
REMARK    3  A    between atoms: C_5  and  N_6
REMARK    4  A    between atoms: C_9  and  C_10
REMARK    5  A    between atoms: C_10  and  C_13
REMARK    6  A    between atoms: C_13  and  N_14
REMARK    7  A    between atoms: C_18  and  C_19
REMARK                            x       y       z     vdW  Elec       q    Type
REMARK                         _______ _______ _______ _____ _____    ______ ____
ROOT
ATOM      1  C   UNL     1       6.806  -4.699   1.671  0.00  0.00    +0.000 C 
ATOM      2  F   UNL     1       5.605  -5.289   1.392  0.00  0.00    +0.000 F 
ATOM      3  F   UNL     1       7.310  -4.331   0.449  0.00  0.00    +0.000 F 
ENDROOT
BRANCH   1   7
ATOM      4  N   UNL     1       4.867  -0.234   2.343  0.00  0.00    +0.000 N 
ATOM      5  C   UNL     1       5.648  -1.284   2.869  0.00  0.00    +0.000 A 
ATOM      6  C   UNL     1       5.788  -2.445   2.114  0.00  0.00    +0.000 A 
ATOM      7  C   UNL     1       6.616  -3.483   2.565  0.00  0.00    +0.000 A 
ATOM      8  C   UNL     1       7.233  -3.321   3.809  0.00  0.00    +0.000 A 
ATOM      9  C   UNL     1       7.023  -2.143   4.508  0.00  0.00    +0.000 A 
ATOM     10  N   UNL     1       6.266  -1.127   4.054  0.00  0.00    +0.000 NA
ATOM     11  H   UNL     1       3.904  -0.556   2.281  0.00  0.00    +0.000 HD
BRANCH   4  15
ATOM     12  C   UNL     1       5.946   3.769   0.867  0.00  0.00    +0.000 C 
ATOM     13  C   UNL     1       5.500   3.051   2.131  0.00  0.00    +0.000 C 
ATOM     14  C   UNL     1       6.307   1.769   2.462  0.00  0.00    +0.000 C 
ATOM     15  C   UNL     1       4.969   1.100   2.860  0.00  0.00    +0.000 C 
ATOM     16  C   UNL     1       4.257   2.133   1.959  0.00  0.00    +0.000 C 
BRANCH  13  17
ATOM     17  O   UNL     1       5.398   4.008   3.209  0.00  0.00    +0.000 OA
ATOM     18  H   UNL     1       6.311   4.302   3.374  0.00  0.00    +0.000 HD
ENDBRANCH  13  17
ENDBRANCH   4  15
ENDBRANCH   1   7
BRANCH   1  19
ATOM     19  C   UNL     1       7.760  -5.766   2.254  0.00  0.00    +0.000 C 
BRANCH  19  20
ATOM     20  N   UNL     1       7.942  -6.965   1.405  0.00  0.00    +0.000 N 
ATOM     21  C   UNL     1       8.876  -7.867   1.948  0.00  0.00    +0.000 A 
ATOM     22  C   UNL     1       9.183  -9.054   1.282  0.00  0.00    +0.000 A 
ATOM     23  N   UNL     1      10.070  -9.974   1.747  0.00  0.00    +0.000 NA
ATOM     24  C   UNL     1      10.652  -9.686   2.944  0.00  0.00    +0.000 A 
ATOM     25  C   UNL     1      10.330  -8.519   3.619  0.00  0.00    +0.000 A 
ATOM     26  N   UNL     1       9.448  -7.605   3.145  0.00  0.00    +0.000 NA
ATOM     27  H   UNL     1       8.198  -6.721   0.449  0.00  0.00    +0.000 HD
BRANCH  24  28
ATOM     28  C   UNL     1      11.676 -10.604   3.569  0.00  0.00    +0.000 C 
ATOM     29  F   UNL     1      11.926 -11.744   2.867  0.00  0.00    +0.000 F 
ATOM     30  F   UNL     1      12.887  -9.993   3.729  0.00  0.00    +0.000 F 
ATOM     31  F   UNL     1      11.315 -11.011   4.822  0.00  0.00    +0.000 F 
ENDBRANCH  24  28
ENDBRANCH  19  20
ENDBRANCH   1  19
TORSDOF 6
