REMARK  Name = 
REMARK  9 active torsions:
REMARK  status: ('A' for Active; 'I' for Inactive)
REMARK    1  A    between atoms: C_1  and  O_2
REMARK    2  A    between atoms: O_2  and  C_3
REMARK    3  A    between atoms: C_10  and  C_11
REMARK    4  A    between atoms: N_13  and  C_14
REMARK    5  A    between atoms: C_14  and  C_15
REMARK    6  A    between atoms: C_18  and  C_19
REMARK    7  A    between atoms: C_19  and  O_20
REMARK    8  A    between atoms: O_20  and  C_21
REMARK    9  A    between atoms: C_21  and  C_22
REMARK                            x       y       z     vdW  Elec       q    Type
REMARK                         _______ _______ _______ _____ _____    ______ ____
ROOT
ATOM      1  C   UNL     1       3.004  -1.406   3.105  0.00  0.00    +0.000 C 
ENDROOT
BRANCH   1   2
ATOM      2  C   UNL     1       1.868  -0.465   3.420  0.00  0.00    +0.000 A 
ATOM      3  C   UNL     1       0.610  -0.957   3.795  0.00  0.00    +0.000 A 
ATOM      4  C   UNL     1      -0.443  -0.079   4.077  0.00  0.00    +0.000 A 
ATOM      5  C   UNL     1      -0.267   1.309   3.978  0.00  0.00    +0.000 A 
ATOM      6  C   UNL     1       0.983   1.798   3.577  0.00  0.00    +0.000 A 
ATOM      7  C   UNL     1       2.037   0.921   3.297  0.00  0.00    +0.000 A 
BRANCH   5   8
ATOM      8  C   UNL     1      -1.404   2.252   4.287  0.00  0.00    +0.000 C 
BRANCH   8   9
ATOM      9  O   UNL     1      -1.812   2.049   5.636  0.00  0.00    +0.000 OA
BRANCH   9  10
ATOM     10  C   UNL     1      -2.866   2.940   6.015  0.00  0.00    +0.000 C 
BRANCH  10  11
ATOM     11  C   UNL     1      -3.286   2.703   7.450  0.00  0.00    +0.000 A 
ATOM     12  C   UNL     1      -2.361   2.284   8.405  0.00  0.00    +0.000 A 
ATOM     13  C   UNL     1      -2.782   2.087   9.717  0.00  0.00    +0.000 A 
ATOM     14  C   UNL     1      -4.109   2.328  10.048  0.00  0.00    +0.000 A 
ATOM     15  C   UNL     1      -4.962   2.763   9.049  0.00  0.00    +0.000 A 
ATOM     16  N   UNL     1      -4.583   2.962   7.766  0.00  0.00    +0.000 NA
ENDBRANCH  10  11
ENDBRANCH   9  10
ENDBRANCH   8   9
ENDBRANCH   5   8
ENDBRANCH   1   2
BRANCH   1  19
ATOM     17  C   UNL     1       3.919  -2.621   1.166  0.00  0.00    +0.000 C 
ATOM     18  O   UNL     1       4.787  -3.147   1.856  0.00  0.00    +0.000 OA
ATOM     19  N   UNL     1       3.011  -1.754   1.706  0.00  0.00    +0.000 N 
ATOM     20  H   UNL     1       2.340  -1.289   1.112  0.00  0.00    +0.000 HD
BRANCH  17  28
ATOM     21  C   UNL     1       1.714  -1.611  -1.282  0.00  0.00    +0.000 A 
ATOM     22  N   UNL     1       1.008  -1.387  -2.407  0.00  0.00    +0.000 NA
ATOM     23  C   UNL     1       1.408  -1.990  -3.529  0.00  0.00    +0.000 A 
ATOM     24  N   UNL     1       2.450  -2.806  -3.672  0.00  0.00    +0.000 NA
ATOM     25  C   UNL     1       3.129  -2.996  -2.528  0.00  0.00    +0.000 A 
ATOM     26  S   UNL     1       4.492  -4.008  -2.524  0.00  0.00    +0.000 S 
ATOM     27  C   UNL     1       4.742  -3.748  -0.863  0.00  0.00    +0.000 A 
ATOM     28  C   UNL     1       3.810  -2.899  -0.279  0.00  0.00    +0.000 A 
ATOM     29  C   UNL     1       2.846  -2.445  -1.283  0.00  0.00    +0.000 A 
BRANCH  21  31
ATOM     30  C   UNL     1      -0.053  -0.589  -0.135  0.00  0.00    +0.000 C 
ATOM     31  O   UNL     1       1.325  -0.954  -0.133  0.00  0.00    +0.000 OA
ENDBRANCH  21  31
ENDBRANCH  17  28
ENDBRANCH   1  19
TORSDOF 8
