REMARK  Name = 
REMARK  9 active torsions:
REMARK  status: ('A' for Active; 'I' for Inactive)
REMARK    1  A    between atoms: C_1  and  C_2
REMARK    2  A    between atoms: C_2  and  C_3
REMARK    3  A    between atoms: C_2  and  C_4
REMARK    4  A    between atoms: C_2  and  C_18
REMARK    5  A    between atoms: C_4  and  N_5
REMARK    6  A    between atoms: C_10  and  O_11
REMARK    7  A    between atoms: O_11  and  C_12
REMARK    8  A    between atoms: C_14  and  O_15
REMARK    9  A    between atoms: C_21  and  C_22
REMARK                            x       y       z     vdW  Elec       q    Type
REMARK                         _______ _______ _______ _____ _____    ______ ____
ROOT
ATOM      1  C   UNL     1       2.941  -0.493  -1.346  0.00  0.00    +0.000 C 
ENDROOT
BRANCH   1   2
ATOM      2  N   UNL     1       2.544  -1.846  -1.715  0.00  0.00    +0.000 N 
ATOM      3  C   UNL     1       3.008  -2.329  -2.926  0.00  0.00    +0.000 A 
ATOM      4  N   UNL     1       2.177  -3.194  -3.528  0.00  0.00    +0.000 NA
ATOM      5  C   UNL     1       2.600  -3.764  -4.669  0.00  0.00    +0.000 A 
ATOM      6  C   UNL     1       3.817  -3.498  -5.232  0.00  0.00    +0.000 A 
ATOM      7  C   UNL     1       4.571  -2.574  -4.555  0.00  0.00    +0.000 A 
ATOM      8  N   UNL     1       4.201  -1.971  -3.412  0.00  0.00    +0.000 NA
ATOM      9  H   UNL     1       1.542  -2.006  -1.753  0.00  0.00    +0.000 HD
BRANCH   7  10
ATOM     10  O   UNL     1       5.800  -2.266  -5.111  0.00  0.00    +0.000 OA
BRANCH  10  11
ATOM     11  C   UNL     1       6.322  -0.954  -4.798  0.00  0.00    +0.000 C 
ATOM     12  C   UNL     1       5.603   0.247  -5.465  0.00  0.00    +0.000 C 
ATOM     13  C   UNL     1       6.620   0.135  -6.623  0.00  0.00    +0.000 C 
ATOM     14  C   UNL     1       7.572  -0.555  -5.622  0.00  0.00    +0.000 C 
BRANCH  13  15
ATOM     15  O   UNL     1       7.072   1.366  -7.207  0.00  0.00    +0.000 OA
ATOM     16  H   UNL     1       7.318   1.942  -6.461  0.00  0.00    +0.000 HD
ENDBRANCH  13  15
ENDBRANCH  10  11
ENDBRANCH   7  10
ENDBRANCH   1   2
BRANCH   1  18
ATOM     17  C   UNL     1       3.035  -1.062   1.139  0.00  0.00    +0.000 C 
ATOM     18  C   UNL     1       2.424  -0.118   0.076  0.00  0.00    +0.000 C 
ATOM     19  C   UNL     1       2.933   1.305   0.415  0.00  0.00    +0.000 C 
BRANCH  18  20
ATOM     20  C   UNL     1       0.888  -0.131   0.094  0.00  0.00    +0.000 A 
ATOM     21  C   UNL     1       0.162  -1.272   0.442  0.00  0.00    +0.000 A 
ATOM     22  C   UNL     1      -1.233  -1.235   0.432  0.00  0.00    +0.000 A 
ATOM     23  C   UNL     1      -1.896  -0.063   0.076  0.00  0.00    +0.000 A 
ATOM     24  C   UNL     1      -1.109   1.019  -0.281  0.00  0.00    +0.000 A 
ATOM     25  N   UNL     1       0.251   1.006  -0.290  0.00  0.00    +0.000 NA
BRANCH  23  26
ATOM     26  C   UNL     1      -3.379  -0.041   0.105  0.00  0.00    +0.000 C 
ATOM     27  N   UNL     1      -4.036   1.112  -0.222  0.00  0.00    +0.000 N 
ATOM     28  O   UNL     1      -4.019  -1.037   0.424  0.00  0.00    +0.000 OA
ATOM     29  H   UNL     1      -3.612   1.989  -0.476  0.00  0.00    +0.000 HD
ATOM     30  H   UNL     1      -5.047   1.080  -0.167  0.00  0.00    +0.000 HD
ENDBRANCH  23  26
ENDBRANCH  18  20
ENDBRANCH   1  18
TORSDOF 7
