REMARK  Name = 
REMARK  6 active torsions:
REMARK  status: ('A' for Active; 'I' for Inactive)
REMARK    1  A    between atoms: N_1  and  C_2
REMARK    2  A    between atoms: C_2  and  N_3
REMARK    3  A    between atoms: C_2  and  C_16
REMARK    4  A    between atoms: C_4  and  C_6
REMARK    5  A    between atoms: C_19  and  C_20
REMARK    6  A    between atoms: C_20  and  N_21
REMARK                            x       y       z     vdW  Elec       q    Type
REMARK                         _______ _______ _______ _____ _____    ______ ____
ROOT
ATOM      1  C   UNL     1       2.462   0.031   0.078  0.00  0.00    +0.000 C 
ENDROOT
BRANCH   1   2
ATOM      2  C   UNL     1       2.925   0.641   1.406  0.00  0.00    +0.000 A 
ATOM      3  C   UNL     1       2.777   2.010   1.622  0.00  0.00    +0.000 A 
ATOM      4  C   UNL     1       3.171   2.553   2.844  0.00  0.00    +0.000 A 
ATOM      5  C   UNL     1       3.717   1.727   3.830  0.00  0.00    +0.000 A 
ATOM      6  C   UNL     1       3.838   0.375   3.528  0.00  0.00    +0.000 A 
ATOM      7  N   UNL     1       3.467  -0.184   2.350  0.00  0.00    +0.000 NA
BRANCH   5   8
ATOM      8  C   UNL     1       4.125   2.269   5.171  0.00  0.00    +0.000 C 
BRANCH   8   9
ATOM      9  N   UNL     1       3.002   2.313   6.082  0.00  0.00    +0.000 N 
ATOM     10  C   UNL     1       3.194   2.694   7.388  0.00  0.00    +0.000 C 
ATOM     11  O   UNL     1       4.315   2.951   7.819  0.00  0.00    +0.000 OA
ATOM     12  N   UNL     1       2.047   2.742   8.172  0.00  0.00    +0.000 N 
ATOM     13  C   UNL     1       2.159   3.336   9.507  0.00  0.00    +0.000 C 
ATOM     14  C   UNL     1       1.263   2.647  10.535  0.00  0.00    +0.000 C 
ATOM     15  C   UNL     1      -0.176   2.533  10.044  0.00  0.00    +0.000 C 
ATOM     16  C   UNL     1      -0.217   1.854   8.683  0.00  0.00    +0.000 C 
ATOM     17  C   UNL     1       0.681   2.562   7.675  0.00  0.00    +0.000 C 
ATOM     18  H   UNL     1       2.131   2.598   5.669  0.00  0.00    +0.000 HD
ENDBRANCH   8   9
ENDBRANCH   5   8
ENDBRANCH   1   2
BRANCH   1  19
ATOM     19  N   UNL     1       2.764  -1.364   0.010  0.00  0.00    +0.000 N 
ATOM     20  C   UNL     1       2.079  -2.266  -0.749  0.00  0.00    +0.000 C 
ATOM     21  O   UNL     1       1.063  -1.980  -1.371  0.00  0.00    +0.000 OA
ATOM     22  H   UNL     1       3.519  -1.659   0.616  0.00  0.00    +0.000 HD
BRANCH  20  23
ATOM     23  C   UNL     1       2.640  -3.618  -0.768  0.00  0.00    +0.000 A 
ATOM     24  C   UNL     1       1.820  -4.729  -0.893  0.00  0.00    +0.000 A 
ATOM     25  S   UNL     1       2.679  -6.204  -0.926  0.00  0.00    +0.000 S 
ATOM     26  C   UNL     1       4.176  -5.402  -0.800  0.00  0.00    +0.000 A 
ATOM     27  N   UNL     1       5.345  -6.096  -0.792  0.00  0.00    +0.000 NA
ATOM     28  C   UNL     1       6.403  -5.360  -0.707  0.00  0.00    +0.000 A 
ATOM     29  N   UNL     1       6.396  -3.991  -0.628  0.00  0.00    +0.000 N 
ATOM     30  C   UNL     1       5.243  -3.241  -0.662  0.00  0.00    +0.000 A 
ATOM     31  O   UNL     1       5.287  -2.017  -0.639  0.00  0.00    +0.000 OA
ATOM     32  C   UNL     1       4.024  -4.029  -0.728  0.00  0.00    +0.000 A 
ATOM     33  H   UNL     1       7.260  -3.472  -0.571  0.00  0.00    +0.000 HD
ENDBRANCH  20  23
ENDBRANCH   1  19
BRANCH   1  34
ATOM     34  N   UNL     1       3.172   0.599  -1.058  0.00  0.00    +0.000 NA
ATOM     35  H   UNL     1       2.804   0.136  -1.888  0.00  0.00    +0.000 HD
ATOM     36  H   UNL     1       4.136   0.269  -0.984  0.00  0.00    +0.000 HD
ENDBRANCH   1  34
TORSDOF 6
