REMARK  Name = 
REMARK  9 active torsions:
REMARK  status: ('A' for Active; 'I' for Inactive)
REMARK    1  A    between atoms: C_1  and  C_2
REMARK    2  A    between atoms: C_2  and  C_3
REMARK    3  A    between atoms: C_3  and  N_4
REMARK    4  A    between atoms: C_3  and  C_17
REMARK    5  A    between atoms: C_5  and  C_7
REMARK    6  A    between atoms: C_20  and  C_21
REMARK    7  A    between atoms: C_21  and  N_22
REMARK    8  A    between atoms: N_22  and  C_23
REMARK    9  A    between atoms: C_23  and  C_24
REMARK                            x       y       z     vdW  Elec       q    Type
REMARK                         _______ _______ _______ _____ _____    ______ ____
ROOT
ATOM      1  C   UNL     1       3.073  -0.768   1.312  0.00  0.00    +0.000 C 
ENDROOT
BRANCH   1   2
ATOM      2  C   UNL     1       4.604  -0.749   1.270  0.00  0.00    +0.000 A 
ATOM      3  C   UNL     1       5.287  -0.248   0.153  0.00  0.00    +0.000 A 
ATOM      4  C   UNL     1       6.687  -0.182   0.145  0.00  0.00    +0.000 A 
ATOM      5  C   UNL     1       7.435  -0.612   1.253  0.00  0.00    +0.000 A 
ATOM      6  C   UNL     1       6.760  -1.145   2.350  0.00  0.00    +0.000 A 
ATOM      7  C   UNL     1       5.370  -1.235   2.345  0.00  0.00    +0.000 A 
BRANCH   5   8
ATOM      8  C   UNL     1       8.941  -0.526   1.272  0.00  0.00    +0.000 C 
BRANCH   8   9
ATOM      9  N   UNL     1       9.385   0.854   1.111  0.00  0.00    +0.000 NA
ATOM     10  H   UNL     1       9.007   1.411   1.879  0.00  0.00    +0.000 HD
BRANCH   9  11
ATOM     11  C   UNL     1      10.848   0.940   1.153  0.00  0.00    +0.000 C 
BRANCH  11  12
ATOM     12  C   UNL     1      11.332   2.358   0.931  0.00  0.00    +0.000 A 
ATOM     13  C   UNL     1      10.966   3.041  -0.216  0.00  0.00    +0.000 A 
ATOM     14  C   UNL     1      11.453   4.321  -0.346  0.00  0.00    +0.000 A 
ATOM     15  N   UNL     1      12.246   4.908   0.567  0.00  0.00    +0.000 NA
ATOM     16  C   UNL     1      12.539   4.163   1.644  0.00  0.00    +0.000 A 
ATOM     17  N   UNL     1      12.122   2.909   1.879  0.00  0.00    +0.000 NA
ENDBRANCH  11  12
ENDBRANCH   9  11
ENDBRANCH   8   9
ENDBRANCH   5   8
ENDBRANCH   1   2
BRANCH   1  18
ATOM     18  N   UNL     1       2.608  -2.069   0.859  0.00  0.00    +0.000 N 
ATOM     19  C   UNL     1       1.506  -2.237   0.063  0.00  0.00    +0.000 C 
ATOM     20  O   UNL     1       0.794  -1.296  -0.280  0.00  0.00    +0.000 OA
ATOM     21  H   UNL     1       3.146  -2.876   1.154  0.00  0.00    +0.000 HD
BRANCH  19  22
ATOM     22  C   UNL     1       1.235  -3.602  -0.419  0.00  0.00    +0.000 A 
ATOM     23  C   UNL     1       0.455  -3.791  -1.553  0.00  0.00    +0.000 A 
ATOM     24  S   UNL     1       0.229  -5.428  -1.972  0.00  0.00    +0.000 S 
ATOM     25  C   UNL     1       1.128  -5.950  -0.624  0.00  0.00    +0.000 A 
ATOM     26  N   UNL     1       1.278  -7.275  -0.364  0.00  0.00    +0.000 NA
ATOM     27  C   UNL     1       1.950  -7.534   0.714  0.00  0.00    +0.000 A 
ATOM     28  N   UNL     1       2.496  -6.588   1.535  0.00  0.00    +0.000 N 
ATOM     29  C   UNL     1       2.423  -5.235   1.273  0.00  0.00    +0.000 A 
ATOM     30  O   UNL     1       3.021  -4.423   1.971  0.00  0.00    +0.000 OA
ATOM     31  C   UNL     1       1.631  -4.890   0.106  0.00  0.00    +0.000 A 
ATOM     32  H   UNL     1       3.032  -6.853   2.343  0.00  0.00    +0.000 HD
ENDBRANCH  19  22
ENDBRANCH   1  18
BRANCH   1  34
ATOM     33  C   UNL     1       1.088  -0.380   2.980  0.00  0.00    +0.000 C 
ATOM     34  C   UNL     1       2.584  -0.391   2.733  0.00  0.00    +0.000 C 
ENDBRANCH   1  34
TORSDOF 8
