REMARK  Name = 
REMARK  7 active torsions:
REMARK  status: ('A' for Active; 'I' for Inactive)
REMARK    1  A    between atoms: C_1  and  O_2
REMARK    2  A    between atoms: O_2  and  C_3
REMARK    3  A    between atoms: N_6  and  C_7
REMARK    4  A    between atoms: C_7  and  C_8
REMARK    5  A    between atoms: C_12  and  C_13
REMARK    6  A    between atoms: C_17  and  C_18
REMARK    7  A    between atoms: C_23  and  C_24
REMARK                            x       y       z     vdW  Elec       q    Type
REMARK                         _______ _______ _______ _____ _____    ______ ____
ROOT
ATOM      1  C   UNL     1       7.585  -1.339   0.250  0.00  0.00    +0.000 A 
ATOM      2  N   UNL     1       7.172  -1.530   1.533  0.00  0.00    +0.000 NA
ATOM      3  C   UNL     1       6.065  -0.902   1.972  0.00  0.00    +0.000 A 
ATOM      4  N   UNL     1       5.572  -1.154   3.249  0.00  0.00    +0.000 N 
ATOM      5  C   UNL     1       5.336  -0.078   1.120  0.00  0.00    +0.000 A 
ATOM      6  C   UNL     1       5.748   0.093  -0.203  0.00  0.00    +0.000 A 
ATOM      7  C   UNL     1       6.896  -0.555  -0.672  0.00  0.00    +0.000 A 
ATOM      8  H   UNL     1       5.162  -0.344   3.700  0.00  0.00    +0.000 HD
ENDROOT
BRANCH   7   9
ATOM      9  C   UNL     1       7.265  -0.355  -2.100  0.00  0.00    +0.000 C 
ATOM     10  N   UNL     1       8.366  -1.000  -2.594  0.00  0.00    +0.000 N 
ATOM     11  O   UNL     1       6.595   0.359  -2.835  0.00  0.00    +0.000 OA
ATOM     12  H   UNL     1       8.940  -1.601  -2.022  0.00  0.00    +0.000 HD
ATOM     13  H   UNL     1       8.602  -0.867  -3.567  0.00  0.00    +0.000 HD
ENDBRANCH   7   9
BRANCH   1  15
ATOM     14  C   UNL     1       9.400  -2.676   0.913  0.00  0.00    +0.000 C 
ATOM     15  O   UNL     1       8.770  -1.942  -0.135  0.00  0.00    +0.000 OA
ENDBRANCH   1  15
BRANCH   4  16
ATOM     16  C   UNL     1       6.355  -1.981   4.171  0.00  0.00    +0.000 C 
BRANCH  16  17
ATOM     17  C   UNL     1       7.366  -1.212   5.015  0.00  0.00    +0.000 A 
ATOM     18  C   UNL     1       8.484  -0.634   4.421  0.00  0.00    +0.000 A 
ATOM     19  C   UNL     1       9.441  -0.022   5.217  0.00  0.00    +0.000 A 
ATOM     20  C   UNL     1       9.256   0.011   6.592  0.00  0.00    +0.000 A 
ATOM     21  C   UNL     1       8.106  -0.554   7.144  0.00  0.00    +0.000 A 
ATOM     22  N   UNL     1       7.173  -1.173   6.366  0.00  0.00    +0.000 NA
BRANCH  21  23
ATOM     23  C   UNL     1       7.844  -0.505   8.601  0.00  0.00    +0.000 A 
ATOM     24  C   UNL     1       8.260   0.592   9.381  0.00  0.00    +0.000 A 
ATOM     25  C   UNL     1       8.043   0.636  10.760  0.00  0.00    +0.000 A 
ATOM     26  C   UNL     1       7.394  -0.417  11.396  0.00  0.00    +0.000 A 
ATOM     27  C   UNL     1       6.954  -1.519  10.656  0.00  0.00    +0.000 A 
ATOM     28  C   UNL     1       6.254  -2.661  11.333  0.00  0.00    +0.000 C 
ATOM     29  C   UNL     1       7.181  -1.552   9.268  0.00  0.00    +0.000 A 
ENDBRANCH  21  23
ENDBRANCH  16  17
ENDBRANCH   4  16
TORSDOF 5
