REMARK  Name = 
REMARK  9 active torsions:
REMARK  status: ('A' for Active; 'I' for Inactive)
REMARK    1  A    between atoms: C_1  and  C_2
REMARK    2  A    between atoms: C_2  and  C_3
REMARK    3  A    between atoms: C_2  and  O_4
REMARK    4  A    between atoms: C_2  and  C_5
REMARK    5  A    between atoms: N_7  and  C_8
REMARK    6  A    between atoms: C_8  and  C_9
REMARK    7  A    between atoms: C_12  and  C_13
REMARK    8  A    between atoms: C_13  and  C_14
REMARK    9  A    between atoms: C_14  and  N_15
REMARK                            x       y       z     vdW  Elec       q    Type
REMARK                         _______ _______ _______ _____ _____    ______ ____
ROOT
ATOM      1  C   UNL     1       2.910   1.035  -0.881  0.00  0.00    +0.000 A 
ATOM      2  C   UNL     1       2.568   2.347  -0.604  0.00  0.00    +0.000 A 
ATOM      3  N   UNL     1       3.104   3.165  -1.563  0.00  0.00    +0.000 N 
ATOM      4  C   UNL     1       3.775   2.410  -2.502  0.00  0.00    +0.000 A 
ATOM      5  C   UNL     1       4.460   2.790  -3.669  0.00  0.00    +0.000 A 
ATOM      6  C   UNL     1       5.070   1.795  -4.436  0.00  0.00    +0.000 A 
ATOM      7  C   UNL     1       5.013   0.463  -4.047  0.00  0.00    +0.000 A 
ATOM      8  C   UNL     1       4.331   0.094  -2.882  0.00  0.00    +0.000 A 
ATOM      9  C   UNL     1       3.689   1.074  -2.091  0.00  0.00    +0.000 A 
ENDROOT
BRANCH   1  11
ATOM     10  C   UNL     1       3.755  -0.878   0.527  0.00  0.00    +0.000 C 
ATOM     11  C   UNL     1       2.522  -0.175  -0.054  0.00  0.00    +0.000 C 
ATOM     12  C   UNL     1       1.667  -1.158  -0.863  0.00  0.00    +0.000 C 
BRANCH  11  13
ATOM     13  O   UNL     1       1.717   0.232   1.070  0.00  0.00    +0.000 OA
ATOM     14  H   UNL     1       1.496  -0.565   1.576  0.00  0.00    +0.000 HD
ENDBRANCH  11  13
ENDBRANCH   1  11
BRANCH   3  15
ATOM     15  C   UNL     1       2.939   4.615  -1.589  0.00  0.00    +0.000 C 
BRANCH  15  16
ATOM     16  C   UNL     1       4.065   5.295  -0.855  0.00  0.00    +0.000 A 
ATOM     17  N   UNL     1       5.166   5.639  -1.556  0.00  0.00    +0.000 NA
ATOM     18  C   UNL     1       6.203   6.131  -0.848  0.00  0.00    +0.000 A 
ATOM     19  C   UNL     1       6.185   6.309   0.520  0.00  0.00    +0.000 A 
ATOM     20  C   UNL     1       4.990   5.989   1.128  0.00  0.00    +0.000 A 
ATOM     21  N   UNL     1       3.922   5.492   0.473  0.00  0.00    +0.000 NA
BRANCH  19  22
ATOM     22  C   UNL     1       7.378   6.785   1.291  0.00  0.00    +0.000 C 
BRANCH  22  23
ATOM     23  C   UNL     1       7.420   8.307   1.458  0.00  0.00    +0.000 C 
BRANCH  23  24
ATOM     24  N   UNL     1       8.593   8.706   2.234  0.00  0.00    +0.000 NA
ATOM     25  H   UNL     1       8.532   8.329   3.179  0.00  0.00    +0.000 HD
ATOM     26  H   UNL     1       8.605   9.721   2.336  0.00  0.00    +0.000 HD
ENDBRANCH  23  24
ENDBRANCH  22  23
ENDBRANCH  19  22
ENDBRANCH  15  16
ENDBRANCH   3  15
TORSDOF 7
