REMARK  Name = 
REMARK  6 active torsions:
REMARK  status: ('A' for Active; 'I' for Inactive)
REMARK    1  A    between atoms: C_1  and  C_2
REMARK    2  A    between atoms: C_8  and  C_9
REMARK    3  A    between atoms: C_11  and  C_12
REMARK    4  A    between atoms: C_12  and  O_13
REMARK    5  A    between atoms: O_13  and  C_14
REMARK    6  A    between atoms: C_23  and  C_24
REMARK                            x       y       z     vdW  Elec       q    Type
REMARK                         _______ _______ _______ _____ _____    ______ ____
ROOT
ATOM      1  C   UNL     1       2.668   1.702   0.468  0.00  0.00    +0.000 C 
ATOM      2  C   UNL     1       3.524   0.673  -0.266  0.00  0.00    +0.000 C 
ATOM      3  C   UNL     1       3.758   1.030  -1.752  0.00  0.00    +0.000 C 
ATOM      4  N   UNL     1       2.623   0.600  -2.556  0.00  0.00    +0.000 N 
ATOM      5  C   UNL     1       1.999   1.424  -3.444  0.00  0.00    +0.000 A 
ATOM      6  N   UNL     1       2.506   2.645  -3.663  0.00  0.00    +0.000 NA
ATOM      7  C   UNL     1       1.869   3.440  -4.545  0.00  0.00    +0.000 A 
ATOM      8  C   UNL     1       0.722   3.083  -5.215  0.00  0.00    +0.000 A 
ATOM      9  C   UNL     1       0.227   1.831  -4.913  0.00  0.00    +0.000 A 
ATOM     10  N   UNL     1       0.874   1.003  -4.048  0.00  0.00    +0.000 NA
ATOM     11  C   UNL     1       2.252  -0.800  -2.408  0.00  0.00    +0.000 C 
ATOM     12  C   UNL     1       1.972  -1.100  -0.924  0.00  0.00    +0.000 C 
ATOM     13  C   UNL     1       0.608  -0.582  -0.474  0.00  0.00    +0.000 C 
ATOM     14  O   UNL     1       3.038  -0.667  -0.059  0.00  0.00    +0.000 OA
ENDROOT
BRANCH   8  15
ATOM     15  C   UNL     1       0.110   3.994  -6.119  0.00  0.00    +0.000 C 
ATOM     16  N   UNL     1      -0.371   4.765  -6.842  0.00  0.00    +0.000 NA
ENDBRANCH   8  15
BRANCH   9  17
ATOM     17  C   UNL     1      -1.087   1.317  -5.467  0.00  0.00    +0.000 C 
BRANCH  17  18
ATOM     18  O   UNL     1      -0.899   0.722  -6.755  0.00  0.00    +0.000 OA
BRANCH  18  19
ATOM     19  C   UNL     1      -2.048   0.094  -7.205  0.00  0.00    +0.000 A 
ATOM     20  C   UNL     1      -1.976  -0.550  -8.434  0.00  0.00    +0.000 A 
ATOM     21  C   UNL     1      -3.111  -1.208  -8.912  0.00  0.00    +0.000 A 
ATOM     22  C   UNL     1      -4.268  -1.192  -8.146  0.00  0.00    +0.000 A 
ATOM     23  F   UNL     1      -5.371  -1.819  -8.571  0.00  0.00    +0.000 F 
ATOM     24  C   UNL     1      -4.255  -0.522  -6.937  0.00  0.00    +0.000 A 
ATOM     25  N   UNL     1      -3.169   0.128  -6.449  0.00  0.00    +0.000 NA
ENDBRANCH  18  19
ENDBRANCH  17  18
ENDBRANCH   9  17
TORSDOF 4
