REMARK  Name = 
REMARK  8 active torsions:
REMARK  status: ('A' for Active; 'I' for Inactive)
REMARK    1  A    between atoms: N_1  and  C_2
REMARK    2  A    between atoms: C_2  and  C_3
REMARK    3  A    between atoms: C_2  and  C_17
REMARK    4  A    between atoms: C_3  and  N_4
REMARK    5  A    between atoms: C_5  and  C_7
REMARK    6  A    between atoms: C_20  and  C_21
REMARK    7  A    between atoms: C_21  and  N_22
REMARK    8  A    between atoms: C_23  and  C_25
REMARK                            x       y       z     vdW  Elec       q    Type
REMARK                         _______ _______ _______ _____ _____    ______ ____
ROOT
ATOM      1  C   UNL     1       2.605   0.038  -0.014  0.00  0.00    +0.000 C 
ENDROOT
BRANCH   1   2
ATOM      2  C   UNL     1       3.170   1.464   0.053  0.00  0.00    +0.000 A 
ATOM      3  C   UNL     1       2.576   2.516  -0.666  0.00  0.00    +0.000 A 
ATOM      4  C   UNL     1       3.003   3.843  -0.518  0.00  0.00    +0.000 A 
ATOM      5  C   UNL     1       4.045   4.170   0.354  0.00  0.00    +0.000 A 
ATOM      6  C   UNL     1       4.654   3.136   1.072  0.00  0.00    +0.000 A 
ATOM      7  C   UNL     1       4.222   1.808   0.924  0.00  0.00    +0.000 A 
BRANCH   5   8
ATOM      8  C   UNL     1       4.474   5.604   0.533  0.00  0.00    +0.000 C 
BRANCH   8   9
ATOM      9  N   UNL     1       3.705   6.276   1.559  0.00  0.00    +0.000 N 
ATOM     10  C   UNL     1       3.980   7.591   1.884  0.00  0.00    +0.000 C 
ATOM     11  O   UNL     1       4.863   8.246   1.345  0.00  0.00    +0.000 OA
ATOM     12  H   UNL     1       2.823   5.867   1.833  0.00  0.00    +0.000 HD
BRANCH  10  13
ATOM     13  C   UNL     1       3.123   8.208   2.924  0.00  0.00    +0.000 A 
ATOM     14  C   UNL     1       2.543   7.470   3.957  0.00  0.00    +0.000 A 
ATOM     15  C   UNL     1       1.765   8.125   4.911  0.00  0.00    +0.000 A 
ATOM     16  C   UNL     1       1.596   9.497   4.799  0.00  0.00    +0.000 A 
ATOM     17  N   UNL     1       2.155  10.242   3.821  0.00  0.00    +0.000 NA
ATOM     18  C   UNL     1       2.918   9.583   2.911  0.00  0.00    +0.000 A 
ENDBRANCH  10  13
ENDBRANCH   8   9
ENDBRANCH   5   8
ENDBRANCH   1   2
BRANCH   1  19
ATOM     19  N   UNL     1       3.618  -0.999   0.255  0.00  0.00    +0.000 NA
ATOM     20  H   UNL     1       3.995  -0.886   1.191  0.00  0.00    +0.000 HD
ATOM     21  H   UNL     1       4.392  -0.895  -0.402  0.00  0.00    +0.000 HD
ENDBRANCH   1  19
BRANCH   1  22
ATOM     22  C   UNL     1       1.866  -0.352  -1.331  0.00  0.00    +0.000 C 
BRANCH  22  23
ATOM     23  N   UNL     1       2.724  -0.307  -2.502  0.00  0.00    +0.000 N 
ATOM     24  C   UNL     1       2.274  -0.577  -3.766  0.00  0.00    +0.000 C 
ATOM     25  O   UNL     1       1.089  -0.812  -3.993  0.00  0.00    +0.000 OA
ATOM     26  H   UNL     1       3.721  -0.294  -2.321  0.00  0.00    +0.000 HD
BRANCH  24  27
ATOM     27  C   UNL     1       3.271  -0.522  -4.848  0.00  0.00    +0.000 A 
ATOM     28  C   UNL     1       2.864  -0.693  -6.166  0.00  0.00    +0.000 A 
ATOM     29  S   UNL     1       4.113  -0.472  -7.306  0.00  0.00    +0.000 S 
ATOM     30  C   UNL     1       5.253  -0.173  -6.080  0.00  0.00    +0.000 A 
ATOM     31  N   UNL     1       6.543   0.129  -6.387  0.00  0.00    +0.000 NA
ATOM     32  C   UNL     1       7.301   0.339  -5.364  0.00  0.00    +0.000 A 
ATOM     33  N   UNL     1       6.891   0.254  -4.059  0.00  0.00    +0.000 N 
ATOM     34  C   UNL     1       5.617  -0.114  -3.702  0.00  0.00    +0.000 A 
ATOM     35  O   UNL     1       5.324  -0.306  -2.524  0.00  0.00    +0.000 OA
ATOM     36  C   UNL     1       4.699  -0.281  -4.815  0.00  0.00    +0.000 A 
ATOM     37  H   UNL     1       7.546   0.384  -3.303  0.00  0.00    +0.000 HD
ENDBRANCH  24  27
ENDBRANCH  22  23
ENDBRANCH   1  22
TORSDOF 8
