REMARK  Name = 
REMARK  6 active torsions:
REMARK  status: ('A' for Active; 'I' for Inactive)
REMARK    1  A    between atoms: C_1  and  C_2
REMARK    2  A    between atoms: C_2  and  C_3
REMARK    3  A    between atoms: C_2  and  C_4
REMARK    4  A    between atoms: C_2  and  C_18
REMARK    5  A    between atoms: C_5  and  C_6
REMARK    6  A    between atoms: C_8  and  N_9
REMARK                            x       y       z     vdW  Elec       q    Type
REMARK                         _______ _______ _______ _____ _____    ______ ____
ROOT
ATOM      1  C   UNL     1       2.925  -1.286  -0.879  0.00  0.00    +0.000 C 
ATOM      2  C   UNL     1       2.723  -2.595  -0.631  0.00  0.00    +0.000 C 
ENDROOT
BRANCH   2   3
ATOM      3  C   UNL     1       3.260  -3.667  -1.486  0.00  0.00    +0.000 A 
ATOM      4  C   UNL     1       3.027  -4.992  -1.166  0.00  0.00    +0.000 A 
ATOM      5  C   UNL     1       3.555  -5.964  -1.999  0.00  0.00    +0.000 A 
ATOM      6  N   UNL     1       4.256  -5.610  -3.089  0.00  0.00    +0.000 NA
ATOM      7  C   UNL     1       4.432  -4.302  -3.317  0.00  0.00    +0.000 A 
ATOM      8  N   UNL     1       3.972  -3.302  -2.565  0.00  0.00    +0.000 NA
BRANCH   5   9
ATOM      9  N   UNL     1       3.331  -7.308  -1.766  0.00  0.00    +0.000 N 
ATOM     10  C   UNL     1       3.210  -7.879  -0.420  0.00  0.00    +0.000 C 
ATOM     11  C   UNL     1       4.357  -8.867  -0.143  0.00  0.00    +0.000 C 
ATOM     12  O   UNL     1       4.461  -9.867  -1.167  0.00  0.00    +0.000 OA
ATOM     13  C   UNL     1       4.721  -9.244  -2.437  0.00  0.00    +0.000 C 
ATOM     14  C   UNL     1       3.587  -8.289  -2.832  0.00  0.00    +0.000 C 
ENDBRANCH   5   9
ENDBRANCH   2   3
BRANCH   1  16
ATOM     15  C   UNL     1       3.656   0.228   0.905  0.00  0.00    +0.000 C 
ATOM     16  C   UNL     1       2.474  -0.099  -0.036  0.00  0.00    +0.000 C 
ATOM     17  C   UNL     1       2.293   1.121  -0.974  0.00  0.00    +0.000 C 
BRANCH  16  18
ATOM     18  C   UNL     1       1.140  -0.337   0.704  0.00  0.00    +0.000 A 
ATOM     19  C   UNL     1       1.019  -0.236   2.101  0.00  0.00    +0.000 A 
ATOM     20  C   UNL     1      -0.215  -0.408   2.738  0.00  0.00    +0.000 A 
ATOM     21  C   UNL     1      -1.352  -0.689   1.988  0.00  0.00    +0.000 A 
ATOM     22 CL   UNL     1      -2.870  -0.880   2.772  0.00  0.00    +0.000 Cl
ATOM     23  C   UNL     1      -1.263  -0.812   0.606  0.00  0.00    +0.000 A 
ATOM     24  C   UNL     1      -0.028  -0.640  -0.028  0.00  0.00    +0.000 A 
ENDBRANCH  16  18
ENDBRANCH   1  16
TORSDOF 4
