REMARK  Name = 
REMARK  5 active torsions:
REMARK  status: ('A' for Active; 'I' for Inactive)
REMARK    1  A    between atoms: C_2  and  C_5
REMARK    2  A    between atoms: C_7  and  N_8
REMARK    3  A    between atoms: N_8  and  C_9
REMARK    4  A    between atoms: C_9  and  C_10
REMARK    5  A    between atoms: C_17  and  C_18
REMARK                            x       y       z     vdW  Elec       q    Type
REMARK                         _______ _______ _______ _____ _____    ______ ____
ROOT
ATOM      1  C   UNL     1       2.789  -1.055   0.874  0.00  0.00    +0.000 A 
ATOM      2  C   UNL     1       3.250  -0.728   2.157  0.00  0.00    +0.000 A 
ATOM      3  C   UNL     1       3.423  -1.712   3.131  0.00  0.00    +0.000 A 
ATOM      4  C   UNL     1       3.224  -3.050   2.767  0.00  0.00    +0.000 A 
ATOM      5  C   UNL     1       2.733  -3.425   1.501  0.00  0.00    +0.000 A 
ATOM      6  C   UNL     1       2.539  -2.403   0.560  0.00  0.00    +0.000 A 
ENDROOT
BRANCH   5   7
ATOM      7  C   UNL     1       2.357  -4.828   1.218  0.00  0.00    +0.000 A 
ATOM      8  C   UNL     1       1.793  -5.634   2.220  0.00  0.00    +0.000 A 
ATOM      9  C   UNL     1       1.404  -6.932   1.919  0.00  0.00    +0.000 A 
ATOM     10  N   UNL     1       1.526  -7.483   0.700  0.00  0.00    +0.000 NA
ATOM     11  C   UNL     1       2.065  -6.704  -0.261  0.00  0.00    +0.000 A 
ATOM     12  C   UNL     1       2.493  -5.401  -0.052  0.00  0.00    +0.000 A 
ENDBRANCH   5   7
BRANCH   1  14
ATOM     13  F   UNL     1       2.665   1.282   0.311  0.00  0.00    +0.000 F 
ATOM     14  C   UNL     1       2.492   0.012  -0.149  0.00  0.00    +0.000 C 
ATOM     15  F   UNL     1       1.207  -0.050  -0.598  0.00  0.00    +0.000 F 
ATOM     16  F   UNL     1       3.277  -0.096  -1.257  0.00  0.00    +0.000 F 
ENDBRANCH   1  14
BRANCH   3  17
ATOM     17  N   UNL     1       3.830  -1.316   4.416  0.00  0.00    +0.000 N 
ATOM     18  H   UNL     1       4.836  -1.144   4.427  0.00  0.00    +0.000 HD
BRANCH  17  19
ATOM     19  C   UNL     1       3.435  -2.187   5.525  0.00  0.00    +0.000 C 
BRANCH  19  20
ATOM     20  C   UNL     1       3.436  -1.451   6.844  0.00  0.00    +0.000 A 
ATOM     21  C   UNL     1       3.120  -0.093   6.938  0.00  0.00    +0.000 A 
ATOM     22  C   UNL     1       3.075   0.498   8.190  0.00  0.00    +0.000 A 
ATOM     23  N   UNL     1       3.299  -0.166   9.344  0.00  0.00    +0.000 NA
ATOM     24  C   UNL     1       3.575  -1.482   9.239  0.00  0.00    +0.000 A 
ATOM     25  C   UNL     1       3.648  -2.161   8.033  0.00  0.00    +0.000 A 
ENDBRANCH  19  20
ENDBRANCH  17  19
ENDBRANCH   3  17
TORSDOF 5
