REMARK  Name = 
REMARK  8 active torsions:
REMARK  status: ('A' for Active; 'I' for Inactive)
REMARK    1  A    between atoms: N_1  and  C_2
REMARK    2  A    between atoms: C_2  and  C_3
REMARK    3  A    between atoms: C_2  and  C_18
REMARK    4  A    between atoms: C_3  and  N_4
REMARK    5  A    between atoms: C_7  and  O_8
REMARK    6  A    between atoms: O_8  and  C_9
REMARK    7  A    between atoms: C_9  and  C_10
REMARK    8  A    between atoms: C_18  and  C_20
REMARK                            x       y       z     vdW  Elec       q    Type
REMARK                         _______ _______ _______ _____ _____    ______ ____
ROOT
ATOM      1  C   UNL     1       2.511  -0.111  -0.040  0.00  0.00    +0.000 C 
ENDROOT
BRANCH   1   2
ATOM      2  N   UNL     1       3.224   1.188   0.080  0.00  0.00    +0.000 NA
ATOM      3  H   UNL     1       4.224   1.014  -0.022  0.00  0.00    +0.000 HD
ATOM      4  H   UNL     1       3.106   1.519   1.040  0.00  0.00    +0.000 HD
ENDBRANCH   1   2
BRANCH   1   5
ATOM      5  C   UNL     1       2.898  -1.039   1.135  0.00  0.00    +0.000 C 
ATOM      6  O   UNL     1       3.254  -0.547   2.208  0.00  0.00    +0.000 OA
BRANCH   5   7
ATOM      7  C   UNL     1       2.729  -2.503   1.024  0.00  0.00    +0.000 A 
ATOM      8  C   UNL     1       2.443  -3.249   2.159  0.00  0.00    +0.000 A 
ATOM      9  S   UNL     1       2.139  -4.896   1.832  0.00  0.00    +0.000 S 
ATOM     10  C   UNL     1       2.426  -4.674   0.170  0.00  0.00    +0.000 A 
ATOM     11  N   UNL     1       2.289  -5.703  -0.708  0.00  0.00    +0.000 NA
ATOM     12  C   UNL     1       2.526  -5.389  -1.939  0.00  0.00    +0.000 A 
ATOM     13  N   UNL     1       2.924  -4.149  -2.364  0.00  0.00    +0.000 N 
ATOM     14  C   UNL     1       3.248  -3.144  -1.488  0.00  0.00    +0.000 A 
ATOM     15  O   UNL     1       3.913  -2.180  -1.850  0.00  0.00    +0.000 OA
ATOM     16  C   UNL     1       2.819  -3.378  -0.120  0.00  0.00    +0.000 A 
ATOM     17  H   UNL     1       3.198  -4.002  -3.324  0.00  0.00    +0.000 HD
ENDBRANCH   5   7
ENDBRANCH   1   5
BRANCH   1  18
ATOM     18  C   UNL     1       0.967   0.039  -0.091  0.00  0.00    +0.000 C 
BRANCH  18  19
ATOM     19  N   UNL     1       0.436   0.932  -1.148  0.00  0.00    +0.000 NA
ATOM     20  C   UNL     1       0.863   0.532  -2.499  0.00  0.00    +0.000 C 
ATOM     21  C   UNL     1       0.353   1.526  -3.546  0.00  0.00    +0.000 C 
ATOM     22  C   UNL     1      -1.173   1.610  -3.514  0.00  0.00    +0.000 C 
ATOM     23  C   UNL     1      -1.600   1.983  -2.092  0.00  0.00    +0.000 C 
ATOM     24  C   UNL     1      -1.032   1.001  -1.065  0.00  0.00    +0.000 C 
BRANCH  22  25
ATOM     25  O   UNL     1      -1.683   0.338  -3.944  0.00  0.00    +0.000 OA
BRANCH  25  26
ATOM     26  C   UNL     1      -3.105   0.299  -4.073  0.00  0.00    +0.000 C 
BRANCH  26  27
ATOM     27  C   UNL     1      -3.567  -1.075  -4.497  0.00  0.00    +0.000 A 
ATOM     28  C   UNL     1      -3.180  -1.605  -5.725  0.00  0.00    +0.000 A 
ATOM     29  C   UNL     1      -3.670  -2.852  -6.103  0.00  0.00    +0.000 A 
ATOM     30  C   UNL     1      -4.524  -3.538  -5.247  0.00  0.00    +0.000 A 
ATOM     31  C   UNL     1      -4.850  -2.949  -4.040  0.00  0.00    +0.000 A 
ATOM     32  N   UNL     1      -4.399  -1.737  -3.650  0.00  0.00    +0.000 NA
ENDBRANCH  26  27
ENDBRANCH  25  26
ENDBRANCH  22  25
ENDBRANCH  18  19
ENDBRANCH   1  18
TORSDOF 8
