REMARK  Name = 
REMARK  7 active torsions:
REMARK  status: ('A' for Active; 'I' for Inactive)
REMARK    1  A    between atoms: C_2  and  C_20
REMARK    2  A    between atoms: N_3  and  C_4
REMARK    3  A    between atoms: C_4  and  C_5
REMARK    4  A    between atoms: C_8  and  C_9
REMARK    5  A    between atoms: C_9  and  O_10
REMARK    6  A    between atoms: O_10  and  C_11
REMARK    7  A    between atoms: C_11  and  C_12
REMARK                            x       y       z     vdW  Elec       q    Type
REMARK                         _______ _______ _______ _____ _____    ______ ____
ROOT
ATOM      1  C   UNL     1       2.418   1.990  -1.439  0.00  0.00    +0.000 C 
ENDROOT
BRANCH   1   2
ATOM      2  C   UNL     1       3.354   3.103  -1.965  0.00  0.00    +0.000 C 
ATOM      3  C   UNL     1       4.800   2.806  -1.563  0.00  0.00    +0.000 C 
ATOM      4  C   UNL     1       5.750   3.892  -2.061  0.00  0.00    +0.000 C 
ATOM      5  C   UNL     1       5.277   5.287  -1.631  0.00  0.00    +0.000 C 
ATOM      6  C   UNL     1       3.795   5.500  -1.991  0.00  0.00    +0.000 C 
ATOM      7  N   UNL     1       2.955   4.424  -1.462  0.00  0.00    +0.000 NA
ATOM      8  H   UNL     1       1.968   4.601  -1.652  0.00  0.00    +0.000 HD
BRANCH   5   9
ATOM      9  C   UNL     1       6.168   6.365  -2.264  0.00  0.00    +0.000 C 
BRANCH   9  10
ATOM     10  O   UNL     1       5.734   7.650  -1.829  0.00  0.00    +0.000 OA
BRANCH  10  11
ATOM     11  C   UNL     1       6.517   8.705  -2.397  0.00  0.00    +0.000 C 
BRANCH  11  12
ATOM     12  C   UNL     1       5.991  10.049  -1.948  0.00  0.00    +0.000 A 
ATOM     13  C   UNL     1       5.428  10.207  -0.693  0.00  0.00    +0.000 A 
ATOM     14  C   UNL     1       4.986  11.470  -0.371  0.00  0.00    +0.000 A 
ATOM     15  N   UNL     1       5.093  12.526  -1.197  0.00  0.00    +0.000 NA
ATOM     16  C   UNL     1       5.669  12.275  -2.381  0.00  0.00    +0.000 A 
ATOM     17  N   UNL     1       6.131  11.087  -2.805  0.00  0.00    +0.000 NA
ENDBRANCH  11  12
ENDBRANCH  10  11
ENDBRANCH   9  10
ENDBRANCH   5   9
ENDBRANCH   1   2
BRANCH   1  20
ATOM     18  O   UNL     1       0.116   0.493  -0.638  0.00  0.00    +0.000 OA
ATOM     19  C   UNL     1       0.028   1.354  -1.501  0.00  0.00    +0.000 C 
ATOM     20  N   UNL     1       1.059   2.168  -1.912  0.00  0.00    +0.000 N 
ATOM     21  H   UNL     1       0.959   2.611  -2.816  0.00  0.00    +0.000 HD
BRANCH  19  22
ATOM     22  C   UNL     1      -1.128   1.492  -2.386  0.00  0.00    +0.000 A 
ATOM     23  C   UNL     1      -1.817   0.405  -2.892  0.00  0.00    +0.000 A 
ATOM     24  S   UNL     1      -2.701   0.827  -4.301  0.00  0.00    +0.000 S 
ATOM     25  C   UNL     1      -2.286   2.475  -4.139  0.00  0.00    +0.000 A 
ATOM     26  N   UNL     1      -2.575   3.401  -5.088  0.00  0.00    +0.000 NA
ATOM     27  C   UNL     1      -2.252   4.611  -4.766  0.00  0.00    +0.000 A 
ATOM     28  N   UNL     1      -1.711   4.987  -3.561  0.00  0.00    +0.000 N 
ATOM     29  C   UNL     1      -1.402   4.088  -2.570  0.00  0.00    +0.000 A 
ATOM     30  O   UNL     1      -0.951   4.443  -1.488  0.00  0.00    +0.000 OA
ATOM     31  C   UNL     1      -1.628   2.709  -2.954  0.00  0.00    +0.000 A 
ATOM     32  H   UNL     1      -1.568   5.961  -3.334  0.00  0.00    +0.000 HD
ENDBRANCH  19  22
ENDBRANCH   1  20
TORSDOF 7
