REMARK  Name = 
REMARK  7 active torsions:
REMARK  status: ('A' for Active; 'I' for Inactive)
REMARK    1  A    between atoms: C_2  and  C_4
REMARK    2  A    between atoms: C_7  and  O_8
REMARK    3  A    between atoms: O_8  and  C_9
REMARK    4  A    between atoms: C_9  and  C_10
REMARK    5  A    between atoms: C_14  and  N_15
REMARK    6  A    between atoms: C_19  and  C_20
REMARK    7  A    between atoms: C_20  and  O_22
REMARK                            x       y       z     vdW  Elec       q    Type
REMARK                         _______ _______ _______ _____ _____    ______ ____
ROOT
ATOM      1  C   UNL     1       5.861   5.496   4.608  0.00  0.00    +0.000 A 
ATOM      2  C   UNL     1       5.588   6.827   4.285  0.00  0.00    +0.000 A 
ATOM      3  C   UNL     1       6.280   7.850   4.922  0.00  0.00    +0.000 A 
ATOM      4  C   UNL     1       7.249   7.548   5.883  0.00  0.00    +0.000 A 
ATOM      5  C   UNL     1       7.576   6.226   6.215  0.00  0.00    +0.000 A 
ATOM      6  C   UNL     1       6.881   5.212   5.536  0.00  0.00    +0.000 A 
ENDROOT
BRANCH   5   7
ATOM      7  N   UNL     1       8.514   5.936   7.186  0.00  0.00    +0.000 N 
ATOM      8  C   UNL     1       8.667   6.761   8.385  0.00  0.00    +0.000 C 
ATOM      9  C   UNL     1      10.083   7.331   8.423  0.00  0.00    +0.000 C 
ATOM     10  C   UNL     1      11.130   6.221   8.302  0.00  0.00    +0.000 C 
ATOM     11  C   UNL     1      10.866   5.334   7.078  0.00  0.00    +0.000 C 
ATOM     12  C   UNL     1       9.429   4.797   7.074  0.00  0.00    +0.000 C 
BRANCH  11  13
ATOM     13  C   UNL     1      11.831   4.173   7.057  0.00  0.00    +0.000 C 
ATOM     14  O   UNL     1      11.639   3.101   7.610  0.00  0.00    +0.000 OA
BRANCH  13  15
ATOM     15  O   UNL     1      12.976   4.440   6.388  0.00  0.00    +0.000 OA
ATOM     16  H   UNL     1      13.013   5.330   5.989  0.00  0.00    +0.000 HD
ENDBRANCH  13  15
ENDBRANCH  11  13
ENDBRANCH   5   7
BRANCH   1  17
ATOM     17  C   UNL     1       5.006   4.384   4.048  0.00  0.00    +0.000 C 
BRANCH  17  18
ATOM     18  O   UNL     1       5.471   3.952   2.771  0.00  0.00    +0.000 OA
BRANCH  18  22
ATOM     19  C   UNL     1       3.407   0.887   0.804  0.00  0.00    +0.000 A 
ATOM     20  C   UNL     1       2.933   1.325   2.043  0.00  0.00    +0.000 A 
ATOM     21  C   UNL     1       3.597   2.349   2.729  0.00  0.00    +0.000 A 
ATOM     22  C   UNL     1       4.741   2.945   2.187  0.00  0.00    +0.000 A 
ATOM     23  C   UNL     1       5.214   2.500   0.950  0.00  0.00    +0.000 A 
ATOM     24  C   UNL     1       4.557   1.472   0.264  0.00  0.00    +0.000 A 
BRANCH  19  26
ATOM     25  N   UNL     1       1.399  -0.391   0.275  0.00  0.00    +0.000 N 
ATOM     26  C   UNL     1       2.740  -0.211   0.061  0.00  0.00    +0.000 C 
ATOM     27  O   UNL     1       3.349  -0.916  -0.733  0.00  0.00    +0.000 OA
ATOM     28  H   UNL     1       0.943  -1.082  -0.307  0.00  0.00    +0.000 HD
ATOM     29  H   UNL     1       0.820   0.314   0.707  0.00  0.00    +0.000 HD
ENDBRANCH  19  26
ENDBRANCH  18  22
ENDBRANCH  17  18
ENDBRANCH   1  17
TORSDOF 7
