REMARK  Name = 
REMARK  8 active torsions:
REMARK  status: ('A' for Active; 'I' for Inactive)
REMARK    1  A    between atoms: C_2  and  C_4
REMARK    2  A    between atoms: N_8  and  C_9
REMARK    3  A    between atoms: C_9  and  C_10
REMARK    4  A    between atoms: C_10  and  C_11
REMARK    5  A    between atoms: C_15  and  C_16
REMARK    6  A    between atoms: N_19  and  C_20
REMARK    7  A    between atoms: C_20  and  C_21
REMARK    8  A    between atoms: C_21  and  O_22
REMARK                            x       y       z     vdW  Elec       q    Type
REMARK                         _______ _______ _______ _____ _____    ______ ____
ROOT
ATOM      1  C   UNL     1       4.783  -6.635   5.578  0.00  0.00    +0.000 A 
ATOM      2  C   UNL     1       3.579  -6.947   6.203  0.00  0.00    +0.000 A 
ATOM      3  N   UNL     1       3.131  -8.199   6.418  0.00  0.00    +0.000 NA
ATOM      4  C   UNL     1       3.909  -9.203   5.976  0.00  0.00    +0.000 A 
ATOM      5  C   UNL     1       5.140  -9.035   5.334  0.00  0.00    +0.000 A 
ATOM      6  C   UNL     1       5.580  -7.715   5.162  0.00  0.00    +0.000 A 
ENDROOT
BRANCH   5   7
ATOM      7  C   UNL     1       5.826 -10.279   4.795  0.00  0.00    +0.000 C 
ATOM      8  C   UNL     1       7.358 -10.331   4.844  0.00  0.00    +0.000 C 
ATOM      9  C   UNL     1       8.068  -9.703   3.641  0.00  0.00    +0.000 C 
ATOM     10  N   UNL     1       7.512 -10.155   2.357  0.00  0.00    +0.000 NA
ATOM     11  C   UNL     1       6.068  -9.863   2.295  0.00  0.00    +0.000 C 
ATOM     12  C   UNL     1       5.311 -10.612   3.388  0.00  0.00    +0.000 C 
BRANCH  10  13
ATOM     13  C   UNL     1       8.188  -9.500   1.208  0.00  0.00    +0.000 C 
BRANCH  13  14
ATOM     14  C   UNL     1       9.672  -9.872   1.066  0.00  0.00    +0.000 C 
BRANCH  14  15
ATOM     15  O   UNL     1       9.830 -11.285   0.999  0.00  0.00    +0.000 OA
ATOM     16  H   UNL     1       9.207 -11.646   1.659  0.00  0.00    +0.000 HD
ENDBRANCH  14  15
ENDBRANCH  13  14
ENDBRANCH  10  13
ENDBRANCH   5   7
BRANCH   1  17
ATOM     17  C   UNL     1       5.229  -5.207   5.310  0.00  0.00    +0.000 C 
BRANCH  17  18
ATOM     18  C   UNL     1       4.182  -4.133   5.653  0.00  0.00    +0.000 C 
BRANCH  18  23
ATOM     19  C   UNL     1       2.253   0.470   6.226  0.00  0.00    +0.000 A 
ATOM     20  C   UNL     1       1.602  -0.709   5.926  0.00  0.00    +0.000 A 
ATOM     21  C   UNL     1       2.375  -1.821   5.592  0.00  0.00    +0.000 A 
ATOM     22  C   UNL     1       3.763  -1.735   5.593  0.00  0.00    +0.000 A 
ATOM     23  N   UNL     1       4.593  -2.800   5.234  0.00  0.00    +0.000 N 
ATOM     24  N   UNL     1       4.354  -0.559   5.900  0.00  0.00    +0.000 NA
ATOM     25  N   UNL     1       3.603   0.559   6.219  0.00  0.00    +0.000 NA
ATOM     26  H   UNL     1       5.549  -2.534   5.466  0.00  0.00    +0.000 HD
BRANCH  19  28
ATOM     27  N   UNL     1       2.212   2.845   6.744  0.00  0.00    +0.000 N 
ATOM     28  C   UNL     1       1.482   1.704   6.546  0.00  0.00    +0.000 C 
ATOM     29  O   UNL     1       0.260   1.707   6.620  0.00  0.00    +0.000 OA
ATOM     30  H   UNL     1       1.727   3.711   6.932  0.00  0.00    +0.000 HD
ATOM     31  H   UNL     1       3.222   2.844   6.651  0.00  0.00    +0.000 HD
ENDBRANCH  19  28
ENDBRANCH  18  23
ENDBRANCH  17  18
ENDBRANCH   1  17
TORSDOF 8
