REMARK  Name = 
REMARK  4 active torsions:
REMARK  status: ('A' for Active; 'I' for Inactive)
REMARK    1  A    between atoms: C_2  and  C_4
REMARK    2  A    between atoms: C_7  and  C_8
REMARK    3  A    between atoms: N_10  and  C_11
REMARK    4  A    between atoms: C_11  and  C_12
REMARK                            x       y       z     vdW  Elec       q    Type
REMARK                         _______ _______ _______ _____ _____    ______ ____
ROOT
ATOM      1  C   UNL     1       2.932  -1.422   0.697  0.00  0.00    +0.000 A 
ATOM      2  C   UNL     1       4.052  -0.839   1.292  0.00  0.00    +0.000 A 
ATOM      3  C   UNL     1       5.007  -1.661   1.894  0.00  0.00    +0.000 A 
ATOM      4  C   UNL     1       4.811  -3.040   1.878  0.00  0.00    +0.000 A 
ATOM      5  N   UNL     1       3.732  -3.639   1.302  0.00  0.00    +0.000 NA
ATOM      6  C   UNL     1       2.814  -2.809   0.738  0.00  0.00    +0.000 A 
ENDROOT
BRANCH   1   8
ATOM      7  N   UNL     1       2.168   0.588  -0.451  0.00  0.00    +0.000 N 
ATOM      8  C   UNL     1       1.849  -0.635   0.068  0.00  0.00    +0.000 C 
ATOM      9  O   UNL     1       0.709  -1.076  -0.009  0.00  0.00    +0.000 OA
ATOM     10  H   UNL     1       1.430   1.068  -0.955  0.00  0.00    +0.000 HD
ATOM     11  H   UNL     1       3.116   0.887  -0.622  0.00  0.00    +0.000 HD
ENDBRANCH   1   8
BRANCH   4  12
ATOM     12  C   UNL     1       5.825  -3.940   2.524  0.00  0.00    +0.000 C 
ATOM     13  O   UNL     1       6.816  -3.477   3.080  0.00  0.00    +0.000 OA
ATOM     14  N   UNL     1       5.558  -5.288   2.440  0.00  0.00    +0.000 N 
ATOM     15  H   UNL     1       4.662  -5.566   2.051  0.00  0.00    +0.000 HD
BRANCH  14  16
ATOM     16  C   UNL     1       6.402  -6.290   3.058  0.00  0.00    +0.000 C 
BRANCH  16  17
ATOM     17  C   UNL     1       6.011  -6.591   4.489  0.00  0.00    +0.000 A 
ATOM     18  C   UNL     1       6.556  -5.844   5.533  0.00  0.00    +0.000 A 
ATOM     19  C   UNL     1       6.185  -6.140   6.842  0.00  0.00    +0.000 A 
ATOM     20  C   UNL     1       5.277  -7.165   7.076  0.00  0.00    +0.000 A 
ATOM     21  C   UNL     1       4.777  -7.855   5.986  0.00  0.00    +0.000 A 
ATOM     22  N   UNL     1       5.119  -7.593   4.703  0.00  0.00    +0.000 NA
ENDBRANCH  16  17
ENDBRANCH  14  16
ENDBRANCH   4  12
TORSDOF 4
