REMARK  Name = 
REMARK  7 active torsions:
REMARK  status: ('A' for Active; 'I' for Inactive)
REMARK    1  A    between atoms: N_1  and  C_2
REMARK    2  A    between atoms: C_2  and  C_3
REMARK    3  A    between atoms: C_4  and  C_5
REMARK    4  A    between atoms: C_8  and  O_9
REMARK    5  A    between atoms: O_9  and  C_10
REMARK    6  A    between atoms: C_10  and  C_11
REMARK    7  A    between atoms: C_15  and  C_16
REMARK                            x       y       z     vdW  Elec       q    Type
REMARK                         _______ _______ _______ _____ _____    ______ ____
ROOT
ATOM      1  O   UNL     1       8.210  -1.969  -1.550  0.00  0.00    +0.000 OA
ENDROOT
BRANCH   1   5
ATOM      2  C   UNL     1       5.388   0.470   0.200  0.00  0.00    +0.000 A 
ATOM      3  C   UNL     1       5.239   0.081  -1.131  0.00  0.00    +0.000 A 
ATOM      4  C   UNL     1       6.202  -0.738  -1.720  0.00  0.00    +0.000 A 
ATOM      5  C   UNL     1       7.273  -1.155  -0.947  0.00  0.00    +0.000 A 
ATOM      6  N   UNL     1       7.461  -0.781   0.337  0.00  0.00    +0.000 NA
ATOM      7  C   UNL     1       6.518   0.025   0.879  0.00  0.00    +0.000 A 
BRANCH   2   9
ATOM      8  C   UNL     1       3.323   0.775   1.531  0.00  0.00    +0.000 C 
ATOM      9  C   UNL     1       4.373   1.282   0.864  0.00  0.00    +0.000 C 
BRANCH   8  10
ATOM     10  C   UNL     1       2.998  -0.667   1.764  0.00  0.00    +0.000 C 
BRANCH  10  11
ATOM     11  N   UNL     1       1.699  -0.977   1.187  0.00  0.00    +0.000 NA
ATOM     12  H   UNL     1       1.471  -1.947   1.398  0.00  0.00    +0.000 HD
ATOM     13  H   UNL     1       1.774  -0.927   0.172  0.00  0.00    +0.000 HD
ENDBRANCH  10  11
ENDBRANCH   8  10
ENDBRANCH   2   9
ENDBRANCH   1   5
BRANCH   1  14
ATOM     14  C   UNL     1       8.926  -2.749  -0.585  0.00  0.00    +0.000 C 
BRANCH  14  15
ATOM     15  C   UNL     1       9.980  -3.571  -1.284  0.00  0.00    +0.000 A 
ATOM     16  C   UNL     1      11.050  -2.966  -1.928  0.00  0.00    +0.000 A 
ATOM     17  C   UNL     1      11.996  -3.772  -2.546  0.00  0.00    +0.000 A 
ATOM     18  F   UNL     1      13.024  -3.185  -3.174  0.00  0.00    +0.000 F 
ATOM     19  C   UNL     1      11.846  -5.143  -2.496  0.00  0.00    +0.000 A 
ATOM     20  N   UNL     1      10.800  -5.717  -1.849  0.00  0.00    +0.000 NA
ATOM     21  N   UNL     1       9.863  -4.921  -1.240  0.00  0.00    +0.000 NA
BRANCH  19  22
ATOM     22  C   UNL     1      12.806  -6.071  -3.153  0.00  0.00    +0.000 C 
ATOM     23  N   UNL     1      12.527  -7.410  -3.026  0.00  0.00    +0.000 N 
ATOM     24  O   UNL     1      13.788  -5.697  -3.778  0.00  0.00    +0.000 OA
ATOM     25  H   UNL     1      11.714  -7.735  -2.514  0.00  0.00    +0.000 HD
ATOM     26  H   UNL     1      13.142  -8.080  -3.468  0.00  0.00    +0.000 HD
ENDBRANCH  19  22
ENDBRANCH  14  15
ENDBRANCH   1  14
TORSDOF 7
