REMARK  Name = 
REMARK  8 active torsions:
REMARK  status: ('A' for Active; 'I' for Inactive)
REMARK    1  A    between atoms: C_1  and  C_2
REMARK    2  A    between atoms: C_2  and  O_3
REMARK    3  A    between atoms: O_3  and  C_4
REMARK    4  A    between atoms: C_8  and  C_9
REMARK    5  A    between atoms: C_9  and  C_10
REMARK    6  A    between atoms: C_13  and  C_14
REMARK    7  A    between atoms: C_14  and  N_15
REMARK    8  A    between atoms: C_16  and  C_18
REMARK                            x       y       z     vdW  Elec       q    Type
REMARK                         _______ _______ _______ _____ _____    ______ ____
ROOT
ATOM      1  C   UNL     1       8.269  -2.166  -3.565  0.00  0.00    +0.000 A 
ATOM      2  C   UNL     1       8.806  -3.248  -2.859  0.00  0.00    +0.000 A 
ATOM      3  C   UNL     1      10.182  -3.424  -2.811  0.00  0.00    +0.000 A 
ATOM      4  C   UNL     1      10.999  -2.532  -3.499  0.00  0.00    +0.000 A 
ATOM      5  N   UNL     1      10.501  -1.487  -4.209  0.00  0.00    +0.000 NA
ATOM      6  C   UNL     1       9.159  -1.323  -4.218  0.00  0.00    +0.000 A 
ENDROOT
BRANCH   1   7
ATOM      7  C   UNL     1       6.792  -1.885  -3.561  0.00  0.00    +0.000 C 
BRANCH   7  12
ATOM      8  C   UNL     1       5.292   1.048  -1.920  0.00  0.00    +0.000 A 
ATOM      9  C   UNL     1       5.369   0.785  -0.563  0.00  0.00    +0.000 A 
ATOM     10  C   UNL     1       6.007  -0.381  -0.159  0.00  0.00    +0.000 A 
ATOM     11  C   UNL     1       6.502  -1.254  -1.123  0.00  0.00    +0.000 A 
ATOM     12  C   UNL     1       6.349  -0.934  -2.472  0.00  0.00    +0.000 A 
ATOM     13  N   UNL     1       5.757   0.215  -2.876  0.00  0.00    +0.000 NA
BRANCH   8  14
ATOM     14  O   UNL     1       4.657   2.214  -2.295  0.00  0.00    +0.000 OA
BRANCH  14  16
ATOM     15  C   UNL     1       4.337   3.931  -3.927  0.00  0.00    +0.000 C 
ATOM     16  C   UNL     1       5.119   2.683  -3.564  0.00  0.00    +0.000 C 
ENDBRANCH  14  16
ENDBRANCH   8  14
ENDBRANCH   7  12
ENDBRANCH   1   7
BRANCH   4  17
ATOM     17  C   UNL     1      12.499  -2.673  -3.433  0.00  0.00    +0.000 C 
BRANCH  17  18
ATOM     18  N   UNL     1      13.070  -1.913  -2.342  0.00  0.00    +0.000 N 
ATOM     19  C   UNL     1      13.381  -2.484  -1.136  0.00  0.00    +0.000 C 
ATOM     20  O   UNL     1      13.192  -3.678  -0.918  0.00  0.00    +0.000 OA
ATOM     21  H   UNL     1      13.012  -0.901  -2.426  0.00  0.00    +0.000 HD
BRANCH  19  22
ATOM     22  C   UNL     1      14.017  -1.619  -0.134  0.00  0.00    +0.000 A 
ATOM     23  C   UNL     1      14.778  -2.194   0.876  0.00  0.00    +0.000 A 
ATOM     24  S   UNL     1      15.466  -1.063   1.950  0.00  0.00    +0.000 S 
ATOM     25  C   UNL     1      14.738   0.239   1.127  0.00  0.00    +0.000 A 
ATOM     26  N   UNL     1      14.901   1.515   1.563  0.00  0.00    +0.000 NA
ATOM     27  C   UNL     1      14.275   2.404   0.861  0.00  0.00    +0.000 A 
ATOM     28  N   UNL     1      13.509   2.127  -0.237  0.00  0.00    +0.000 N 
ATOM     29  C   UNL     1      13.362   0.856  -0.746  0.00  0.00    +0.000 A 
ATOM     30  O   UNL     1      12.753   0.654  -1.791  0.00  0.00    +0.000 OA
ATOM     31  C   UNL     1      14.013  -0.183   0.028  0.00  0.00    +0.000 A 
ATOM     32  H   UNL     1      13.063   2.866  -0.757  0.00  0.00    +0.000 HD
ENDBRANCH  19  22
ENDBRANCH  17  18
ENDBRANCH   4  17
TORSDOF 7
