REMARK  Name = 
REMARK  10 active torsions:
REMARK  status: ('A' for Active; 'I' for Inactive)
REMARK    1  A    between atoms: C_1  and  C_2
REMARK    2  A    between atoms: C_2  and  C_3
REMARK    3  A    between atoms: C_3  and  N_4
REMARK    4  A    between atoms: C_3  and  C_20
REMARK    5  A    between atoms: N_4  and  C_5
REMARK    6  A    between atoms: C_5  and  C_6
REMARK    7  A    between atoms: C_9  and  C_10
REMARK    8  A    between atoms: C_10  and  N_11
REMARK    9  A    between atoms: N_11  and  C_12
REMARK   10  A    between atoms: C_12  and  C_13
REMARK                            x       y       z     vdW  Elec       q    Type
REMARK                         _______ _______ _______ _____ _____    ______ ____
ROOT
ATOM      1  C   UNL     1      -9.276  -6.597   0.913  0.00  0.00    +0.000 C 
ENDROOT
BRANCH   1   2
ATOM      2  C   UNL     1      -8.247  -6.599  -0.187  0.00  0.00    +0.000 A 
ATOM      3  C   UNL     1      -8.581  -6.466  -1.521  0.00  0.00    +0.000 A 
ATOM      4  N   UNL     1      -7.689  -6.492  -2.537  0.00  0.00    +0.000 NA
ATOM      5  C   UNL     1      -6.395  -6.662  -2.190  0.00  0.00    +0.000 A 
ATOM      6  N   UNL     1      -5.956  -6.768  -0.920  0.00  0.00    +0.000 NA
ATOM      7  C   UNL     1      -6.895  -6.731   0.048  0.00  0.00    +0.000 A 
BRANCH   5   8
ATOM      8  C   UNL     1      -5.351  -6.690  -3.301  0.00  0.00    +0.000 C 
BRANCH   8   9
ATOM      9  N   UNL     1      -5.337  -5.510  -4.195  0.00  0.00    +0.000 NA
ATOM     10  H   UNL     1      -6.273  -5.447  -4.595  0.00  0.00    +0.000 HD
BRANCH   9  11
ATOM     11  C   UNL     1      -5.042  -4.262  -3.471  0.00  0.00    +0.000 C 
BRANCH  11  12
ATOM     12  C   UNL     1      -5.037  -3.028  -4.418  0.00  0.00    +0.000 C 
ATOM     13  C   UNL     1      -6.358  -2.740  -5.126  0.00  0.00    +0.000 C 
ATOM     14  C   UNL     1      -7.127  -1.847  -4.170  0.00  0.00    +0.000 C 
ATOM     15  C   UNL     1      -6.068  -1.223  -3.276  0.00  0.00    +0.000 C 
ATOM     16  N   UNL     1      -4.781  -1.757  -3.720  0.00  0.00    +0.000 NA
ATOM     17  H   UNL     1      -4.144  -1.879  -2.936  0.00  0.00    +0.000 HD
ENDBRANCH  11  12
ENDBRANCH   9  11
ENDBRANCH   8   9
ENDBRANCH   5   8
ENDBRANCH   1   2
BRANCH   1  18
ATOM     18  N   UNL     1     -10.228  -7.698   0.737  0.00  0.00    +0.000 NA
ATOM     19  H   UNL     1      -9.702  -8.574   0.717  0.00  0.00    +0.000 HD
BRANCH  18  20
ATOM     20  C   UNL     1     -11.293  -7.804   1.767  0.00  0.00    +0.000 C 
BRANCH  20  21
ATOM     21  C   UNL     1     -11.972  -9.138   1.502  0.00  0.00    +0.000 A 
ATOM     22  C   UNL     1     -12.114 -10.134   2.459  0.00  0.00    +0.000 A 
ATOM     23  S   UNL     1     -12.077 -11.685   1.727  0.00  0.00    +0.000 S 
ATOM     24  C   UNL     1     -12.261 -11.006   0.175  0.00  0.00    +0.000 A 
ATOM     25  N   UNL     1     -12.232 -11.771  -0.948  0.00  0.00    +0.000 NA
ATOM     26  C   UNL     1     -12.576 -11.131  -2.012  0.00  0.00    +0.000 A 
ATOM     27  N   UNL     1     -12.983  -9.823  -2.062  0.00  0.00    +0.000 N 
ATOM     28  C   UNL     1     -12.968  -8.987  -0.951  0.00  0.00    +0.000 A 
ATOM     29  O   UNL     1     -13.425  -7.857  -1.008  0.00  0.00    +0.000 OA
ATOM     30  C   UNL     1     -12.478  -9.640   0.252  0.00  0.00    +0.000 A 
ATOM     31  H   UNL     1     -13.384  -9.434  -2.896  0.00  0.00    +0.000 HD
ENDBRANCH  20  21
BRANCH  20  33
ATOM     32  C   UNL     1     -13.314  -6.550   2.810  0.00  0.00    +0.000 C 
ATOM     33  C   UNL     1     -12.228  -6.595   1.747  0.00  0.00    +0.000 C 
ENDBRANCH  20  33
ENDBRANCH  18  20
ENDBRANCH   1  18
TORSDOF 9
