REMARK  Name = 
REMARK  8 active torsions:
REMARK  status: ('A' for Active; 'I' for Inactive)
REMARK    1  A    between atoms: N_1  and  C_2
REMARK    2  A    between atoms: C_2  and  C_3
REMARK    3  A    between atoms: C_2  and  C_24
REMARK    4  A    between atoms: C_3  and  C_4
REMARK    5  A    between atoms: C_7  and  C_8
REMARK    6  A    between atoms: C_8  and  N_9
REMARK    7  A    between atoms: C_10  and  C_12
REMARK    8  A    between atoms: N_26  and  C_27
REMARK                            x       y       z     vdW  Elec       q    Type
REMARK                         _______ _______ _______ _____ _____    ______ ____
ROOT
ATOM      1  C   UNL     1       2.740   1.260   2.081  0.00  0.00    +0.000 A 
ATOM      2  C   UNL     1       2.185   1.152   3.362  0.00  0.00    +0.000 A 
ATOM      3  C   UNL     1       1.838   2.292   4.095  0.00  0.00    +0.000 A 
ATOM      4  C   UNL     1       2.040   3.571   3.560  0.00  0.00    +0.000 A 
ATOM      5  C   UNL     1       2.600   3.674   2.281  0.00  0.00    +0.000 A 
ATOM      6  C   UNL     1       2.941   2.537   1.546  0.00  0.00    +0.000 A 
ENDROOT
BRANCH   1   7
ATOM      7  C   UNL     1       3.085   0.017   1.286  0.00  0.00    +0.000 C 
BRANCH   7   8
ATOM      8  C   UNL     1       1.936  -0.517   0.397  0.00  0.00    +0.000 C 
BRANCH   8   9
ATOM      9  C   UNL     1       0.722  -0.972   1.238  0.00  0.00    +0.000 C 
ATOM     10  O   UNL     1       0.850  -1.427   2.382  0.00  0.00    +0.000 OA
ATOM     11  N   UNL     1      -0.509  -0.880   0.632  0.00  0.00    +0.000 N 
ATOM     12  H   UNL     1      -0.570  -0.584  -0.337  0.00  0.00    +0.000 HD
BRANCH  11  13
ATOM     13  C   UNL     1      -1.689  -1.275   1.335  0.00  0.00    +0.000 C 
ATOM     14  C   UNL     1      -1.988  -2.769   1.187  0.00  0.00    +0.000 C 
ATOM     15  C   UNL     1      -3.273  -3.122   1.925  0.00  0.00    +0.000 C 
ATOM     16  C   UNL     1      -4.412  -2.228   1.442  0.00  0.00    +0.000 C 
ATOM     17  C   UNL     1      -4.021  -0.750   1.499  0.00  0.00    +0.000 C 
ATOM     18  N   UNL     1      -2.767  -0.471   0.784  0.00  0.00    +0.000 NA
ATOM     19  H   UNL     1      -2.525   0.507   0.934  0.00  0.00    +0.000 HD
ENDBRANCH  11  13
ENDBRANCH   8   9
BRANCH   8  20
ATOM     20  N   UNL     1       1.504   0.471  -0.626  0.00  0.00    +0.000 NA
ATOM     21  H   UNL     1       2.340   0.878  -1.047  0.00  0.00    +0.000 HD
ATOM     22  H   UNL     1       1.069   1.245  -0.113  0.00  0.00    +0.000 HD
ENDBRANCH   8  20
ENDBRANCH   7   8
ENDBRANCH   1   7
BRANCH   4  23
ATOM     23  C   UNL     1       1.692   4.829   4.317  0.00  0.00    +0.000 C 
BRANCH  23  24
ATOM     24  N   UNL     1       2.795   5.321   5.099  0.00  0.00    +0.000 N 
ATOM     25  C   UNL     1       2.674   6.456   5.860  0.00  0.00    +0.000 C 
ATOM     26  O   UNL     1       1.641   7.112   5.935  0.00  0.00    +0.000 OA
ATOM     27  H   UNL     1       3.722   5.059   4.780  0.00  0.00    +0.000 HD
BRANCH  25  28
ATOM     28  C   UNL     1       3.876   6.818   6.640  0.00  0.00    +0.000 A 
ATOM     29  C   UNL     1       3.752   7.510   7.835  0.00  0.00    +0.000 A 
ATOM     30  S   UNL     1       5.242   7.808   8.610  0.00  0.00    +0.000 S 
ATOM     31  C   UNL     1       6.111   7.059   7.350  0.00  0.00    +0.000 A 
ATOM     32  N   UNL     1       7.471   6.999   7.373  0.00  0.00    +0.000 NA
ATOM     33  C   UNL     1       7.998   6.428   6.342  0.00  0.00    +0.000 A 
ATOM     34  N   UNL     1       7.286   5.900   5.293  0.00  0.00    +0.000 N 
ATOM     35  C   UNL     1       5.914   5.888   5.257  0.00  0.00    +0.000 A 
ATOM     36  O   UNL     1       5.308   5.328   4.347  0.00  0.00    +0.000 OA
ATOM     37  C   UNL     1       5.276   6.555   6.372  0.00  0.00    +0.000 A 
ATOM     38  H   UNL     1       7.757   5.439   4.529  0.00  0.00    +0.000 HD
ENDBRANCH  25  28
ENDBRANCH  23  24
ENDBRANCH   4  23
TORSDOF 8
