REMARK  Name = 
REMARK  5 active torsions:
REMARK  status: ('A' for Active; 'I' for Inactive)
REMARK    1  A    between atoms: C_2  and  C_4
REMARK    2  A    between atoms: C_7  and  O_8
REMARK    3  A    between atoms: O_8  and  C_9
REMARK    4  A    between atoms: C_9  and  C_10
REMARK    5  A    between atoms: C_10  and  C_11
REMARK                            x       y       z     vdW  Elec       q    Type
REMARK                         _______ _______ _______ _____ _____    ______ ____
ROOT
ATOM      1  C   UNL     1       2.792  -1.189  -1.008  0.00  0.00    +0.000 A 
ATOM      2  C   UNL     1       4.066  -1.291  -0.444  0.00  0.00    +0.000 A 
ATOM      3  C   UNL     1       4.934  -2.288  -0.898  0.00  0.00    +0.000 A 
ATOM      4  C   UNL     1       4.502  -3.127  -1.915  0.00  0.00    +0.000 A 
ATOM      5  N   UNL     1       3.267  -3.070  -2.455  0.00  0.00    +0.000 NA
ATOM      6  C   UNL     1       2.433  -2.113  -1.980  0.00  0.00    +0.000 A 
ENDROOT
BRANCH   1   8
ATOM      7  N   UNL     1       2.305   1.039  -0.182  0.00  0.00    +0.000 N 
ATOM      8  C   UNL     1       1.811  -0.155  -0.624  0.00  0.00    +0.000 C 
ATOM      9  O   UNL     1       0.606  -0.338  -0.748  0.00  0.00    +0.000 OA
ATOM     10  H   UNL     1       1.625   1.780  -0.058  0.00  0.00    +0.000 HD
ATOM     11  H   UNL     1       3.268   1.313  -0.319  0.00  0.00    +0.000 HD
ENDBRANCH   1   8
BRANCH   4  12
ATOM     12  O   UNL     1       5.393  -4.082  -2.366  0.00  0.00    +0.000 OA
BRANCH  12  13
ATOM     13  C   UNL     1       5.078  -4.521  -3.695  0.00  0.00    +0.000 C 
BRANCH  13  14
ATOM     14  C   UNL     1       6.062  -5.618  -4.099  0.00  0.00    +0.000 C 
BRANCH  14  15
ATOM     15  C   UNL     1       5.850  -6.078  -5.519  0.00  0.00    +0.000 A 
ATOM     16  C   UNL     1       6.516  -5.458  -6.579  0.00  0.00    +0.000 A 
ATOM     17  C   UNL     1       6.276  -5.905  -7.870  0.00  0.00    +0.000 A 
ATOM     18  N   UNL     1       5.426  -6.910  -8.173  0.00  0.00    +0.000 NA
ATOM     19  C   UNL     1       4.787  -7.492  -7.135  0.00  0.00    +0.000 A 
ATOM     20  C   UNL     1       4.959  -7.114  -5.811  0.00  0.00    +0.000 A 
ENDBRANCH  14  15
ENDBRANCH  13  14
ENDBRANCH  12  13
ENDBRANCH   4  12
TORSDOF 5
