REMARK  Name = 
REMARK  8 active torsions:
REMARK  status: ('A' for Active; 'I' for Inactive)
REMARK    1  A    between atoms: C_1  and  C_2
REMARK    2  A    between atoms: C_2  and  C_3
REMARK    3  A    between atoms: C_2  and  C_16
REMARK    4  A    between atoms: C_3  and  N_4
REMARK    5  A    between atoms: N_4  and  C_5
REMARK    6  A    between atoms: C_8  and  C_9
REMARK    7  A    between atoms: C_13  and  C_14
REMARK    8  A    between atoms: C_14  and  N_15
REMARK                            x       y       z     vdW  Elec       q    Type
REMARK                         _______ _______ _______ _____ _____    ______ ____
ROOT
ATOM      1  C   UNL     1       3.225  -3.668   0.608  0.00  0.00    +0.000 A 
ATOM      2  N   UNL     1       3.959  -3.866  -0.515  0.00  0.00    +0.000 NA
ATOM      3  C   UNL     1       4.529  -5.075  -0.734  0.00  0.00    +0.000 A 
ATOM      4  C   UNL     1       4.438  -6.135   0.149  0.00  0.00    +0.000 A 
ATOM      5  C   UNL     1       3.698  -5.933   1.307  0.00  0.00    +0.000 A 
ATOM      6  C   UNL     1       3.052  -4.701   1.550  0.00  0.00    +0.000 A 
ENDROOT
BRANCH   4   7
ATOM      7  C   UNL     1       5.080  -7.418  -0.194  0.00  0.00    +0.000 C 
ATOM      8  N   UNL     1       5.441  -8.240   0.839  0.00  0.00    +0.000 N 
ATOM      9  O   UNL     1       5.305  -7.726  -1.356  0.00  0.00    +0.000 OA
ATOM     10  H   UNL     1       5.420  -7.957   1.811  0.00  0.00    +0.000 HD
ATOM     11  H   UNL     1       5.924  -9.091   0.597  0.00  0.00    +0.000 HD
ENDBRANCH   4   7
BRANCH   1  12
ATOM     12  N   UNL     1       2.632  -2.394   0.798  0.00  0.00    +0.000 N 
ATOM     13  H   UNL     1       1.633  -2.536   0.895  0.00  0.00    +0.000 HD
BRANCH  12  14
ATOM     14  C   UNL     1       2.929  -1.479  -0.304  0.00  0.00    +0.000 C 
BRANCH  14  16
ATOM     15  C   UNL     1       0.762  -0.094   0.033  0.00  0.00    +0.000 C 
ATOM     16  C   UNL     1       2.253  -0.132  -0.138  0.00  0.00    +0.000 C 
BRANCH  16  17
ATOM     17  C   UNL     1       2.920   1.021  -0.897  0.00  0.00    +0.000 C 
ATOM     18  C   UNL     1       2.660   2.420  -0.303  0.00  0.00    +0.000 C 
ATOM     19  C   UNL     1       3.389   3.513  -1.095  0.00  0.00    +0.000 C 
ATOM     20  C   UNL     1       3.032   3.479  -2.578  0.00  0.00    +0.000 C 
ATOM     21  C   UNL     1       3.269   2.097  -3.177  0.00  0.00    +0.000 C 
ATOM     22  C   UNL     1       2.538   1.009  -2.391  0.00  0.00    +0.000 C 
ENDBRANCH  16  17
ENDBRANCH  14  16
ENDBRANCH  12  14
ENDBRANCH   1  12
BRANCH   6  23
ATOM     23  C   UNL     1       2.293  -4.510   2.843  0.00  0.00    +0.000 C 
BRANCH  23  24
ATOM     24  N   UNL     1       1.676  -5.748   3.334  0.00  0.00    +0.000 NA
ATOM     25  H   UNL     1       0.966  -6.052   2.668  0.00  0.00    +0.000 HD
ATOM     26  H   UNL     1       1.180  -5.550   4.203  0.00  0.00    +0.000 HD
ENDBRANCH  23  24
ENDBRANCH   6  23
TORSDOF 7
