REMARK  Name = 
REMARK  8 active torsions:
REMARK  status: ('A' for Active; 'I' for Inactive)
REMARK    1  A    between atoms: C_1  and  N_2
REMARK    2  A    between atoms: N_5  and  C_6
REMARK    3  A    between atoms: C_10  and  C_11
REMARK    4  A    between atoms: C_11  and  C_12
REMARK    5  A    between atoms: C_11  and  C_13
REMARK    6  A    between atoms: C_11  and  C_14
REMARK    7  A    between atoms: C_14  and  N_15
REMARK    8  A    between atoms: C_19  and  C_20
REMARK                            x       y       z     vdW  Elec       q    Type
REMARK                         _______ _______ _______ _____ _____    ______ ____
ROOT
ATOM      1  C   UNL     1      -6.617   1.143   0.111  0.00  0.00    +0.000 C 
ATOM      2  C   UNL     1      -7.646   0.022  -0.175  0.00  0.00    +0.000 C 
ATOM      3  C   UNL     1      -7.263   2.157   1.081  0.00  0.00    +0.000 C 
ENDROOT
BRANCH   1   8
ATOM      4  C   UNL     1      -3.043  -0.076   0.900  0.00  0.00    +0.000 A 
ATOM      5  C   UNL     1      -3.308  -0.654   2.140  0.00  0.00    +0.000 A 
ATOM      6  C   UNL     1      -4.600  -0.651   2.629  0.00  0.00    +0.000 A 
ATOM      7  N   UNL     1      -5.638  -0.084   1.989  0.00  0.00    +0.000 NA
ATOM      8  C   UNL     1      -5.404   0.493   0.784  0.00  0.00    +0.000 A 
ATOM      9  C   UNL     1      -4.129   0.468   0.210  0.00  0.00    +0.000 A 
BRANCH   4  14
ATOM     10  C   UNL     1       2.166  -0.990  -0.899  0.00  0.00    +0.000 C 
ATOM     11  N   UNL     1       0.972  -0.198  -0.612  0.00  0.00    +0.000 NA
ATOM     12  C   UNL     1      -0.180  -0.710  -1.393  0.00  0.00    +0.000 C 
ATOM     13  C   UNL     1      -1.505   0.017  -1.062  0.00  0.00    +0.000 C 
ATOM     14  N   UNL     1      -1.759  -0.112   0.382  0.00  0.00    +0.000 N 
ATOM     15  C   UNL     1      -0.667   0.465   1.193  0.00  0.00    +0.000 C 
ATOM     16  C   UNL     1       0.655  -0.253   0.836  0.00  0.00    +0.000 C 
ENDBRANCH   4  14
ENDBRANCH   1   8
BRANCH   1  17
ATOM     17  C   UNL     1      -6.334   1.853  -1.241  0.00  0.00    +0.000 C 
BRANCH  17  18
ATOM     18  N   UNL     1      -5.472   3.031  -1.121  0.00  0.00    +0.000 N 
ATOM     19  C   UNL     1      -5.167   3.603  -2.346  0.00  0.00    +0.000 A 
ATOM     20  N   UNL     1      -6.094   3.627  -3.312  0.00  0.00    +0.000 NA
ATOM     21  C   UNL     1      -5.752   4.177  -4.489  0.00  0.00    +0.000 A 
ATOM     22  C   UNL     1      -4.510   4.693  -4.745  0.00  0.00    +0.000 A 
ATOM     23  C   UNL     1      -3.624   4.619  -3.701  0.00  0.00    +0.000 A 
ATOM     24  N   UNL     1      -3.921   4.079  -2.501  0.00  0.00    +0.000 NA
ATOM     25  H   UNL     1      -4.594   2.915  -0.626  0.00  0.00    +0.000 HD
BRANCH  22  26
ATOM     26  C   UNL     1      -4.158   5.282  -6.063  0.00  0.00    +0.000 C 
ATOM     27  F   UNL     1      -5.174   5.225  -6.966  0.00  0.00    +0.000 F 
ATOM     28  F   UNL     1      -3.810   6.593  -5.975  0.00  0.00    +0.000 F 
ATOM     29  F   UNL     1      -3.105   4.651  -6.649  0.00  0.00    +0.000 F 
ENDBRANCH  22  26
ENDBRANCH  17  18
ENDBRANCH   1  17
TORSDOF 5
