REMARK  Name = 
REMARK  8 active torsions:
REMARK  status: ('A' for Active; 'I' for Inactive)
REMARK    1  A    between atoms: C_1  and  C_2
REMARK    2  A    between atoms: C_4  and  C_5
REMARK    3  A    between atoms: C_10  and  N_11
REMARK    4  A    between atoms: N_11  and  C_12
REMARK    5  A    between atoms: C_12  and  C_13
REMARK    6  A    between atoms: C_17  and  C_18
REMARK    7  A    between atoms: CA_22  and  C_23
REMARK    8  A    between atoms: C_23  and  O_24
REMARK                            x       y       z     vdW  Elec       q    Type
REMARK                         _______ _______ _______ _____ _____    ______ ____
ROOT
ATOM      1  C   UNL     1       2.348  -2.587  -0.030  0.00  0.00    +0.000 C 
ENDROOT
BRANCH   1   2
ATOM      2  C   UNL     1       2.797  -4.041  -0.009  0.00  0.00    +0.000 A 
ATOM      3  C   UNL     1       4.166  -4.316  -0.013  0.00  0.00    +0.000 A 
ATOM      4  C   UNL     1       4.587  -5.636   0.034  0.00  0.00    +0.000 A 
ATOM      5  C   UNL     1       3.636  -6.648   0.066  0.00  0.00    +0.000 A 
ATOM      6  C   UNL     1       2.280  -6.324   0.051  0.00  0.00    +0.000 A 
ATOM      7  N   UNL     1       1.857  -5.028   0.019  0.00  0.00    +0.000 NA
BRANCH   6   8
ATOM      8  C   UNL     1       1.219  -7.357   0.092  0.00  0.00    +0.000 A 
ATOM      9  C   UNL     1       1.402  -8.629  -0.472  0.00  0.00    +0.000 A 
ATOM     10  C   UNL     1       0.379  -9.564  -0.386  0.00  0.00    +0.000 A 
ATOM     11  N   UNL     1      -0.810  -9.331   0.213  0.00  0.00    +0.000 NA
ATOM     12  CA  UNL     1      -0.997  -8.099   0.746  0.00  0.00    +0.000 A 
ATOM     13  C   UNL     1      -0.012  -7.108   0.706  0.00  0.00    +0.000 A 
BRANCH  12  14
ATOM     14  C   UNL     1      -2.343  -7.812   1.373  0.00  0.00    +0.000 C 
BRANCH  14  15
ATOM     15  O   UNL     1      -2.656  -8.755   2.392  0.00  0.00    +0.000 OA
ATOM     16  H   UNL     1      -2.425  -9.623   2.012  0.00  0.00    +0.000 HD
ENDBRANCH  14  15
ENDBRANCH  12  14
ENDBRANCH   6   8
ENDBRANCH   1   2
BRANCH   1  17
ATOM     17  N   UNL     1       2.338  -2.072  -1.405  0.00  0.00    +0.000 N 
ATOM     18  H   UNL     1       1.594  -2.503  -1.943  0.00  0.00    +0.000 HD
BRANCH  17  25
ATOM     19  C   UNL     1       1.740  -0.825  -4.012  0.00  0.00    +0.000 C 
ATOM     20  C   UNL     1       2.161  -0.070  -2.784  0.00  0.00    +0.000 A 
ATOM     21  C   UNL     1       2.376   1.315  -2.903  0.00  0.00    +0.000 A 
ATOM     22  C   UNL     1       2.779   2.072  -1.807  0.00  0.00    +0.000 A 
ATOM     23  C   UNL     1       2.925   1.396  -0.613  0.00  0.00    +0.000 A 
ATOM     24  N   UNL     1       2.722   0.061  -0.459  0.00  0.00    +0.000 NA
ATOM     25  C   UNL     1       2.356  -0.678  -1.533  0.00  0.00    +0.000 A 
BRANCH  22  26
ATOM     26  C   UNL     1       3.035   3.523  -1.991  0.00  0.00    +0.000 C 
ATOM     27  N   UNL     1       3.437   4.270  -0.921  0.00  0.00    +0.000 N 
ATOM     28  O   UNL     1       2.894   4.057  -3.085  0.00  0.00    +0.000 OA
ATOM     29  H   UNL     1       3.589   3.937   0.017  0.00  0.00    +0.000 HD
ATOM     30  H   UNL     1       3.600   5.253  -1.100  0.00  0.00    +0.000 HD
ENDBRANCH  22  26
ENDBRANCH  17  25
ENDBRANCH   1  17
TORSDOF 7
