REMARK  Name = 
REMARK  7 active torsions:
REMARK  status: ('A' for Active; 'I' for Inactive)
REMARK    1  A    between atoms: N_1  and  C_2
REMARK    2  A    between atoms: C_2  and  C_3
REMARK    3  A    between atoms: C_3  and  C_4
REMARK    4  A    between atoms: C_7  and  C_8
REMARK    5  A    between atoms: C_8  and  N_9
REMARK    6  A    between atoms: CA_14  and  C_15
REMARK    7  A    between atoms: C_15  and  OXT_17
REMARK                            x       y       z     vdW  Elec       q    Type
REMARK                         _______ _______ _______ _____ _____    ______ ____
ROOT
ATOM      1  N   UNL     1       9.154   3.025  -0.695  0.00  0.00    +0.000 N 
ATOM      2  C   UNL     1       9.435   3.801   0.398  0.00  0.00    +0.000 A 
ATOM      3  N   UNL     1      10.019   4.926   0.060  0.00  0.00    +0.000 NA
ATOM      4  C   UNL     1      10.138   4.882  -1.306  0.00  0.00    +0.000 A 
ATOM      5  C   UNL     1      10.729   5.803  -2.167  0.00  0.00    +0.000 A 
ATOM      6  CA  UNL     1      10.713   5.444  -3.503  0.00  0.00    +0.000 A 
ATOM      7  N   UNL     1      10.160   4.300  -4.020  0.00  0.00    +0.000 NA
ATOM      8  C   UNL     1       9.586   3.419  -3.168  0.00  0.00    +0.000 A 
ATOM      9  C   UNL     1       9.588   3.706  -1.811  0.00  0.00    +0.000 A 
ENDROOT
BRANCH   6  10
ATOM     10  C   UNL     1      11.371   6.328  -4.512  0.00  0.00    +0.000 C 
ATOM     11  O   UNL     1      11.938   7.379  -4.266  0.00  0.00    +0.000 OA
BRANCH  10  12
ATOM     12  OXT UNL     1      11.264   5.787  -5.751  0.00  0.00    +0.000 OA
ATOM     13  HXT UNL     1      10.767   4.938  -5.676  0.00  0.00    +0.000 HD
ENDBRANCH  10  12
ENDBRANCH   6  10
BRANCH   1  14
ATOM     14  C   UNL     1       8.676   1.651  -0.639  0.00  0.00    +0.000 C 
BRANCH  14  18
ATOM     15  C   UNL     1       4.352   1.442  -0.497  0.00  0.00    +0.000 A 
ATOM     16  C   UNL     1       5.021   1.414  -1.726  0.00  0.00    +0.000 A 
ATOM     17  C   UNL     1       6.418   1.467  -1.779  0.00  0.00    +0.000 A 
ATOM     18  C   UNL     1       7.173   1.560  -0.602  0.00  0.00    +0.000 A 
ATOM     19  C   UNL     1       6.499   1.564   0.629  0.00  0.00    +0.000 A 
ATOM     20  C   UNL     1       5.105   1.497   0.681  0.00  0.00    +0.000 A 
BRANCH  15  21
ATOM     21  C   UNL     1       2.844   1.395  -0.445  0.00  0.00    +0.000 C 
BRANCH  21  22
ATOM     22  C   UNL     1       2.317  -0.041  -0.373  0.00  0.00    +0.000 C 
BRANCH  22  23
ATOM     23  N   UNL     1       0.856  -0.062  -0.332  0.00  0.00    +0.000 NA
ATOM     24  H   UNL     1       0.533  -1.029  -0.324  0.00  0.00    +0.000 HD
ATOM     25  H   UNL     1       0.482   0.356  -1.183  0.00  0.00    +0.000 HD
ENDBRANCH  22  23
ENDBRANCH  21  22
ENDBRANCH  15  21
ENDBRANCH  14  18
ENDBRANCH   1  14
TORSDOF 7
