REMARK  Name = 
REMARK  5 active torsions:
REMARK  status: ('A' for Active; 'I' for Inactive)
REMARK    1  A    between atoms: C_2  and  C_3
REMARK    2  A    between atoms: C_7  and  N_8
REMARK    3  A    between atoms: N_8  and  C_9
REMARK    4  A    between atoms: C_9  and  C_10
REMARK    5  A    between atoms: C_14  and  C_15
REMARK                            x       y       z     vdW  Elec       q    Type
REMARK                         _______ _______ _______ _____ _____    ______ ____
ROOT
ATOM      1  C   UNL     1      -1.640   3.705   0.052  0.00  0.00    +0.000 C 
ATOM      2  C   UNL     1      -0.526   4.557  -0.564  0.00  0.00    +0.000 C 
ATOM      3  C   UNL     1      -0.346   3.980   0.797  0.00  0.00    +0.000 C 
ENDROOT
BRANCH   1   4
ATOM      4  C   UNL     1      -2.889   4.464   0.501  0.00  0.00    +0.000 A 
ATOM      5  C   UNL     1      -3.533   4.173   1.710  0.00  0.00    +0.000 A 
ATOM      6  C   UNL     1      -4.555   4.990   2.192  0.00  0.00    +0.000 A 
ATOM      7  C   UNL     1      -4.939   6.127   1.477  0.00  0.00    +0.000 A 
ATOM      8  C   UNL     1      -4.349   6.445   0.245  0.00  0.00    +0.000 A 
ATOM      9  C   UNL     1      -3.371   5.562  -0.243  0.00  0.00    +0.000 A 
BRANCH   8  10
ATOM     10  C   UNL     1      -4.647   7.704  -0.466  0.00  0.00    +0.000 A 
ATOM     11  C   UNL     1      -4.706   7.792  -1.865  0.00  0.00    +0.000 A 
ATOM     12  C   UNL     1      -4.925   9.021  -2.490  0.00  0.00    +0.000 A 
ATOM     13  C   UNL     1      -5.089  10.143  -1.698  0.00  0.00    +0.000 A 
ATOM     14  N   UNL     1      -5.040  10.117  -0.352  0.00  0.00    +0.000 NA
ATOM     15  C   UNL     1      -4.815   8.909   0.222  0.00  0.00    +0.000 A 
ENDBRANCH   8  10
ENDBRANCH   1   4
BRANCH   1  16
ATOM     16  N   UNL     1      -1.923   2.416  -0.621  0.00  0.00    +0.000 N 
ATOM     17  H   UNL     1      -2.618   2.511  -1.359  0.00  0.00    +0.000 HD
BRANCH  16  22
ATOM     18  C   UNL     1      -1.489  -0.420   1.789  0.00  0.00    +0.000 A 
ATOM     19  C   UNL     1      -2.338  -1.328   1.181  0.00  0.00    +0.000 A 
ATOM     20  N   UNL     1      -3.056  -1.054   0.066  0.00  0.00    +0.000 NA
ATOM     21  C   UNL     1      -2.891   0.183  -0.461  0.00  0.00    +0.000 A 
ATOM     22  C   UNL     1      -2.079   1.193   0.074  0.00  0.00    +0.000 A 
ATOM     23  C   UNL     1      -1.367   0.860   1.223  0.00  0.00    +0.000 A 
BRANCH  18  25
ATOM     24  N   UNL     1      -0.123  -1.096   3.881  0.00  0.00    +0.000 NA
ATOM     25  C   UNL     1      -0.737  -0.792   2.944  0.00  0.00    +0.000 C 
ENDBRANCH  18  25
ENDBRANCH  16  22
ENDBRANCH   1  16
TORSDOF 5
