REMARK  Name = 
REMARK  10 active torsions:
REMARK  status: ('A' for Active; 'I' for Inactive)
REMARK    1  A    between atoms: C_1  and  O_2
REMARK    2  A    between atoms: O_2  and  C_3
REMARK    3  A    between atoms: C_3  and  C_5
REMARK    4  A    between atoms: C_8  and  O_9
REMARK    5  A    between atoms: O_9  and  C_10
REMARK    6  A    between atoms: C_10  and  C_11
REMARK    7  A    between atoms: C_11  and  C_12
REMARK    8  A    between atoms: C_11  and  C_13
REMARK    9  A    between atoms: C_11  and  C_14
REMARK   10  A    between atoms: C_18  and  C_19
REMARK                            x       y       z     vdW  Elec       q    Type
REMARK                         _______ _______ _______ _____ _____    ______ ____
ROOT
ATOM      1  C   UNL     1       9.451  -0.901   1.984  0.00  0.00    +0.000 C 
ENDROOT
BRANCH   1   2
ATOM      2  C   UNL     1      10.987  -0.805   1.750  0.00  0.00    +0.000 C 
ATOM      3  C   UNL     1      11.329  -1.162   0.288  0.00  0.00    +0.000 C 
ATOM      4  C   UNL     1      11.444   0.648   2.001  0.00  0.00    +0.000 C 
BRANCH   2   5
ATOM      5  C   UNL     1      11.690  -1.790   2.700  0.00  0.00    +0.000 A 
ATOM      6  C   UNL     1      11.408  -3.160   2.620  0.00  0.00    +0.000 A 
ATOM      7  N   UNL     1      11.947  -4.084   3.444  0.00  0.00    +0.000 NA
ATOM      8  C   UNL     1      12.803  -3.596   4.376  0.00  0.00    +0.000 A 
ATOM      9  C   UNL     1      13.115  -2.242   4.477  0.00  0.00    +0.000 A 
ATOM     10  N   UNL     1      12.561  -1.315   3.637  0.00  0.00    +0.000 NA
BRANCH   9  11
ATOM     11  C   UNL     1      14.073  -1.756   5.525  0.00  0.00    +0.000 C 
ATOM     12  N   UNL     1      14.357  -0.413   5.591  0.00  0.00    +0.000 N 
ATOM     13  O   UNL     1      14.611  -2.522   6.321  0.00  0.00    +0.000 OA
ATOM     14  H   UNL     1      13.982   0.286   4.964  0.00  0.00    +0.000 HD
ATOM     15  H   UNL     1      15.018  -0.121   6.299  0.00  0.00    +0.000 HD
ENDBRANCH   9  11
ENDBRANCH   2   5
ENDBRANCH   1   2
BRANCH   1  16
ATOM     16  O   UNL     1       8.712  -0.007   1.135  0.00  0.00    +0.000 OA
BRANCH  16  20
ATOM     17  C   UNL     1       4.518   0.148   1.324  0.00  0.00    +0.000 A 
ATOM     18  C   UNL     1       5.254   0.954   0.444  0.00  0.00    +0.000 A 
ATOM     19  C   UNL     1       6.658   0.867   0.420  0.00  0.00    +0.000 A 
ATOM     20  C   UNL     1       7.343  -0.019   1.264  0.00  0.00    +0.000 A 
ATOM     21  C   UNL     1       6.592  -0.810   2.138  0.00  0.00    +0.000 A 
ATOM     22  F   UNL     1       7.181  -1.678   2.974  0.00  0.00    +0.000 F 
ATOM     23  C   UNL     1       5.201  -0.724   2.169  0.00  0.00    +0.000 A 
ATOM     24  F   UNL     1       4.535  -1.516   3.023  0.00  0.00    +0.000 F 
BRANCH  17  25
ATOM     25  C   UNL     1       3.048   0.230   1.431  0.00  0.00    +0.000 C 
ATOM     26  O   UNL     1       2.434  -0.014   2.469  0.00  0.00    +0.000 OA
BRANCH  25  28
ATOM     27  C   UNL     1       1.050   0.649   0.298  0.00  0.00    +0.000 C 
ATOM     28  O   UNL     1       2.483   0.585   0.253  0.00  0.00    +0.000 OA
ENDBRANCH  25  28
ENDBRANCH  17  25
ENDBRANCH  16  20
ENDBRANCH   1  16
TORSDOF 7
