REMARK  Name = 
REMARK  9 active torsions:
REMARK  status: ('A' for Active; 'I' for Inactive)
REMARK    1  A    between atoms: C_1  and  C_2
REMARK    2  A    between atoms: C_2  and  N_3
REMARK    3  A    between atoms: C_2  and  C_19
REMARK    4  A    between atoms: N_3  and  C_4
REMARK    5  A    between atoms: C_7  and  C_8
REMARK    6  A    between atoms: C_8  and  C_9
REMARK    7  A    between atoms: C_9  and  C_10
REMARK    8  A    between atoms: C_10  and  N_11
REMARK    9  A    between atoms: C_10  and  C_12
REMARK                            x       y       z     vdW  Elec       q    Type
REMARK                         _______ _______ _______ _____ _____    ______ ____
ROOT
ATOM      1  C   UNL     1       0.406  -0.606   1.112  0.00  0.00    +0.000 A 
ATOM      2  C   UNL     1       0.987  -1.145   2.266  0.00  0.00    +0.000 A 
ATOM      3  C   UNL     1       0.206  -1.618   3.320  0.00  0.00    +0.000 A 
ATOM      4  C   UNL     1      -1.172  -1.540   3.220  0.00  0.00    +0.000 A 
ATOM      5  N   UNL     1      -1.781  -1.030   2.121  0.00  0.00    +0.000 NA
ATOM      6  C   UNL     1      -0.982  -0.588   1.104  0.00  0.00    +0.000 A 
ENDROOT
BRANCH   1   7
ATOM      7  N   UNL     1       1.250  -0.163   0.111  0.00  0.00    +0.000 N 
ATOM      8  H   UNL     1       1.909   0.540   0.465  0.00  0.00    +0.000 HD
BRANCH   7  10
ATOM      9  C   UNL     1       0.364  -1.136  -1.995  0.00  0.00    +0.000 C 
ATOM     10  C   UNL     1       0.934   0.105  -1.295  0.00  0.00    +0.000 C 
BRANCH  10  11
ATOM     11  C   UNL     1       0.169   1.373  -1.629  0.00  0.00    +0.000 A 
ATOM     12  C   UNL     1      -1.051   1.425  -2.285  0.00  0.00    +0.000 A 
ATOM     13  S   UNL     1      -1.601   3.011  -2.585  0.00  0.00    +0.000 S 
ATOM     14  C   UNL     1      -0.228   3.684  -1.839  0.00  0.00    +0.000 A 
ATOM     15  N   UNL     1      -0.066   5.031  -1.750  0.00  0.00    +0.000 NA
ATOM     16  C   UNL     1       1.022   5.395  -1.168  0.00  0.00    +0.000 A 
ATOM     17  N   UNL     1       1.973   4.539  -0.671  0.00  0.00    +0.000 N 
ATOM     18  C   UNL     1       1.855   3.164  -0.727  0.00  0.00    +0.000 A 
ATOM     19  O   UNL     1       2.709   2.416  -0.268  0.00  0.00    +0.000 OA
ATOM     20  C   UNL     1       0.637   2.715  -1.374  0.00  0.00    +0.000 A 
ATOM     21  H   UNL     1       2.806   4.896  -0.220  0.00  0.00    +0.000 HD
ENDBRANCH  10  11
ENDBRANCH   7  10
ENDBRANCH   1   7
BRANCH   4  22
ATOM     22  C   UNL     1      -2.050  -1.972   4.363  0.00  0.00    +0.000 C 
BRANCH  22  23
ATOM     23  C   UNL     1      -2.303  -0.857   5.385  0.00  0.00    +0.000 C 
BRANCH  23  24
ATOM     24  C   UNL     1      -3.042   0.389   4.848  0.00  0.00    +0.000 C 
BRANCH  24  25
ATOM     25  C   UNL     1      -3.179   1.402   5.975  0.00  0.00    +0.000 A 
ATOM     26  N   UNL     1      -3.862   1.187   7.086  0.00  0.00    +0.000 NA
ATOM     27  C   UNL     1      -3.800   2.303   7.894  0.00  0.00    +0.000 A 
ATOM     28  C   UNL     1      -3.052   3.352   7.406  0.00  0.00    +0.000 A 
ATOM     29  S   UNL     1      -2.408   2.939   5.873  0.00  0.00    +0.000 S 
ENDBRANCH  24  25
BRANCH  24  30
ATOM     30  N   UNL     1      -4.377   0.056   4.328  0.00  0.00    +0.000 NA
ATOM     31  H   UNL     1      -4.939  -0.301   5.101  0.00  0.00    +0.000 HD
ATOM     32  H   UNL     1      -4.293  -0.686   3.637  0.00  0.00    +0.000 HD
ENDBRANCH  24  30
ENDBRANCH  23  24
ENDBRANCH  22  23
ENDBRANCH   4  22
TORSDOF 8
