REMARK  Name = 
REMARK  8 active torsions:
REMARK  status: ('A' for Active; 'I' for Inactive)
REMARK    1  A    between atoms: C_1  and  C_2
REMARK    2  A    between atoms: C_2  and  C_3
REMARK    3  A    between atoms: C_2  and  C_4
REMARK    4  A    between atoms: C_2  and  C_5
REMARK    5  A    between atoms: C_9  and  C_10
REMARK    6  A    between atoms: C_10  and  O_11
REMARK    7  A    between atoms: C_15  and  C_16
REMARK    8  A    between atoms: C_16  and  N_17
REMARK                            x       y       z     vdW  Elec       q    Type
REMARK                         _______ _______ _______ _____ _____    ______ ____
ROOT
ATOM      1  C   UNL     1       2.974   0.261   1.607  0.00  0.00    +0.000 A 
ATOM      2  C   UNL     1       3.608  -0.528   2.674  0.00  0.00    +0.000 A 
ATOM      3  C   UNL     1       3.997   0.022   3.840  0.00  0.00    +0.000 A 
ATOM      4  N   UNL     1       3.816   1.381   4.007  0.00  0.00    +0.000 N 
ATOM      5  C   UNL     1       4.080   2.164   5.114  0.00  0.00    +0.000 A 
ATOM      6  C   UNL     1       3.769   3.446   4.712  0.00  0.00    +0.000 A 
ATOM      7  N   UNL     1       3.322   3.469   3.419  0.00  0.00    +0.000 NA
ATOM      8  C   UNL     1       3.313   2.210   3.009  0.00  0.00    +0.000 A 
ATOM      9  C   UNL     1       2.895   1.637   1.734  0.00  0.00    +0.000 A 
ENDROOT
BRANCH   1  11
ATOM     10  C   UNL     1       1.441  -1.687   1.120  0.00  0.00    +0.000 C 
ATOM     11  C   UNL     1       2.445  -0.686   0.471  0.00  0.00    +0.000 C 
ATOM     12  C   UNL     1       3.571  -1.510  -0.205  0.00  0.00    +0.000 C 
ATOM     13  C   UNL     1       1.671  -0.001  -0.671  0.00  0.00    +0.000 C 
ENDBRANCH   1  11
BRANCH   5  14
ATOM     14  C   UNL     1       4.585   1.663   6.403  0.00  0.00    +0.000 C 
BRANCH  14  15
ATOM     15  O   UNL     1       3.629   0.746   6.914  0.00  0.00    +0.000 OA
ATOM     16  H   UNL     1       2.794   1.235   7.013  0.00  0.00    +0.000 HD
ENDBRANCH  14  15
ENDBRANCH   5  14
BRANCH   9  17
ATOM     17  C   UNL     1       2.605   2.636   0.586  0.00  0.00    +0.000 C 
BRANCH  17  18
ATOM     18  N   UNL     1       1.248   3.226   0.331  0.00  0.00    +0.000 NA
ATOM     19  C   UNL     1       0.847   4.116   1.436  0.00  0.00    +0.000 C 
ATOM     20  C   UNL     1      -0.155   5.247   1.142  0.00  0.00    +0.000 C 
ATOM     21  C   UNL     1       0.063   5.956  -0.183  0.00  0.00    +0.000 C 
ATOM     22  C   UNL     1       0.258   4.955  -1.303  0.00  0.00    +0.000 C 
ATOM     23  C   UNL     1       1.317   3.899  -0.977  0.00  0.00    +0.000 C 
ENDBRANCH  17  18
ENDBRANCH   9  17
TORSDOF 5
