REMARK  Name = 
REMARK  6 active torsions:
REMARK  status: ('A' for Active; 'I' for Inactive)
REMARK    1  A    between atoms: C_5  and  O_6
REMARK    2  A    between atoms: O_6  and  C_7
REMARK    3  A    between atoms: C_7  and  C_8
REMARK    4  A    between atoms: C_8  and  C_11
REMARK    5  A    between atoms: C_15  and  O_16
REMARK    6  A    between atoms: O_16  and  C_17
REMARK                            x       y       z     vdW  Elec       q    Type
REMARK                         _______ _______ _______ _____ _____    ______ ____
ROOT
ATOM      1  C   UNL     1      -5.510   0.941  -0.074  0.00  0.00    +0.000 C 
ATOM      2  F   UNL     1      -4.464   1.083  -0.941  0.00  0.00    +0.000 F 
ATOM      3  F   UNL     1      -6.262  -0.083  -0.577  0.00  0.00    +0.000 F 
ENDROOT
BRANCH   1   4
ATOM      4  C   UNL     1      -6.320   2.219   0.047  0.00  0.00    +0.000 A 
ATOM      5  C   UNL     1      -7.697   2.169   0.305  0.00  0.00    +0.000 A 
ATOM      6  C   UNL     1      -8.434   3.347   0.446  0.00  0.00    +0.000 A 
ATOM      7  C   UNL     1      -7.810   4.592   0.326  0.00  0.00    +0.000 A 
ATOM      8  C   UNL     1      -6.445   4.655   0.059  0.00  0.00    +0.000 A 
ATOM      9  C   UNL     1      -5.705   3.475  -0.073  0.00  0.00    +0.000 A 
BRANCH   8  10
ATOM     10  O   UNL     1      -5.716   5.812  -0.051  0.00  0.00    +0.000 OA
BRANCH  10  11
ATOM     11  C   UNL     1      -6.386   7.053  -0.368  0.00  0.00    +0.000 C 
ATOM     12  C   UNL     1      -6.946   7.236  -1.795  0.00  0.00    +0.000 C 
ATOM     13  N   UNL     1      -6.313   8.566  -1.876  0.00  0.00    +0.000 NA
ATOM     14  C   UNL     1      -5.437   8.214  -0.744  0.00  0.00    +0.000 C 
ATOM     15  H   UNL     1      -6.946   9.342  -1.679  0.00  0.00    +0.000 HD
ENDBRANCH  10  11
ENDBRANCH   8  10
ENDBRANCH   1   4
BRANCH   1  16
ATOM     16  C   UNL     1      -4.958   0.521   1.302  0.00  0.00    +0.000 C 
BRANCH  16  17
ATOM     17  O   UNL     1      -4.273  -0.738   1.214  0.00  0.00    +0.000 OA
BRANCH  17  22
ATOM     18  F   UNL     1      -1.997  -3.057   5.646  0.00  0.00    +0.000 F 
ATOM     19  C   UNL     1      -2.562  -2.472   4.582  0.00  0.00    +0.000 A 
ATOM     20  C   UNL     1      -3.195  -1.242   4.734  0.00  0.00    +0.000 A 
ATOM     21  C   UNL     1      -3.787  -0.624   3.627  0.00  0.00    +0.000 A 
ATOM     22  C   UNL     1      -3.742  -1.239   2.373  0.00  0.00    +0.000 A 
ATOM     23  C   UNL     1      -3.103  -2.478   2.240  0.00  0.00    +0.000 A 
ATOM     24  C   UNL     1      -2.512  -3.096   3.344  0.00  0.00    +0.000 A 
ENDBRANCH  17  22
ENDBRANCH  16  17
ENDBRANCH   1  16
TORSDOF 6
