REMARK  Name = 
REMARK  4 active torsions:
REMARK  status: ('A' for Active; 'I' for Inactive)
REMARK    1  A    between atoms: C_2  and  C_4
REMARK    2  A    between atoms: N_8  and  C_9
REMARK    3  A    between atoms: C_9  and  C_10
REMARK    4  A    between atoms: C_14  and  C_15
REMARK                            x       y       z     vdW  Elec       q    Type
REMARK                         _______ _______ _______ _____ _____    ______ ____
ROOT
ATOM      1  C   UNL     1       6.223   0.291  -5.264  0.00  0.00    +0.000 C 
ATOM      2  C   UNL     1       6.432  -1.194  -5.513  0.00  0.00    +0.000 C 
ATOM      3  C   UNL     1       7.200  -0.529  -4.421  0.00  0.00    +0.000 C 
ENDROOT
BRANCH   1   8
ATOM      4  C   UNL     1       1.190   0.204  -6.073  0.00  0.00    +0.000 A 
ATOM      5  C   UNL     1       1.479   0.338  -4.738  0.00  0.00    +0.000 A 
ATOM      6  N   UNL     1       2.731   0.506  -4.259  0.00  0.00    +0.000 NA
ATOM      7  C   UNL     1       3.736   0.518  -5.154  0.00  0.00    +0.000 A 
ATOM      8  N   UNL     1       4.999   0.756  -4.610  0.00  0.00    +0.000 N 
ATOM      9  N   UNL     1       3.558   0.327  -6.471  0.00  0.00    +0.000 NA
ATOM     10  C   UNL     1       2.284   0.173  -6.905  0.00  0.00    +0.000 A 
ATOM     11  H   UNL     1       4.910   0.674  -3.606  0.00  0.00    +0.000 HD
BRANCH   4  13
ATOM     12  N   UNL     1      -1.182   0.677  -5.882  0.00  0.00    +0.000 N 
ATOM     13  C   UNL     1      -0.175   0.096  -6.605  0.00  0.00    +0.000 C 
ATOM     14  O   UNL     1      -0.395  -0.454  -7.673  0.00  0.00    +0.000 OA
ATOM     15  H   UNL     1      -2.094   0.693  -6.322  0.00  0.00    +0.000 HD
ATOM     16  H   UNL     1      -1.030   1.345  -5.136  0.00  0.00    +0.000 HD
ENDBRANCH   4  13
ENDBRANCH   1   8
BRANCH   1  17
ATOM     17  C   UNL     1       6.886   1.307  -6.188  0.00  0.00    +0.000 A 
ATOM     18  C   UNL     1       7.577   2.416  -5.672  0.00  0.00    +0.000 A 
ATOM     19  C   UNL     1       8.313   3.258  -6.502  0.00  0.00    +0.000 A 
ATOM     20  C   UNL     1       8.374   3.004  -7.873  0.00  0.00    +0.000 A 
ATOM     21  C   UNL     1       7.681   1.925  -8.444  0.00  0.00    +0.000 A 
ATOM     22  C   UNL     1       6.916   1.118  -7.582  0.00  0.00    +0.000 A 
BRANCH  21  23
ATOM     23  C   UNL     1       7.805   1.595  -9.879  0.00  0.00    +0.000 A 
ATOM     24  C   UNL     1       9.034   1.712 -10.544  0.00  0.00    +0.000 A 
ATOM     25  C   UNL     1       9.124   1.356 -11.880  0.00  0.00    +0.000 A 
ATOM     26  N   UNL     1       8.088   0.888 -12.603  0.00  0.00    +0.000 NA
ATOM     27  C   UNL     1       6.911   0.772 -11.956  0.00  0.00    +0.000 A 
ATOM     28  C   UNL     1       6.722   1.109 -10.624  0.00  0.00    +0.000 A 
ENDBRANCH  21  23
ENDBRANCH   1  17
TORSDOF 4
