REMARK  Name = 
REMARK  7 active torsions:
REMARK  status: ('A' for Active; 'I' for Inactive)
REMARK    1  A    between atoms: C_1  and  C_2
REMARK    2  A    between atoms: C_2  and  N_3
REMARK    3  A    between atoms: C_2  and  C_12
REMARK    4  A    between atoms: C_4  and  C_6
REMARK    5  A    between atoms: C_15  and  C_16
REMARK    6  A    between atoms: C_16  and  N_17
REMARK    7  A    between atoms: C_18  and  C_20
REMARK                            x       y       z     vdW  Elec       q    Type
REMARK                         _______ _______ _______ _____ _____    ______ ____
ROOT
ATOM      1  C   UNL     1       3.018   1.105   0.849  0.00  0.00    +0.000 A 
ATOM      2  C   UNL     1       2.897   2.431   0.423  0.00  0.00    +0.000 A 
ATOM      3  C   UNL     1       3.112   3.488   1.313  0.00  0.00    +0.000 A 
ATOM      4  C   UNL     1       3.485   3.246   2.645  0.00  0.00    +0.000 A 
ATOM      5  C   UNL     1       3.628   1.915   3.061  0.00  0.00    +0.000 A 
ATOM      6  C   UNL     1       3.434   0.858   2.166  0.00  0.00    +0.000 A 
ENDROOT
BRANCH   1   8
ATOM      7  C   UNL     1       3.849  -0.876  -0.421  0.00  0.00    +0.000 C 
ATOM      8  C   UNL     1       2.627  -0.021  -0.088  0.00  0.00    +0.000 C 
BRANCH   8   9
ATOM      9  N   UNL     1       1.555  -0.813   0.492  0.00  0.00    +0.000 N 
ATOM     10  C   UNL     1       0.624  -1.473  -0.271  0.00  0.00    +0.000 C 
ATOM     11  O   UNL     1       0.598  -1.389  -1.505  0.00  0.00    +0.000 OA
ATOM     12  H   UNL     1       1.441  -0.870   1.503  0.00  0.00    +0.000 HD
BRANCH  10  13
ATOM     13  C   UNL     1      -0.449  -2.268   0.491  0.00  0.00    +0.000 C 
ATOM     14  C   UNL     1      -1.628  -1.350   0.821  0.00  0.00    +0.000 C 
ATOM     15  C   UNL     1      -2.727  -2.112   1.555  0.00  0.00    +0.000 C 
ATOM     16  C   UNL     1      -2.156  -2.849   2.761  0.00  0.00    +0.000 C 
ATOM     17  C   UNL     1      -0.946  -3.698   2.373  0.00  0.00    +0.000 C 
ATOM     18  N   UNL     1       0.097  -2.883   1.729  0.00  0.00    +0.000 NA
ATOM     19  H   UNL     1       0.863  -3.505   1.459  0.00  0.00    +0.000 HD
ENDBRANCH  10  13
ENDBRANCH   8   9
ENDBRANCH   1   8
BRANCH   4  20
ATOM     20  C   UNL     1       3.744   4.385   3.607  0.00  0.00    +0.000 C 
BRANCH  20  21
ATOM     21  N   UNL     1       2.566   4.818   4.308  0.00  0.00    +0.000 N 
ATOM     22  C   UNL     1       2.588   5.825   5.248  0.00  0.00    +0.000 C 
ATOM     23  O   UNL     1       3.599   6.449   5.531  0.00  0.00    +0.000 OA
ATOM     24  H   UNL     1       1.755   4.209   4.271  0.00  0.00    +0.000 HD
BRANCH  22  25
ATOM     25  C   UNL     1       1.280   6.150   5.838  0.00  0.00    +0.000 A 
ATOM     26  C   UNL     1       1.006   7.440   6.268  0.00  0.00    +0.000 A 
ATOM     27  S   UNL     1      -0.575   7.628   6.890  0.00  0.00    +0.000 S 
ATOM     28  C   UNL     1      -0.933   5.984   6.635  0.00  0.00    +0.000 A 
ATOM     29  N   UNL     1      -2.143   5.465   6.975  0.00  0.00    +0.000 NA
ATOM     30  C   UNL     1      -2.271   4.202   6.729  0.00  0.00    +0.000 A 
ATOM     31  N   UNL     1      -1.299   3.412   6.170  0.00  0.00    +0.000 N 
ATOM     32  C   UNL     1      -0.069   3.895   5.802  0.00  0.00    +0.000 A 
ATOM     33  O   UNL     1       0.765   3.169   5.270  0.00  0.00    +0.000 OA
ATOM     34  C   UNL     1       0.130   5.306   6.064  0.00  0.00    +0.000 A 
ATOM     35  H   UNL     1      -1.466   2.434   5.986  0.00  0.00    +0.000 HD
ENDBRANCH  22  25
ENDBRANCH  20  21
ENDBRANCH   4  20
TORSDOF 6
