REMARK  Name = 
REMARK  6 active torsions:
REMARK  status: ('A' for Active; 'I' for Inactive)
REMARK    1  A    between atoms: C_1  and  N_2
REMARK    2  A    between atoms: N_2  and  C_3
REMARK    3  A    between atoms: C_3  and  C_4
REMARK    4  A    between atoms: C_7  and  C_8
REMARK    5  A    between atoms: C_8  and  C_9
REMARK    6  A    between atoms: C_17  and  C_19
REMARK                            x       y       z     vdW  Elec       q    Type
REMARK                         _______ _______ _______ _____ _____    ______ ____
ROOT
ATOM      1  C   UNL     1       1.087   0.459   0.328  0.00  0.00    +0.000 C 
ATOM      2  N   UNL     1       2.452  -0.002   0.108  0.00  0.00    +0.000 N 
ATOM      3  C   UNL     1       2.984  -0.847   1.100  0.00  0.00    +0.000 C 
ATOM      4  O   UNL     1       2.330  -1.151   2.095  0.00  0.00    +0.000 OA
ENDROOT
BRANCH   3   5
ATOM      5  C   UNL     1       4.363  -1.341   0.963  0.00  0.00    +0.000 A 
ATOM      6  C   UNL     1       5.439  -0.568   0.554  0.00  0.00    +0.000 A 
ATOM      7  S   UNL     1       6.928  -1.404   0.561  0.00  0.00    +0.000 S 
ATOM      8  C   UNL     1       6.209  -2.780   1.253  0.00  0.00    +0.000 A 
ATOM      9  N   UNL     1       6.961  -3.845   1.630  0.00  0.00    +0.000 NA
ATOM     10  C   UNL     1       6.288  -4.789   2.199  0.00  0.00    +0.000 A 
ATOM     11  N   UNL     1       4.931  -4.783   2.384  0.00  0.00    +0.000 N 
ATOM     12  C   UNL     1       4.113  -3.788   1.891  0.00  0.00    +0.000 A 
ATOM     13  O   UNL     1       2.897  -3.937   1.846  0.00  0.00    +0.000 OA
ATOM     14  C   UNL     1       4.836  -2.643   1.369  0.00  0.00    +0.000 A 
ATOM     15  H   UNL     1       4.458  -5.590   2.763  0.00  0.00    +0.000 HD
ENDBRANCH   3   5
BRANCH   2  16
ATOM     16  C   UNL     1       3.073   0.154  -1.207  0.00  0.00    +0.000 C 
BRANCH  16  17
ATOM     17  C   UNL     1       2.237   0.719  -2.322  0.00  0.00    +0.000 A 
ATOM     18  C   UNL     1       2.200   2.104  -2.549  0.00  0.00    +0.000 A 
ATOM     19  C   UNL     1       1.486   2.624  -3.624  0.00  0.00    +0.000 A 
ATOM     20  C   UNL     1       0.794   1.769  -4.496  0.00  0.00    +0.000 A 
ATOM     21  C   UNL     1       0.816   0.389  -4.253  0.00  0.00    +0.000 A 
ATOM     22  C   UNL     1       1.524  -0.133  -3.171  0.00  0.00    +0.000 A 
BRANCH  20  23
ATOM     23  C   UNL     1       0.097   2.322  -5.713  0.00  0.00    +0.000 C 
BRANCH  23  24
ATOM     24  C   UNL     1       0.998   2.374  -6.925  0.00  0.00    +0.000 A 
ATOM     25  C   UNL     1       1.086   1.286  -7.799  0.00  0.00    +0.000 A 
ATOM     26  C   UNL     1       1.972   1.357  -8.862  0.00  0.00    +0.000 A 
ATOM     27  N   UNL     1       2.762   2.421  -9.114  0.00  0.00    +0.000 NA
ATOM     28  C   UNL     1       2.664   3.461  -8.259  0.00  0.00    +0.000 A 
ATOM     29  C   UNL     1       1.810   3.485  -7.167  0.00  0.00    +0.000 A 
ENDBRANCH  23  24
ENDBRANCH  20  23
ENDBRANCH  16  17
ENDBRANCH   2  16
TORSDOF 5
