REMARK  Name = 
REMARK  11 active torsions:
REMARK  status: ('A' for Active; 'I' for Inactive)
REMARK    1  A    between atoms: C_1  and  C_2
REMARK    2  A    between atoms: C_2  and  N_3
REMARK    3  A    between atoms: N_3  and  C_4
REMARK    4  A    between atoms: N_3  and  C_16
REMARK    5  A    between atoms: C_4  and  C_5
REMARK    6  A    between atoms: C_5  and  C_6
REMARK    7  A    between atoms: C_5  and  C_7
REMARK    8  A    between atoms: C_11  and  C_12
REMARK    9  A    between atoms: C_12  and  N_13
REMARK   10  A    between atoms: N_13  and  C_14
REMARK   11  A    between atoms: C_19  and  C_20
REMARK                            x       y       z     vdW  Elec       q    Type
REMARK                         _______ _______ _______ _____ _____    ______ ____
ROOT
ATOM      1  N   UNL     1       3.051   0.849   1.006  0.00  0.00    +0.000 N 
ENDROOT
BRANCH   1   2
ATOM      2  C   UNL     1       3.191   1.538  -0.198  0.00  0.00    +0.000 A 
ATOM      3  C   UNL     1       2.162   2.333  -0.729  0.00  0.00    +0.000 A 
ATOM      4  C   UNL     1       2.278   2.993  -1.960  0.00  0.00    +0.000 A 
ATOM      5  C   UNL     1       3.467   2.935  -2.680  0.00  0.00    +0.000 A 
ATOM      6  C   UNL     1       4.520   2.176  -2.177  0.00  0.00    +0.000 A 
ATOM      7  C   UNL     1       4.366   1.476  -0.968  0.00  0.00    +0.000 A 
BRANCH   5   8
ATOM      8  C   UNL     1       3.551   3.671  -3.967  0.00  0.00    +0.000 C 
ATOM      9  N   UNL     1       4.789   4.085  -4.373  0.00  0.00    +0.000 N 
ATOM     10  O   UNL     1       2.552   3.937  -4.622  0.00  0.00    +0.000 OA
ATOM     11  H   UNL     1       5.581   4.113  -3.748  0.00  0.00    +0.000 HD
ATOM     12  H   UNL     1       4.808   4.690  -5.184  0.00  0.00    +0.000 HD
ENDBRANCH   5   8
ENDBRANCH   1   2
BRANCH   1  14
ATOM     13  C   UNL     1       5.147  -0.248   1.872  0.00  0.00    +0.000 C 
ATOM     14  C   UNL     1       3.771  -0.414   1.242  0.00  0.00    +0.000 C 
ENDBRANCH   1  14
BRANCH   1  15
ATOM     15  C   UNL     1       2.165   1.363   2.085  0.00  0.00    +0.000 C 
BRANCH  15  16
ATOM     16  C   UNL     1       0.685   0.907   1.987  0.00  0.00    +0.000 C 
ATOM     17  C   UNL     1       0.472  -0.571   2.315  0.00  0.00    +0.000 C 
BRANCH  16  18
ATOM     18  C   UNL     1      -0.198   1.769   2.884  0.00  0.00    +0.000 A 
ATOM     19  C   UNL     1      -1.310   2.422   2.349  0.00  0.00    +0.000 A 
ATOM     20  C   UNL     1      -2.102   3.209   3.178  0.00  0.00    +0.000 A 
ATOM     21  C   UNL     1      -1.777   3.324   4.525  0.00  0.00    +0.000 A 
ATOM     22  C   UNL     1      -0.659   2.647   4.999  0.00  0.00    +0.000 A 
ATOM     23  N   UNL     1       0.129   1.872   4.198  0.00  0.00    +0.000 NA
BRANCH  22  24
ATOM     24  C   UNL     1      -0.254   2.797   6.456  0.00  0.00    +0.000 C 
BRANCH  24  25
ATOM     25  N   UNL     1       1.126   3.274   6.645  0.00  0.00    +0.000 NA
ATOM     26  C   UNL     1       1.314   4.620   6.115  0.00  0.00    +0.000 C 
ATOM     27  H   UNL     1       1.721   2.637   6.114  0.00  0.00    +0.000 HD
ENDBRANCH  24  25
ENDBRANCH  22  24
ENDBRANCH  16  18
ENDBRANCH  15  16
ENDBRANCH   1  15
TORSDOF 8
