REMARK  Name = 
REMARK  7 active torsions:
REMARK  status: ('A' for Active; 'I' for Inactive)
REMARK    1  A    between atoms: C_1  and  C_2
REMARK    2  A    between atoms: C_2  and  N_3
REMARK    3  A    between atoms: C_2  and  C_11
REMARK    4  A    between atoms: C_4  and  C_6
REMARK    5  A    between atoms: C_14  and  C_15
REMARK    6  A    between atoms: C_15  and  N_16
REMARK    7  A    between atoms: C_17  and  C_19
REMARK                            x       y       z     vdW  Elec       q    Type
REMARK                         _______ _______ _______ _____ _____    ______ ____
ROOT
ATOM      1  C   UNL     1       3.027   0.167  -1.390  0.00  0.00    +0.000 A 
ATOM      2  C   UNL     1       3.023   1.503  -1.827  0.00  0.00    +0.000 A 
ATOM      3  C   UNL     1       3.485   1.851  -3.103  0.00  0.00    +0.000 A 
ATOM      4  C   UNL     1       3.954   0.868  -3.982  0.00  0.00    +0.000 A 
ATOM      5  C   UNL     1       3.991  -0.461  -3.540  0.00  0.00    +0.000 A 
ATOM      6  C   UNL     1       3.517  -0.810  -2.268  0.00  0.00    +0.000 A 
ENDROOT
BRANCH   1   8
ATOM      7  C   UNL     1       0.922  -0.499  -0.232  0.00  0.00    +0.000 C 
ATOM      8  C   UNL     1       2.409  -0.174  -0.038  0.00  0.00    +0.000 C 
BRANCH   8   9
ATOM      9  N   UNL     1       3.109  -1.244   0.653  0.00  0.00    +0.000 N 
ATOM     10  C   UNL     1       2.811  -1.623   1.943  0.00  0.00    +0.000 C 
ATOM     11  O   UNL     1       1.943  -1.089   2.629  0.00  0.00    +0.000 OA
ATOM     12  H   UNL     1       3.970  -1.630   0.276  0.00  0.00    +0.000 HD
BRANCH  10  13
ATOM     13  C   UNL     1       3.688  -2.750   2.498  0.00  0.00    +0.000 C 
ATOM     14  C   UNL     1       4.876  -2.228   3.279  0.00  0.00    +0.000 C 
ATOM     15  C   UNL     1       5.807  -3.426   3.307  0.00  0.00    +0.000 C 
ATOM     16  C   UNL     1       5.489  -4.198   2.032  0.00  0.00    +0.000 C 
ATOM     17  N   UNL     1       4.345  -3.523   1.413  0.00  0.00    +0.000 NA
ATOM     18  H   UNL     1       3.684  -4.205   1.040  0.00  0.00    +0.000 HD
ENDBRANCH  10  13
ENDBRANCH   8   9
ENDBRANCH   1   8
BRANCH   4  19
ATOM     19  C   UNL     1       4.412   1.225  -5.374  0.00  0.00    +0.000 C 
BRANCH  19  20
ATOM     20  N   UNL     1       5.816   1.546  -5.413  0.00  0.00    +0.000 N 
ATOM     21  C   UNL     1       6.418   1.952  -6.578  0.00  0.00    +0.000 C 
ATOM     22  O   UNL     1       5.789   2.092  -7.621  0.00  0.00    +0.000 OA
ATOM     23  H   UNL     1       6.387   1.211  -4.644  0.00  0.00    +0.000 HD
BRANCH  21  24
ATOM     24  C   UNL     1       7.849   2.278  -6.498  0.00  0.00    +0.000 A 
ATOM     25  C   UNL     1       8.407   3.145  -7.423  0.00  0.00    +0.000 A 
ATOM     26  S   UNL     1      10.063   3.463  -7.153  0.00  0.00    +0.000 S 
ATOM     27  C   UNL     1      10.103   2.407  -5.819  0.00  0.00    +0.000 A 
ATOM     28  N   UNL     1      11.253   2.195  -5.129  0.00  0.00    +0.000 NA
ATOM     29  C   UNL     1      11.148   1.346  -4.161  0.00  0.00    +0.000 A 
ATOM     30  N   UNL     1       9.992   0.692  -3.820  0.00  0.00    +0.000 N 
ATOM     31  C   UNL     1       8.799   0.896  -4.471  0.00  0.00    +0.000 A 
ATOM     32  O   UNL     1       7.772   0.325  -4.114  0.00  0.00    +0.000 OA
ATOM     33  C   UNL     1       8.865   1.835  -5.573  0.00  0.00    +0.000 A 
ATOM     34  H   UNL     1       9.974   0.046  -3.046  0.00  0.00    +0.000 HD
ENDBRANCH  21  24
ENDBRANCH  19  20
ENDBRANCH   4  19
TORSDOF 6
