REMARK  Name = 
REMARK  11 active torsions:
REMARK  status: ('A' for Active; 'I' for Inactive)
REMARK    1  A    between atoms: C_1  and  O_2
REMARK    2  A    between atoms: O_2  and  C_3
REMARK    3  A    between atoms: C_8  and  C_9
REMARK    4  A    between atoms: C_9  and  C_10
REMARK    5  A    between atoms: C_10  and  O_11
REMARK    6  A    between atoms: O_11  and  C_12
REMARK    7  A    between atoms: C_15  and  C_16
REMARK    8  A    between atoms: C_16  and  N_17
REMARK    9  A    between atoms: C_18  and  C_20
REMARK   10  A    between atoms: C_27  and  O_28
REMARK   11  A    between atoms: O_28  and  C_29
REMARK                            x       y       z     vdW  Elec       q    Type
REMARK                         _______ _______ _______ _____ _____    ______ ____
ROOT
ATOM      1  C   UNL     1       3.419  -2.570  -3.156  0.00  0.00    +0.000 A 
ATOM      2  C   UNL     1       2.024  -2.573  -3.147  0.00  0.00    +0.000 A 
ATOM      3  C   UNL     1       1.313  -3.743  -3.415  0.00  0.00    +0.000 A 
ATOM      4  C   UNL     1       1.982  -4.943  -3.681  0.00  0.00    +0.000 A 
ATOM      5  C   UNL     1       3.379  -4.935  -3.717  0.00  0.00    +0.000 A 
ATOM      6  C   UNL     1       4.093  -3.757  -3.451  0.00  0.00    +0.000 A 
ENDROOT
BRANCH   1   7
ATOM      7  O   UNL     1       4.204  -1.475  -2.884  0.00  0.00    +0.000 OA
BRANCH   7   8
ATOM      8  C   UNL     1       3.491  -0.262  -2.607  0.00  0.00    +0.000 C 
BRANCH   8   9
ATOM      9  C   UNL     1       4.450   0.893  -2.340  0.00  0.00    +0.000 C 
BRANCH   9  15
ATOM     10  C   UNL     1       3.226   2.595  -0.901  0.00  0.00    +0.000 A 
ATOM     11  C   UNL     1       2.531   3.794  -0.897  0.00  0.00    +0.000 A 
ATOM     12  N   UNL     1       2.241   4.509  -2.003  0.00  0.00    +0.000 NA
ATOM     13  C   UNL     1       2.689   3.996  -3.156  0.00  0.00    +0.000 A 
ATOM     14  N   UNL     1       3.398   2.864  -3.287  0.00  0.00    +0.000 NA
ATOM     15  C   UNL     1       3.679   2.179  -2.149  0.00  0.00    +0.000 A 
BRANCH  10  17
ATOM     16  C   UNL     1       2.698   2.088   1.347  0.00  0.00    +0.000 C 
ATOM     17  O   UNL     1       3.493   1.827   0.190  0.00  0.00    +0.000 OA
ENDBRANCH  10  17
ENDBRANCH   9  15
ENDBRANCH   8   9
ENDBRANCH   7   8
ENDBRANCH   1   7
BRANCH   4  18
ATOM     18  C   UNL     1       1.181  -6.194  -3.920  0.00  0.00    +0.000 C 
BRANCH  18  19
ATOM     19  N   UNL     1       0.761  -6.314  -5.292  0.00  0.00    +0.000 N 
ATOM     20  C   UNL     1       0.030  -7.400  -5.705  0.00  0.00    +0.000 C 
ATOM     21  O   UNL     1      -0.327  -8.264  -4.907  0.00  0.00    +0.000 OA
ATOM     22  H   UNL     1       0.902  -5.529  -5.915  0.00  0.00    +0.000 HD
BRANCH  20  23
ATOM     23  C   UNL     1      -0.226  -7.540  -7.143  0.00  0.00    +0.000 A 
ATOM     24  C   UNL     1      -0.884  -8.675  -7.600  0.00  0.00    +0.000 A 
ATOM     25  S   UNL     1      -0.820  -8.858  -9.291  0.00  0.00    +0.000 S 
ATOM     26  C   UNL     1       0.026  -7.394  -9.460  0.00  0.00    +0.000 A 
ATOM     27  N   UNL     1       0.463  -7.011 -10.671  0.00  0.00    +0.000 NA
ATOM     28  C   UNL     1       1.057  -5.818 -10.649  0.00  0.00    +0.000 A 
ATOM     29  N   UNL     1       1.167  -4.990  -9.604  0.00  0.00    +0.000 NA
ATOM     30  C   UNL     1       0.708  -5.415  -8.410  0.00  0.00    +0.000 A 
ATOM     31  C   UNL     1       0.169  -6.703  -8.264  0.00  0.00    +0.000 A 
BRANCH  30  32
ATOM     32  O   UNL     1       0.726  -4.547  -7.335  0.00  0.00    +0.000 OA
ATOM     33  C   UNL     1       1.470  -3.355  -7.578  0.00  0.00    +0.000 C 
ENDBRANCH  30  32
ENDBRANCH  20  23
ENDBRANCH  18  19
ENDBRANCH   4  18
TORSDOF 9
