REMARK  Name = 
REMARK  6 active torsions:
REMARK  status: ('A' for Active; 'I' for Inactive)
REMARK    1  A    between atoms: C_1  and  C_2
REMARK    2  A    between atoms: C_2  and  C_3
REMARK    3  A    between atoms: C_2  and  C_14
REMARK    4  A    between atoms: C_3  and  N_4
REMARK    5  A    between atoms: N_4  and  C_5
REMARK    6  A    between atoms: C_8  and  C_9
REMARK                            x       y       z     vdW  Elec       q    Type
REMARK                         _______ _______ _______ _____ _____    ______ ____
ROOT
ATOM      1  N   UNL     1       2.533  -1.823  -1.710  0.00  0.00    +0.000 N 
ATOM      2  H   UNL     1       2.216  -2.335  -0.890  0.00  0.00    +0.000 HD
ENDROOT
BRANCH   1   3
ATOM      3  C   UNL     1       3.046  -2.643  -2.715  0.00  0.00    +0.000 A 
ATOM      4  C   UNL     1       4.090  -2.325  -3.575  0.00  0.00    +0.000 A 
ATOM      5  N   UNL     1       4.522  -3.093  -4.604  0.00  0.00    +0.000 NA
ATOM      6  C   UNL     1       3.835  -4.241  -4.794  0.00  0.00    +0.000 A 
ATOM      7  N   UNL     1       2.794  -4.662  -4.053  0.00  0.00    +0.000 NA
ATOM      8  C   UNL     1       2.429  -3.842  -3.043  0.00  0.00    +0.000 A 
BRANCH   6   9
ATOM      9  C   UNL     1       4.281  -5.108  -5.952  0.00  0.00    +0.000 C 
ATOM     10  N   UNL     1       5.357  -4.643  -6.669  0.00  0.00    +0.000 N 
ATOM     11  O   UNL     1       3.740  -6.165  -6.264  0.00  0.00    +0.000 OA
ATOM     12  H   UNL     1       5.797  -3.765  -6.417  0.00  0.00    +0.000 HD
ATOM     13  H   UNL     1       5.690  -5.177  -7.456  0.00  0.00    +0.000 HD
ENDBRANCH   6   9
ENDBRANCH   1   3
BRANCH   1  14
ATOM     14  C   UNL     1       3.170  -0.550  -1.419  0.00  0.00    +0.000 C 
BRANCH  14  16
ATOM     15  C   UNL     1       1.007   0.411  -0.352  0.00  0.00    +0.000 C 
ATOM     16  C   UNL     1       2.479   0.131  -0.271  0.00  0.00    +0.000 C 
BRANCH  16  17
ATOM     17  C   UNL     1       3.309   1.013   0.575  0.00  0.00    +0.000 A 
ATOM     18  C   UNL     1       3.018   2.380   0.692  0.00  0.00    +0.000 A 
ATOM     19  C   UNL     1       3.815   3.220   1.473  0.00  0.00    +0.000 A 
ATOM     20  C   UNL     1       4.913   2.699   2.153  0.00  0.00    +0.000 A 
ATOM     21  C   UNL     1       5.208   1.342   2.046  0.00  0.00    +0.000 A 
ATOM     22 CL   UNL     1       6.563   0.697   2.889  0.00  0.00    +0.000 Cl
ATOM     23  C   UNL     1       4.418   0.500   1.261  0.00  0.00    +0.000 A 
ENDBRANCH  16  17
ENDBRANCH  14  16
ENDBRANCH   1  14
TORSDOF 5
