REMARK  Name = 
REMARK  10 active torsions:
REMARK  status: ('A' for Active; 'I' for Inactive)
REMARK    1  A    between atoms: C_1  and  O_2
REMARK    2  A    between atoms: O_2  and  C_3
REMARK    3  A    between atoms: C_10  and  C_11
REMARK    4  A    between atoms: N_13  and  C_14
REMARK    5  A    between atoms: C_14  and  C_15
REMARK    6  A    between atoms: C_18  and  O_19
REMARK    7  A    between atoms: O_19  and  C_20
REMARK    8  A    between atoms: C_20  and  C_21
REMARK    9  A    between atoms: C_21  and  O_22
REMARK   10  A    between atoms: C_21  and  C_23
REMARK                            x       y       z     vdW  Elec       q    Type
REMARK                         _______ _______ _______ _____ _____    ______ ____
ROOT
ATOM      1  C   UNL     1       1.744   2.049   2.823  0.00  0.00    +0.000 A 
ATOM      2  C   UNL     1       0.449   1.603   2.530  0.00  0.00    +0.000 A 
ATOM      3  C   UNL     1      -0.550   2.505   2.140  0.00  0.00    +0.000 A 
ATOM      4  C   UNL     1      -0.268   3.868   2.029  0.00  0.00    +0.000 A 
ATOM      5  C   UNL     1       1.027   4.313   2.308  0.00  0.00    +0.000 A 
ATOM      6  C   UNL     1       2.027   3.413   2.696  0.00  0.00    +0.000 A 
ENDROOT
BRANCH   1   7
ATOM      7  C   UNL     1       2.817   1.072   3.230  0.00  0.00    +0.000 C 
BRANCH   7  10
ATOM      8  C   UNL     1       4.490  -0.402   2.201  0.00  0.00    +0.000 C 
ATOM      9  O   UNL     1       4.808  -0.846   3.304  0.00  0.00    +0.000 OA
ATOM     10  N   UNL     1       3.518   0.554   2.082  0.00  0.00    +0.000 N 
ATOM     11  H   UNL     1       3.304   0.954   1.176  0.00  0.00    +0.000 HD
BRANCH   8  19
ATOM     12  C   UNL     1       3.992   0.237  -1.147  0.00  0.00    +0.000 A 
ATOM     13  N   UNL     1       4.023   0.305  -2.494  0.00  0.00    +0.000 NA
ATOM     14  C   UNL     1       4.927  -0.434  -3.142  0.00  0.00    +0.000 A 
ATOM     15  N   UNL     1       5.823  -1.255  -2.602  0.00  0.00    +0.000 NA
ATOM     16  C   UNL     1       5.764  -1.287  -1.260  0.00  0.00    +0.000 A 
ATOM     17  S   UNL     1       6.833  -2.289  -0.402  0.00  0.00    +0.000 S 
ATOM     18  C   UNL     1       6.172  -1.803   1.085  0.00  0.00    +0.000 A 
ATOM     19  C   UNL     1       5.140  -0.879   0.970  0.00  0.00    +0.000 A 
ATOM     20  C   UNL     1       4.895  -0.575  -0.439  0.00  0.00    +0.000 A 
BRANCH  12  22
ATOM     21  C   UNL     1       1.919   1.303  -1.271  0.00  0.00    +0.000 C 
ATOM     22  O   UNL     1       3.075   1.024  -0.482  0.00  0.00    +0.000 OA
ENDBRANCH  12  22
ENDBRANCH   8  19
ENDBRANCH   7  10
ENDBRANCH   1   7
BRANCH   4  23
ATOM     23  O   UNL     1      -1.159   4.846   1.672  0.00  0.00    +0.000 OA
BRANCH  23  24
ATOM     24  C   UNL     1      -2.474   4.410   1.299  0.00  0.00    +0.000 C 
BRANCH  24  25
ATOM     25  C   UNL     1      -3.363   5.598   0.872  0.00  0.00    +0.000 C 
BRANCH  25  26
ATOM     26  C   UNL     1      -2.933   6.294  -0.401  0.00  0.00    +0.000 A 
ATOM     27  C   UNL     1      -3.783   6.308  -1.514  0.00  0.00    +0.000 A 
ATOM     28  C   UNL     1      -3.372   6.960  -2.667  0.00  0.00    +0.000 A 
ATOM     29  N   UNL     1      -2.188   7.593  -2.789  0.00  0.00    +0.000 NA
ATOM     30  C   UNL     1      -1.384   7.582  -1.706  0.00  0.00    +0.000 A 
ATOM     31  C   UNL     1      -1.707   6.958  -0.510  0.00  0.00    +0.000 A 
ENDBRANCH  25  26
BRANCH  25  32
ATOM     32  O   UNL     1      -3.480   6.556   1.924  0.00  0.00    +0.000 OA
ATOM     33  H   UNL     1      -2.584   6.893   2.096  0.00  0.00    +0.000 HD
ENDBRANCH  25  32
ENDBRANCH  24  25
ENDBRANCH  23  24
ENDBRANCH   4  23
TORSDOF 9
