REMARK  Name = 
REMARK  10 active torsions:
REMARK  status: ('A' for Active; 'I' for Inactive)
REMARK    1  A    between atoms: C_1  and  C_2
REMARK    2  A    between atoms: C_2  and  C_3
REMARK    3  A    between atoms: C_2  and  N_4
REMARK    4  A    between atoms: N_4  and  C_5
REMARK    5  A    between atoms: C_8  and  C_9
REMARK    6  A    between atoms: C_13  and  N_14
REMARK    7  A    between atoms: N_14  and  C_15
REMARK    8  A    between atoms: N_14  and  C_16
REMARK    9  A    between atoms: C_16  and  C_17
REMARK   10  A    between atoms: C_17  and  C_18
REMARK                            x       y       z     vdW  Elec       q    Type
REMARK                         _______ _______ _______ _____ _____    ______ ____
ROOT
ATOM      1  C   UNL     1       4.420   0.588   1.419  0.00  0.00    +0.000 A 
ATOM      2  N   UNL     1       4.880   0.045   2.569  0.00  0.00    +0.000 NA
ATOM      3  C   UNL     1       6.208   0.103   2.820  0.00  0.00    +0.000 A 
ATOM      4  C   UNL     1       7.137   0.664   1.961  0.00  0.00    +0.000 A 
ATOM      5  C   UNL     1       6.661   1.209   0.772  0.00  0.00    +0.000 A 
ATOM      6  C   UNL     1       5.285   1.210   0.464  0.00  0.00    +0.000 A 
ENDROOT
BRANCH   4   7
ATOM      7  C   UNL     1       8.592   0.740   2.241  0.00  0.00    +0.000 C 
ATOM      8  N   UNL     1       9.070   0.247   3.429  0.00  0.00    +0.000 N 
ATOM      9  O   UNL     1       9.370   1.249   1.449  0.00  0.00    +0.000 OA
ATOM     10  H   UNL     1       8.531  -0.186   4.162  0.00  0.00    +0.000 HD
ATOM     11  H   UNL     1      10.068   0.328   3.581  0.00  0.00    +0.000 HD
ENDBRANCH   4   7
BRANCH   1  12
ATOM     12  N   UNL     1       3.031   0.533   1.141  0.00  0.00    +0.000 N 
ATOM     13  H   UNL     1       2.867   1.355   0.558  0.00  0.00    +0.000 HD
BRANCH  12  15
ATOM     14  C   UNL     1       0.789   1.121   1.834  0.00  0.00    +0.000 C 
ATOM     15  C   UNL     1       2.131   0.542   2.306  0.00  0.00    +0.000 C 
ATOM     16  C   UNL     1       1.878  -0.848   2.889  0.00  0.00    +0.000 C 
ENDBRANCH  12  15
ENDBRANCH   1  12
BRANCH   6  17
ATOM     17  N   UNL     1       4.813   1.911  -0.658  0.00  0.00    +0.000 N 
ATOM     18  C   UNL     1       5.525   3.126  -1.066  0.00  0.00    +0.000 C 
BRANCH  17  19
ATOM     19  C   UNL     1       4.016   1.194  -1.682  0.00  0.00    +0.000 C 
BRANCH  19  20
ATOM     20  C   UNL     1       4.688   1.189  -3.061  0.00  0.00    +0.000 C 
BRANCH  20  21
ATOM     21  C   UNL     1       3.882   0.474  -4.110  0.00  0.00    +0.000 A 
ATOM     22  C   UNL     1       4.067  -0.887  -4.341  0.00  0.00    +0.000 A 
ATOM     23  C   UNL     1       3.360  -1.492  -5.375  0.00  0.00    +0.000 A 
ATOM     24  C   UNL     1       2.488  -0.730  -6.143  0.00  0.00    +0.000 A 
ATOM     25  C   UNL     1       2.350   0.612  -5.837  0.00  0.00    +0.000 A 
ATOM     26  N   UNL     1       3.022   1.226  -4.839  0.00  0.00    +0.000 NA
ENDBRANCH  20  21
ENDBRANCH  19  20
ENDBRANCH  17  19
ENDBRANCH   6  17
TORSDOF 7
