REMARK  Name = 
REMARK  4 active torsions:
REMARK  status: ('A' for Active; 'I' for Inactive)
REMARK    1  A    between atoms: C_2  and  C_4
REMARK    2  A    between atoms: C_7  and  C_8
REMARK    3  A    between atoms: C_8  and  C_9
REMARK    4  A    between atoms: C_9  and  C_10
REMARK                            x       y       z     vdW  Elec       q    Type
REMARK                         _______ _______ _______ _____ _____    ______ ____
ROOT
ATOM      1  C   UNL     1       4.304  -0.155   1.291  0.00  0.00    +0.000 A 
ATOM      2  C   UNL     1       3.343   0.831   1.513  0.00  0.00    +0.000 A 
ATOM      3  C   UNL     1       3.708   2.032   2.119  0.00  0.00    +0.000 A 
ATOM      4  C   UNL     1       5.022   2.202   2.543  0.00  0.00    +0.000 A 
ATOM      5  N   UNL     1       5.972   1.250   2.341  0.00  0.00    +0.000 NA
ATOM      6  C   UNL     1       5.595   0.101   1.723  0.00  0.00    +0.000 A 
ENDROOT
BRANCH   1   8
ATOM      7  N   UNL     1       4.851  -2.104  -0.065  0.00  0.00    +0.000 N 
ATOM      8  C   UNL     1       3.904  -1.412   0.638  0.00  0.00    +0.000 C 
ATOM      9  O   UNL     1       2.745  -1.812   0.684  0.00  0.00    +0.000 OA
ATOM     10  H   UNL     1       4.510  -2.900  -0.593  0.00  0.00    +0.000 HD
ATOM     11  H   UNL     1       5.730  -1.700  -0.352  0.00  0.00    +0.000 HD
ENDBRANCH   1   8
BRANCH   4  12
ATOM     12  C   UNL     1       5.474   3.510   3.152  0.00  0.00    +0.000 C 
BRANCH  12  13
ATOM     13  C   UNL     1       4.996   3.875   4.570  0.00  0.00    +0.000 C 
ATOM     14  C   UNL     1       4.785   2.758   5.580  0.00  0.00    +0.000 C 
ATOM     15  C   UNL     1       3.596   3.525   5.072  0.00  0.00    +0.000 C 
BRANCH  13  16
ATOM     16  C   UNL     1       5.557   5.236   5.002  0.00  0.00    +0.000 C 
ATOM     17  C   UNL     1       7.082   5.252   5.138  0.00  0.00    +0.000 C 
ATOM     18  C   UNL     1       7.396   6.521   5.927  0.00  0.00    +0.000 C 
ATOM     19  C   UNL     1       6.092   6.942   6.599  0.00  0.00    +0.000 C 
ATOM     20  C   UNL     1       5.118   5.795   6.355  0.00  0.00    +0.000 C 
ENDBRANCH  13  16
ENDBRANCH  12  13
ENDBRANCH   4  12
TORSDOF 4
