REMARK  Name = 
REMARK  4 active torsions:
REMARK  status: ('A' for Active; 'I' for Inactive)
REMARK    1  A    between atoms: N_1  and  C_2
REMARK    2  A    between atoms: C_2  and  C_3
REMARK    3  A    between atoms: C_6  and  C_7
REMARK    4  A    between atoms: C_8  and  C_9
REMARK                            x       y       z     vdW  Elec       q    Type
REMARK                         _______ _______ _______ _____ _____    ______ ____
ROOT
ATOM      1  C   UNL     1       2.991  -0.634  -1.308  0.00  0.00    +0.000 A 
ATOM      2  C   UNL     1       3.672   0.165  -2.236  0.00  0.00    +0.000 A 
ATOM      3  C   UNL     1       4.129  -0.371  -3.444  0.00  0.00    +0.000 A 
ATOM      4  C   UNL     1       3.928  -1.722  -3.744  0.00  0.00    +0.000 A 
ATOM      5  C   UNL     1       3.252  -2.522  -2.814  0.00  0.00    +0.000 A 
ATOM      6  C   UNL     1       2.792  -1.987  -1.606  0.00  0.00    +0.000 A 
ENDROOT
BRANCH   4   7
ATOM      7  C   UNL     1       4.318  -2.320  -5.030  0.00  0.00    +0.000 C 
ATOM      8  C   UNL     1       5.358  -1.927  -5.784  0.00  0.00    +0.000 C 
BRANCH   8   9
ATOM      9  C   UNL     1       5.712  -2.546  -7.069  0.00  0.00    +0.000 A 
ATOM     10  C   UNL     1       4.767  -3.113  -7.931  0.00  0.00    +0.000 A 
ATOM     11  C   UNL     1       5.169  -3.666  -9.144  0.00  0.00    +0.000 A 
ATOM     12  C   UNL     1       6.511  -3.621  -9.474  0.00  0.00    +0.000 A 
ATOM     13  N   UNL     1       7.457  -3.065  -8.688  0.00  0.00    +0.000 NA
ATOM     14  C   UNL     1       7.033  -2.540  -7.510  0.00  0.00    +0.000 A 
ENDBRANCH   8   9
ENDBRANCH   4   7
BRANCH   1  15
ATOM     15  C   UNL     1       2.480  -0.043  -0.019  0.00  0.00    +0.000 C 
BRANCH  15  16
ATOM     16  N   UNL     1       1.512   1.020  -0.267  0.00  0.00    +0.000 NA
ATOM     17  H   UNL     1       1.116   1.326   0.618  0.00  0.00    +0.000 HD
ATOM     18  H   UNL     1       0.741   0.638  -0.814  0.00  0.00    +0.000 HD
ENDBRANCH  15  16
ENDBRANCH   1  15
TORSDOF 4
