REMARK  Name = 
REMARK  7 active torsions:
REMARK  status: ('A' for Active; 'I' for Inactive)
REMARK    1  A    between atoms: N_1  and  C_2
REMARK    2  A    between atoms: C_2  and  C_3
REMARK    3  A    between atoms: C_6  and  C_7
REMARK    4  A    between atoms: C_7  and  N_8
REMARK    5  A    between atoms: C_13  and  O_14
REMARK    6  A    between atoms: O_14  and  C_15
REMARK    7  A    between atoms: C_15  and  C_16
REMARK                            x       y       z     vdW  Elec       q    Type
REMARK                         _______ _______ _______ _____ _____    ______ ____
ROOT
ATOM      1  N   UNL     1       3.747   3.590  -5.171  0.00  0.00    +0.000 N 
ATOM      2  C   UNL     1       4.153   4.131  -6.407  0.00  0.00    +0.000 A 
ATOM      3  C   UNL     1       3.765   5.422  -6.753  0.00  0.00    +0.000 A 
ATOM      4  C   UNL     1       4.180   5.954  -7.975  0.00  0.00    +0.000 A 
ATOM      5  C   UNL     1       4.977   5.188  -8.820  0.00  0.00    +0.000 A 
ATOM      6  C   UNL     1       5.291   3.910  -8.413  0.00  0.00    +0.000 A 
ATOM      7  N   UNL     1       4.897   3.382  -7.239  0.00  0.00    +0.000 NA
ATOM      8  H   UNL     1       4.062   4.205  -4.426  0.00  0.00    +0.000 HD
ENDROOT
BRANCH   1   9
ATOM      9  C   UNL     1       4.243   2.227  -4.980  0.00  0.00    +0.000 C 
BRANCH   9  13
ATOM     10  C   UNL     1       3.122   0.509  -1.163  0.00  0.00    +0.000 A 
ATOM     11  C   UNL     1       2.140   0.947  -2.065  0.00  0.00    +0.000 A 
ATOM     12  C   UNL     1       2.496   1.522  -3.287  0.00  0.00    +0.000 A 
ATOM     13  C   UNL     1       3.844   1.683  -3.628  0.00  0.00    +0.000 A 
ATOM     14  C   UNL     1       4.827   1.260  -2.721  0.00  0.00    +0.000 A 
ATOM     15  C   UNL     1       4.469   0.680  -1.501  0.00  0.00    +0.000 A 
BRANCH  10  16
ATOM     16  C   UNL     1       2.725  -0.135   0.140  0.00  0.00    +0.000 C 
BRANCH  16  17
ATOM     17  N   UNL     1       1.952  -1.352  -0.084  0.00  0.00    +0.000 NA
ATOM     18  H   UNL     1       1.769  -1.804   0.808  0.00  0.00    +0.000 HD
ATOM     19  H   UNL     1       2.514  -2.001  -0.633  0.00  0.00    +0.000 HD
ENDBRANCH  16  17
ENDBRANCH  10  16
ENDBRANCH   9  13
ENDBRANCH   1   9
BRANCH   6  20
ATOM     20  O   UNL     1       6.108   3.145  -9.223  0.00  0.00    +0.000 OA
BRANCH  20  21
ATOM     21  C   UNL     1       5.908   1.741  -8.989  0.00  0.00    +0.000 C 
BRANCH  21  22
ATOM     22  C   UNL     1       6.874   0.934  -9.836  0.00  0.00    +0.000 C 
ATOM     23  F   UNL     1       6.657   1.191 -11.155  0.00  0.00    +0.000 F 
ENDBRANCH  21  22
ENDBRANCH  20  21
ENDBRANCH   6  20
TORSDOF 7
