REMARK  Name = 
REMARK  7 active torsions:
REMARK  status: ('A' for Active; 'I' for Inactive)
REMARK    1  A    between atoms: C_1  and  N_2
REMARK    2  A    between atoms: N_2  and  C_3
REMARK    3  A    between atoms: N_2  and  C_4
REMARK    4  A    between atoms: C_4  and  C_5
REMARK    5  A    between atoms: C_8  and  C_9
REMARK    6  A    between atoms: C_9  and  N_10
REMARK    7  A    between atoms: C_16  and  O_17
REMARK                            x       y       z     vdW  Elec       q    Type
REMARK                         _______ _______ _______ _____ _____    ______ ____
ROOT
ATOM      1  C   UNL     1       8.821  -0.574  -1.271  0.00  0.00    +0.000 C 
ENDROOT
BRANCH   1   2
ATOM      2  N   UNL     1       9.670  -0.642  -0.075  0.00  0.00    +0.000 N 
ATOM      3  C   UNL     1      10.379   0.484   0.333  0.00  0.00    +0.000 A 
ATOM      4  C   UNL     1      11.650   0.315  -0.191  0.00  0.00    +0.000 A 
ATOM      5  C   UNL     1      11.840  -1.090  -0.130  0.00  0.00    +0.000 A 
ATOM      6  C   UNL     1      12.955  -1.931  -0.152  0.00  0.00    +0.000 A 
ATOM      7  C   UNL     1      12.737  -3.276   0.139  0.00  0.00    +0.000 A 
ATOM      8  C   UNL     1      11.445  -3.728   0.322  0.00  0.00    +0.000 A 
ATOM      9  N   UNL     1      10.313  -2.977   0.235  0.00  0.00    +0.000 NA
ATOM     10  C   UNL     1      10.583  -1.672   0.047  0.00  0.00    +0.000 A 
BRANCH   8  11
ATOM     11  O   UNL     1      11.210  -5.035   0.643  0.00  0.00    +0.000 OA
ATOM     12  H   UNL     1      12.066  -5.468   0.744  0.00  0.00    +0.000 HD
ENDBRANCH   8  11
ENDBRANCH   1   2
BRANCH   1  16
ATOM     13  C   UNL     1       4.570  -0.657  -1.070  0.00  0.00    +0.000 A 
ATOM     14  C   UNL     1       5.272  -1.763  -0.602  0.00  0.00    +0.000 A 
ATOM     15  C   UNL     1       6.670  -1.743  -0.592  0.00  0.00    +0.000 A 
ATOM     16  C   UNL     1       7.336  -0.605  -1.058  0.00  0.00    +0.000 A 
ATOM     17  C   UNL     1       6.550   0.458  -1.484  0.00  0.00    +0.000 A 
ATOM     18  N   UNL     1       5.208   0.471  -1.500  0.00  0.00    +0.000 NA
BRANCH  13  19
ATOM     19  C   UNL     1       3.054  -0.642  -1.094  0.00  0.00    +0.000 C 
BRANCH  19  21
ATOM     20  C   UNL     1       2.829   0.386   1.091  0.00  0.00    +0.000 C 
ATOM     21  N   UNL     1       2.439  -0.750   0.248  0.00  0.00    +0.000 NA
ATOM     22  C   UNL     1       0.982  -0.794   0.126  0.00  0.00    +0.000 C 
ENDBRANCH  19  21
ENDBRANCH  13  19
ENDBRANCH   1  16
TORSDOF 5
