REMARK  Name = 
REMARK  5 active torsions:
REMARK  status: ('A' for Active; 'I' for Inactive)
REMARK    1  A    between atoms: C_2  and  C_4
REMARK    2  A    between atoms: N_8  and  C_9
REMARK    3  A    between atoms: C_9  and  C_10
REMARK    4  A    between atoms: C_10  and  C_11
REMARK    5  A    between atoms: C_15  and  C_16
REMARK                            x       y       z     vdW  Elec       q    Type
REMARK                         _______ _______ _______ _____ _____    ______ ____
ROOT
ATOM      1  C   UNL     1       5.066   1.925   5.559  0.00  0.00    +0.000 C 
ENDROOT
BRANCH   1   6
ATOM      2  C   UNL     1       2.956   0.806   1.099  0.00  0.00    +0.000 A 
ATOM      3  C   UNL     1       2.354   1.070   2.324  0.00  0.00    +0.000 A 
ATOM      4  C   UNL     1       3.136   1.549   3.374  0.00  0.00    +0.000 A 
ATOM      5  C   UNL     1       4.504   1.731   3.193  0.00  0.00    +0.000 A 
ATOM      6  N   UNL     1       5.326   2.275   4.170  0.00  0.00    +0.000 N 
ATOM      7  N   UNL     1       5.104   1.447   2.021  0.00  0.00    +0.000 NA
ATOM      8  C   UNL     1       4.326   0.989   1.003  0.00  0.00    +0.000 A 
ATOM      9  H   UNL     1       6.286   2.150   3.849  0.00  0.00    +0.000 HD
BRANCH   2  11
ATOM     10  N   UNL     1       0.873   0.687  -0.140  0.00  0.00    +0.000 N 
ATOM     11  C   UNL     1       2.197   0.342  -0.079  0.00  0.00    +0.000 C 
ATOM     12  O   UNL     1       2.731  -0.287  -0.981  0.00  0.00    +0.000 OA
ATOM     13  H   UNL     1       0.388   0.457  -0.998  0.00  0.00    +0.000 HD
ATOM     14  H   UNL     1       0.469   1.406   0.442  0.00  0.00    +0.000 HD
ENDBRANCH   2  11
ENDBRANCH   1   6
BRANCH   1  15
ATOM     15  C   UNL     1       6.112   2.546   6.488  0.00  0.00    +0.000 C 
BRANCH  15  16
ATOM     16  C   UNL     1       5.765   2.264   7.931  0.00  0.00    +0.000 A 
ATOM     17  C   UNL     1       5.000   3.170   8.670  0.00  0.00    +0.000 A 
ATOM     18  C   UNL     1       4.641   2.873   9.981  0.00  0.00    +0.000 A 
ATOM     19  C   UNL     1       5.036   1.664  10.559  0.00  0.00    +0.000 A 
ATOM     20  C   UNL     1       5.782   0.712   9.841  0.00  0.00    +0.000 A 
ATOM     21  C   UNL     1       6.142   1.045   8.521  0.00  0.00    +0.000 A 
BRANCH  20  22
ATOM     22  C   UNL     1       6.157  -0.592  10.440  0.00  0.00    +0.000 A 
ATOM     23  C   UNL     1       7.362  -1.240  10.105  0.00  0.00    +0.000 A 
ATOM     24  C   UNL     1       7.713  -2.474  10.665  0.00  0.00    +0.000 A 
ATOM     25  C   UNL     1       6.871  -3.085  11.589  0.00  0.00    +0.000 A 
ATOM     26  C   UNL     1       5.677  -2.464  11.936  0.00  0.00    +0.000 A 
ATOM     27 CL   UNL     1       4.632  -3.207  13.085  0.00  0.00    +0.000 Cl
ATOM     28  C   UNL     1       5.317  -1.241  11.364  0.00  0.00    +0.000 A 
ENDBRANCH  20  22
ENDBRANCH  15  16
ENDBRANCH   1  15
TORSDOF 5
