REMARK  Name = 
REMARK  5 active torsions:
REMARK  status: ('A' for Active; 'I' for Inactive)
REMARK    1  A    between atoms: C_1  and  N_2
REMARK    2  A    between atoms: C_5  and  C_6
REMARK    3  A    between atoms: C_6  and  O_7
REMARK    4  A    between atoms: O_7  and  C_8
REMARK    5  A    between atoms: C_11  and  C_12
REMARK                            x       y       z     vdW  Elec       q    Type
REMARK                         _______ _______ _______ _____ _____    ______ ____
ROOT
ATOM      1  C   UNL     1       2.822  -1.217  -3.697  0.00  0.00    +0.000 A 
ATOM      2  C   UNL     1       2.313  -0.312  -4.631  0.00  0.00    +0.000 A 
ATOM      3  C   UNL     1       2.552  -0.498  -5.996  0.00  0.00    +0.000 A 
ATOM      4  C   UNL     1       3.310  -1.584  -6.441  0.00  0.00    +0.000 A 
ATOM      5  C   UNL     1       3.809  -2.503  -5.511  0.00  0.00    +0.000 A 
ATOM      6  C   UNL     1       3.563  -2.314  -4.145  0.00  0.00    +0.000 A 
ENDROOT
BRANCH   4   7
ATOM      7  C   UNL     1       3.537  -1.720  -7.904  0.00  0.00    +0.000 C 
ATOM      8  N   UNL     1       4.646  -2.409  -8.308  0.00  0.00    +0.000 N 
ATOM      9  O   UNL     1       2.789  -1.200  -8.721  0.00  0.00    +0.000 OA
ATOM     10  H   UNL     1       5.405  -2.635  -7.683  0.00  0.00    +0.000 HD
ATOM     11  H   UNL     1       4.846  -2.382  -9.300  0.00  0.00    +0.000 HD
ENDBRANCH   4   7
BRANCH   1  12
ATOM     12  O   UNL     1       2.660  -1.138  -2.338  0.00  0.00    +0.000 OA
BRANCH  12  13
ATOM     13  C   UNL     1       1.948   0.006  -1.860  0.00  0.00    +0.000 C 
BRANCH  13  18
ATOM     14  C   UNL     1      -2.446   0.017  -0.056  0.00  0.00    +0.000 C 
ATOM     15  N   UNL     1      -1.033   0.001   0.331  0.00  0.00    +0.000 NA
ATOM     16  C   UNL     1      -0.391  -1.228  -0.155  0.00  0.00    +0.000 C 
ATOM     17  C   UNL     1       1.099  -1.269   0.191  0.00  0.00    +0.000 C 
ATOM     18  C   UNL     1       1.843  -0.031  -0.326  0.00  0.00    +0.000 C 
ATOM     19  C   UNL     1       1.130   1.223   0.198  0.00  0.00    +0.000 C 
ATOM     20  C   UNL     1      -0.365   1.220  -0.140  0.00  0.00    +0.000 C 
ENDBRANCH  13  18
ENDBRANCH  12  13
ENDBRANCH   1  12
TORSDOF 4
