REMARK  Name = 
REMARK  7 active torsions:
REMARK  status: ('A' for Active; 'I' for Inactive)
REMARK    1  A    between atoms: C_2  and  C_4
REMARK    2  A    between atoms: C_7  and  O_8
REMARK    3  A    between atoms: O_8  and  C_9
REMARK    4  A    between atoms: C_9  and  C_10
REMARK    5  A    between atoms: C_10  and  C_13
REMARK    6  A    between atoms: C_17  and  C_18
REMARK    7  A    between atoms: C_18  and  C_19
REMARK                            x       y       z     vdW  Elec       q    Type
REMARK                         _______ _______ _______ _____ _____    ______ ____
ROOT
ATOM      1  C   UNL     1       5.923   6.655   2.543  0.00  0.00    +0.000 C 
ATOM      2  F   UNL     1       7.210   6.212   2.638  0.00  0.00    +0.000 F 
ATOM      3  F   UNL     1       5.880   7.440   1.428  0.00  0.00    +0.000 F 
ENDROOT
BRANCH   1   4
ATOM      4  C   UNL     1       5.487   7.401   3.791  0.00  0.00    +0.000 A 
ATOM      5  C   UNL     1       4.585   8.470   3.707  0.00  0.00    +0.000 A 
ATOM      6  C   UNL     1       4.123   9.089   4.868  0.00  0.00    +0.000 A 
ATOM      7  C   UNL     1       4.543   8.634   6.121  0.00  0.00    +0.000 A 
ATOM      8  C   UNL     1       5.445   7.567   6.231  0.00  0.00    +0.000 A 
ATOM      9  C   UNL     1       5.921   6.968   5.057  0.00  0.00    +0.000 A 
BRANCH   8  10
ATOM     10  C   UNL     1       5.893   7.056   7.582  0.00  0.00    +0.000 C 
BRANCH  10  11
ATOM     11  C   UNL     1       5.061   5.856   8.017  0.00  0.00    +0.000 C 
ATOM     12  C   UNL     1       3.587   6.064   8.389  0.00  0.00    +0.000 C 
ATOM     13  O   UNL     1       3.796   5.547   9.722  0.00  0.00    +0.000 OA
ATOM     14  C   UNL     1       5.217   5.436   9.488  0.00  0.00    +0.000 C 
ENDBRANCH  10  11
ENDBRANCH   8  10
ENDBRANCH   1   4
BRANCH   1  15
ATOM     15  C   UNL     1       4.989   5.450   2.349  0.00  0.00    +0.000 C 
BRANCH  15  16
ATOM     16  O   UNL     1       5.334   4.704   1.176  0.00  0.00    +0.000 OA
BRANCH  16  20
ATOM     17  C   UNL     1       3.035   1.405   0.080  0.00  0.00    +0.000 A 
ATOM     18  C   UNL     1       2.710   2.077   1.263  0.00  0.00    +0.000 A 
ATOM     19  C   UNL     1       3.460   3.183   1.668  0.00  0.00    +0.000 A 
ATOM     20  C   UNL     1       4.540   3.624   0.897  0.00  0.00    +0.000 A 
ATOM     21  C   UNL     1       4.879   2.932  -0.268  0.00  0.00    +0.000 A 
ATOM     22  C   UNL     1       4.135   1.822  -0.674  0.00  0.00    +0.000 A 
BRANCH  17  24
ATOM     23  N   UNL     1       0.922   0.208  -0.039  0.00  0.00    +0.000 N 
ATOM     24  C   UNL     1       2.241   0.242  -0.394  0.00  0.00    +0.000 C 
ATOM     25  O   UNL     1       2.729  -0.623  -1.103  0.00  0.00    +0.000 OA
ATOM     26  H   UNL     1       0.367  -0.520  -0.471  0.00  0.00    +0.000 HD
ATOM     27  H   UNL     1       0.434   1.022   0.309  0.00  0.00    +0.000 HD
ENDBRANCH  17  24
ENDBRANCH  16  20
ENDBRANCH  15  16
ENDBRANCH   1  15
TORSDOF 7
