REMARK  Name = 
REMARK  6 active torsions:
REMARK  status: ('A' for Active; 'I' for Inactive)
REMARK    1  A    between atoms: C_1  and  C_2
REMARK    2  A    between atoms: C_2  and  C_3
REMARK    3  A    between atoms: C_2  and  C_4
REMARK    4  A    between atoms: C_2  and  C_18
REMARK    5  A    between atoms: C_4  and  N_5
REMARK    6  A    between atoms: C_10  and  C_11
REMARK                            x       y       z     vdW  Elec       q    Type
REMARK                         _______ _______ _______ _____ _____    ______ ____
ROOT
ATOM      1  N   UNL     1       2.785  -2.403   0.408  0.00  0.00    +0.000 N 
ATOM      2  C   UNL     1       3.181  -3.670   0.025  0.00  0.00    +0.000 A 
ATOM      3  N   UNL     1       2.703  -4.680   0.764  0.00  0.00    +0.000 NA
ATOM      4  C   UNL     1       3.148  -5.910   0.468  0.00  0.00    +0.000 A 
ATOM      5  C   UNL     1       4.004  -6.178  -0.567  0.00  0.00    +0.000 A 
ATOM      6  C   UNL     1       4.412  -5.093  -1.318  0.00  0.00    +0.000 A 
ATOM      7  N   UNL     1       4.022  -3.838  -1.001  0.00  0.00    +0.000 NA
ATOM      8  H   UNL     1       1.799  -2.463   0.655  0.00  0.00    +0.000 HD
ENDROOT
BRANCH   6   9
ATOM      9  C   UNL     1       5.302  -5.204  -2.485  0.00  0.00    +0.000 A 
ATOM     10  C   UNL     1       5.399  -6.360  -3.275  0.00  0.00    +0.000 A 
ATOM     11  C   UNL     1       6.270  -6.406  -4.364  0.00  0.00    +0.000 A 
ATOM     12  C   UNL     1       7.028  -5.285  -4.650  0.00  0.00    +0.000 A 
ATOM     13  N   UNL     1       6.965  -4.144  -3.937  0.00  0.00    +0.000 NA
ATOM     14  C   UNL     1       6.104  -4.131  -2.885  0.00  0.00    +0.000 A 
ENDBRANCH   6   9
BRANCH   1  15
ATOM     15  C   UNL     1       3.067  -1.311  -0.516  0.00  0.00    +0.000 C 
BRANCH  15  17
ATOM     16  C   UNL     1       3.193   0.322   1.419  0.00  0.00    +0.000 C 
ATOM     17  C   UNL     1       2.550   0.055   0.039  0.00  0.00    +0.000 C 
ATOM     18  C   UNL     1       3.015   1.150  -0.947  0.00  0.00    +0.000 C 
BRANCH  17  19
ATOM     19  C   UNL     1       1.019   0.089   0.169  0.00  0.00    +0.000 A 
ATOM     20  C   UNL     1       0.359   1.231   0.629  0.00  0.00    +0.000 A 
ATOM     21  C   UNL     1      -1.024   1.206   0.792  0.00  0.00    +0.000 A 
ATOM     22  C   UNL     1      -1.725   0.047   0.490  0.00  0.00    +0.000 A 
ATOM     23  C   UNL     1      -1.010  -1.040   0.028  0.00  0.00    +0.000 A 
ATOM     24  N   UNL     1       0.332  -1.041  -0.137  0.00  0.00    +0.000 NA
ENDBRANCH  17  19
ENDBRANCH  15  17
ENDBRANCH   1  15
TORSDOF 4
