REMARK  Name = 
REMARK  6 active torsions:
REMARK  status: ('A' for Active; 'I' for Inactive)
REMARK    1  A    between atoms: C_2  and  C_20
REMARK    2  A    between atoms: N_3  and  C_4
REMARK    3  A    between atoms: C_4  and  C_5
REMARK    4  A    between atoms: C_8  and  C_9
REMARK    5  A    between atoms: C_9  and  N_10
REMARK    6  A    between atoms: C_11  and  C_13
REMARK                            x       y       z     vdW  Elec       q    Type
REMARK                         _______ _______ _______ _____ _____    ______ ____
ROOT
ATOM      1  C   UNL     1       3.180   2.602   2.591  0.00  0.00    +0.000 A 
ATOM      2  C   UNL     1       3.050   3.993   2.479  0.00  0.00    +0.000 A 
ATOM      3  C   UNL     1       3.841   4.850   3.253  0.00  0.00    +0.000 A 
ATOM      4  C   UNL     1       4.797   4.336   4.140  0.00  0.00    +0.000 A 
ATOM      5  C   UNL     1       4.943   2.946   4.234  0.00  0.00    +0.000 A 
ATOM      6  C   UNL     1       4.152   2.089   3.460  0.00  0.00    +0.000 A 
ENDROOT
BRANCH   1   7
ATOM      7  C   UNL     1       2.275   1.681   1.814  0.00  0.00    +0.000 C 
BRANCH   7  10
ATOM      8  O   UNL     1       1.113  -0.130   0.095  0.00  0.00    +0.000 OA
ATOM      9  C   UNL     1       2.106   0.477  -0.300  0.00  0.00    +0.000 C 
ATOM     10  N   UNL     1       2.794   1.350   0.510  0.00  0.00    +0.000 N 
ATOM     11  H   UNL     1       3.470   1.986   0.100  0.00  0.00    +0.000 HD
BRANCH   9  12
ATOM     12  C   UNL     1       2.631   0.269  -1.655  0.00  0.00    +0.000 A 
ATOM     13  C   UNL     1       2.354  -0.914  -2.328  0.00  0.00    +0.000 A 
ATOM     14  S   UNL     1       3.038  -0.991  -3.888  0.00  0.00    +0.000 S 
ATOM     15  C   UNL     1       3.686   0.575  -3.740  0.00  0.00    +0.000 A 
ATOM     16  N   UNL     1       4.373   1.148  -4.765  0.00  0.00    +0.000 NA
ATOM     17  C   UNL     1       4.774   2.352  -4.529  0.00  0.00    +0.000 A 
ATOM     18  N   UNL     1       4.560   3.031  -3.357  0.00  0.00    +0.000 N 
ATOM     19  C   UNL     1       3.911   2.477  -2.280  0.00  0.00    +0.000 A 
ATOM     20  O   UNL     1       3.796   3.088  -1.222  0.00  0.00    +0.000 OA
ATOM     21  C   UNL     1       3.412   1.135  -2.504  0.00  0.00    +0.000 A 
ATOM     22  H   UNL     1       4.917   3.967  -3.230  0.00  0.00    +0.000 HD
ENDBRANCH   9  12
ENDBRANCH   7  10
ENDBRANCH   1   7
BRANCH   4  23
ATOM     23  C   UNL     1       5.648   5.255   4.979  0.00  0.00    +0.000 C 
BRANCH  23  24
ATOM     24  N   UNL     1       5.092   5.479   6.290  0.00  0.00    +0.000 N 
ATOM     25  C   UNL     1       5.697   6.334   7.186  0.00  0.00    +0.000 C 
ATOM     26  O   UNL     1       6.806   6.827   7.003  0.00  0.00    +0.000 OA
ATOM     27  H   UNL     1       4.120   5.250   6.489  0.00  0.00    +0.000 HD
BRANCH  25  28
ATOM     28  C   UNL     1       4.890   6.578   8.472  0.00  0.00    +0.000 C 
ATOM     29  C   UNL     1       5.183   5.553   9.550  0.00  0.00    +0.000 C 
ATOM     30  C   UNL     1       3.966   5.652  10.450  0.00  0.00    +0.000 C 
ATOM     31  C   UNL     1       2.830   6.061   9.523  0.00  0.00    +0.000 C 
ATOM     32  N   UNL     1       3.434   6.393   8.230  0.00  0.00    +0.000 NA
ATOM     33  H   UNL     1       3.040   7.261   7.865  0.00  0.00    +0.000 HD
ENDBRANCH  25  28
ENDBRANCH  23  24
ENDBRANCH   4  23
TORSDOF 6
