REMARK  Name = 
REMARK  9 active torsions:
REMARK  status: ('A' for Active; 'I' for Inactive)
REMARK    1  A    between atoms: C_1  and  C_2
REMARK    2  A    between atoms: C_2  and  C_3
REMARK    3  A    between atoms: C_3  and  N_4
REMARK    4  A    between atoms: C_3  and  C_26
REMARK    5  A    between atoms: N_4  and  C_5
REMARK    6  A    between atoms: C_5  and  C_6
REMARK    7  A    between atoms: C_9  and  C_10
REMARK    8  A    between atoms: C_10  and  N_11
REMARK    9  A    between atoms: C_12  and  C_14
REMARK                            x       y       z     vdW  Elec       q    Type
REMARK                         _______ _______ _______ _____ _____    ______ ____
ROOT
ATOM      1  C   UNL     1       0.668   3.048   2.210  0.00  0.00    +0.000 C 
ATOM      2  C   UNL     1       1.004   4.524   1.974  0.00  0.00    +0.000 C 
ATOM      3  C   UNL     1       0.712   5.387   3.198  0.00  0.00    +0.000 C 
ATOM      4  C   UNL     1       1.450   4.883   4.451  0.00  0.00    +0.000 C 
ATOM      5  C   UNL     1       1.194   3.385   4.690  0.00  0.00    +0.000 C 
ATOM      6  C   UNL     1       1.450   2.544   3.438  0.00  0.00    +0.000 C 
ENDROOT
BRANCH   1   7
ATOM      7  C   UNL     1      -0.841   2.769   2.391  0.00  0.00    +0.000 C 
BRANCH   7   8
ATOM      8  N   UNL     1      -1.651   3.192   1.248  0.00  0.00    +0.000 NA
ATOM      9  H   UNL     1      -1.521   4.187   1.079  0.00  0.00    +0.000 HD
BRANCH   8  10
ATOM     10  C   UNL     1      -3.095   2.924   1.404  0.00  0.00    +0.000 C 
BRANCH  10  11
ATOM     11  C   UNL     1      -3.374   1.429   1.562  0.00  0.00    +0.000 A 
ATOM     12  C   UNL     1      -3.394   0.598   0.430  0.00  0.00    +0.000 A 
ATOM     13  C   UNL     1      -3.568  -0.782   0.562  0.00  0.00    +0.000 A 
ATOM     14  C   UNL     1      -3.715  -1.356   1.822  0.00  0.00    +0.000 A 
ATOM     15  C   UNL     1      -3.691  -0.548   2.957  0.00  0.00    +0.000 A 
ATOM     16  C   UNL     1      -3.528   0.831   2.828  0.00  0.00    +0.000 A 
ENDBRANCH  10  11
BRANCH  10  18
ATOM     17  C   UNL     1      -3.648   5.290   2.335  0.00  0.00    +0.000 C 
ATOM     18  C   UNL     1      -3.808   3.783   2.482  0.00  0.00    +0.000 C 
ENDBRANCH  10  18
ENDBRANCH   8  10
ENDBRANCH   7   8
ENDBRANCH   1   7
BRANCH   4  19
ATOM     19  C   UNL     1       1.065   5.684   5.706  0.00  0.00    +0.000 C 
BRANCH  19  20
ATOM     20  N   UNL     1       1.378   7.090   5.565  0.00  0.00    +0.000 N 
ATOM     21  C   UNL     1       1.770   7.870   6.624  0.00  0.00    +0.000 C 
ATOM     22  O   UNL     1       1.936   7.418   7.752  0.00  0.00    +0.000 OA
ATOM     23  H   UNL     1       0.988   7.563   4.757  0.00  0.00    +0.000 HD
BRANCH  21  24
ATOM     24  C   UNL     1       2.058   9.276   6.310  0.00  0.00    +0.000 A 
ATOM     25  C   UNL     1       2.950   9.983   7.105  0.00  0.00    +0.000 A 
ATOM     26  S   UNL     1       3.226  11.578   6.570  0.00  0.00    +0.000 S 
ATOM     27  C   UNL     1       2.123  11.395   5.287  0.00  0.00    +0.000 A 
ATOM     28  N   UNL     1       1.868  12.423   4.433  0.00  0.00    +0.000 NA
ATOM     29  C   UNL     1       0.988  12.159   3.525  0.00  0.00    +0.000 A 
ATOM     30  N   UNL     1       0.343  10.956   3.392  0.00  0.00    +0.000 N 
ATOM     31  C   UNL     1       0.592   9.880   4.208  0.00  0.00    +0.000 A 
ATOM     32  O   UNL     1       0.038   8.799   4.028  0.00  0.00    +0.000 OA
ATOM     33  C   UNL     1       1.564  10.130   5.257  0.00  0.00    +0.000 A 
ATOM     34  H   UNL     1      -0.333  10.814   2.656  0.00  0.00    +0.000 HD
ENDBRANCH  21  24
ENDBRANCH  19  20
ENDBRANCH   4  19
TORSDOF 8
