REMARK  Name = 
REMARK  5 active torsions:
REMARK  status: ('A' for Active; 'I' for Inactive)
REMARK    1  A    between atoms: N_1  and  C_2
REMARK    2  A    between atoms: C_2  and  C_3
REMARK    3  A    between atoms: C_8  and  N_9
REMARK    4  A    between atoms: N_9  and  C_10
REMARK    5  A    between atoms: C_10  and  C_11
REMARK                            x       y       z     vdW  Elec       q    Type
REMARK                         _______ _______ _______ _____ _____    ______ ____
ROOT
ATOM      1  C   UNL     1       2.886   1.472  -0.059  0.00  0.00    +0.000 A 
ATOM      2  C   UNL     1       2.156   2.671   0.068  0.00  0.00    +0.000 A 
ATOM      3  C   UNL     1       2.765   3.902  -0.126  0.00  0.00    +0.000 A 
ATOM      4  C   UNL     1       4.100   3.902  -0.452  0.00  0.00    +0.000 A 
ATOM      5  N   UNL     1       4.843   2.780  -0.575  0.00  0.00    +0.000 NA
ATOM      6  C   UNL     1       4.254   1.578  -0.368  0.00  0.00    +0.000 A 
ENDROOT
BRANCH   6   7
ATOM      7  N   UNL     1       5.181   0.549  -0.412  0.00  0.00    +0.000 N 
ATOM      8  H   UNL     1       6.031   0.997  -0.758  0.00  0.00    +0.000 HD
BRANCH   7   9
ATOM      9  C   UNL     1       4.896  -0.711  -1.067  0.00  0.00    +0.000 C 
BRANCH   9  10
ATOM     10  C   UNL     1       6.117  -1.579  -1.243  0.00  0.00    +0.000 A 
ATOM     11  C   UNL     1       7.214  -1.571  -0.375  0.00  0.00    +0.000 A 
ATOM     12  C   UNL     1       8.249  -2.487  -0.558  0.00  0.00    +0.000 A 
ATOM     13  C   UNL     1       8.149  -3.397  -1.597  0.00  0.00    +0.000 A 
ATOM     14  N   UNL     1       7.101  -3.451  -2.445  0.00  0.00    +0.000 NA
ATOM     15  C   UNL     1       6.114  -2.550  -2.244  0.00  0.00    +0.000 A 
ENDBRANCH   9  10
ENDBRANCH   7   9
ENDBRANCH   6   7
BRANCH   1  16
ATOM     16  C   UNL     1       2.202   0.143   0.150  0.00  0.00    +0.000 C 
BRANCH  16  17
ATOM     17  N   UNL     1       0.779   0.203   0.501  0.00  0.00    +0.000 NA
ATOM     18  H   UNL     1       0.439  -0.749   0.635  0.00  0.00    +0.000 HD
ATOM     19  H   UNL     1       0.260   0.571  -0.296  0.00  0.00    +0.000 HD
ENDBRANCH  16  17
ENDBRANCH   1  16
TORSDOF 5
