REMARK  Name = 
REMARK  4 active torsions:
REMARK  status: ('A' for Active; 'I' for Inactive)
REMARK    1  A    between atoms: C_7  and  C_8
REMARK    2  A    between atoms: C_8  and  N_9
REMARK    3  A    between atoms: C_14  and  C_15
REMARK    4  A    between atoms: C_15  and  O_17
REMARK                            x       y       z     vdW  Elec       q    Type
REMARK                         _______ _______ _______ _____ _____    ______ ____
ROOT
ATOM      1  C   UNL     1       4.429  -4.449   1.228  0.00  0.00    +0.000 C 
ENDROOT
BRANCH   1   8
ATOM      2  N   UNL     1       1.072  -0.163  -0.203  0.00  0.00    +0.000 NA
ATOM      3  C   UNL     1       2.351  -0.075  -0.117  0.00  0.00    +0.000 C 
ATOM      4  N   UNL     1       2.986   1.114  -0.048  0.00  0.00    +0.000 N 
ATOM      5  N   UNL     1       3.210  -1.141  -0.124  0.00  0.00    +0.000 N 
ATOM      6  C   UNL     1       4.137  -1.275   1.007  0.00  0.00    +0.000 C 
ATOM      7  C   UNL     1       5.339  -2.110   0.585  0.00  0.00    +0.000 C 
ATOM      8  C   UNL     1       4.927  -3.510   0.102  0.00  0.00    +0.000 C 
ATOM      9  C   UNL     1       3.861  -3.346  -1.002  0.00  0.00    +0.000 C 
ATOM     10  C   UNL     1       2.694  -2.440  -0.588  0.00  0.00    +0.000 C 
ATOM     11  H   UNL     1       0.670   0.774  -0.150  0.00  0.00    +0.000 HD
ATOM     12  H   UNL     1       2.451   1.902  -0.387  0.00  0.00    +0.000 HD
ATOM     13  H   UNL     1       3.895   1.072  -0.495  0.00  0.00    +0.000 HD
ENDBRANCH   1   8
BRANCH   1  14
ATOM     14  N   UNL     1       5.420  -4.724   2.264  0.00  0.00    +0.000 N 
ATOM     15  C   UNL     1       6.355  -5.724   2.180  0.00  0.00    +0.000 A 
ATOM     16  C   UNL     1       7.179  -5.632   3.280  0.00  0.00    +0.000 A 
ATOM     17  C   UNL     1       6.728  -4.540   4.068  0.00  0.00    +0.000 A 
ATOM     18  C   UNL     1       7.189  -3.948   5.261  0.00  0.00    +0.000 A 
ATOM     19  C   UNL     1       6.496  -2.851   5.801  0.00  0.00    +0.000 A 
ATOM     20  C   UNL     1       5.305  -2.414   5.219  0.00  0.00    +0.000 A 
ATOM     21  C   UNL     1       4.820  -3.015   4.053  0.00  0.00    +0.000 A 
ATOM     22  C   UNL     1       5.574  -4.038   3.457  0.00  0.00    +0.000 A 
BRANCH  19  23
ATOM     23  C   UNL     1       7.038  -2.214   7.027  0.00  0.00    +0.000 C 
ATOM     24  O   UNL     1       7.642  -2.831   7.888  0.00  0.00    +0.000 OA
BRANCH  23  25
ATOM     25  O   UNL     1       6.843  -0.880   7.075  0.00  0.00    +0.000 OA
ATOM     26  H   UNL     1       6.515  -0.481   6.248  0.00  0.00    +0.000 HD
ENDBRANCH  23  25
ENDBRANCH  19  23
ENDBRANCH   1  14
TORSDOF 4
