REMARK  Name = 
REMARK  4 active torsions:
REMARK  status: ('A' for Active; 'I' for Inactive)
REMARK    1  A    between atoms: C_2  and  C_4
REMARK    2  A    between atoms: N_8  and  C_9
REMARK    3  A    between atoms: C_9  and  C_10
REMARK    4  A    between atoms: C_14  and  C_15
REMARK                            x       y       z     vdW  Elec       q    Type
REMARK                         _______ _______ _______ _____ _____    ______ ____
ROOT
ATOM      1  C   UNL     1       4.866   5.316  -2.848  0.00  0.00    +0.000 C 
ATOM      2  C   UNL     1       5.194   6.353  -1.788  0.00  0.00    +0.000 C 
ATOM      3  C   UNL     1       3.837   6.338  -2.395  0.00  0.00    +0.000 C 
ENDROOT
BRANCH   1   8
ATOM      4  C   UNL     1       2.852   0.499  -2.565  0.00  0.00    +0.000 A 
ATOM      5  C   UNL     1       2.164   1.710  -2.476  0.00  0.00    +0.000 A 
ATOM      6  C   UNL     1       2.882   2.906  -2.464  0.00  0.00    +0.000 A 
ATOM      7  C   UNL     1       4.267   2.856  -2.512  0.00  0.00    +0.000 A 
ATOM      8  N   UNL     1       5.082   3.964  -2.305  0.00  0.00    +0.000 N 
ATOM      9  N   UNL     1       4.944   1.690  -2.609  0.00  0.00    +0.000 NA
ATOM     10  C   UNL     1       4.229   0.539  -2.629  0.00  0.00    +0.000 A 
ATOM     11  H   UNL     1       6.024   3.599  -2.457  0.00  0.00    +0.000 HD
BRANCH   4  13
ATOM     12  N   UNL     1       0.895  -0.847  -3.042  0.00  0.00    +0.000 N 
ATOM     13  C   UNL     1       2.178  -0.801  -2.546  0.00  0.00    +0.000 C 
ATOM     14  O   UNL     1       2.738  -1.820  -2.152  0.00  0.00    +0.000 OA
ATOM     15  H   UNL     1       0.484  -1.775  -3.109  0.00  0.00    +0.000 HD
ATOM     16  H   UNL     1       0.505  -0.105  -3.583  0.00  0.00    +0.000 HD
ENDBRANCH   4  13
ENDBRANCH   1   8
BRANCH   1  17
ATOM     17  C   UNL     1       5.285   5.395  -4.312  0.00  0.00    +0.000 A 
ATOM     18  C   UNL     1       6.606   5.149  -4.712  0.00  0.00    +0.000 A 
ATOM     19  C   UNL     1       6.907   4.821  -6.036  0.00  0.00    +0.000 A 
ATOM     20  C   UNL     1       5.895   4.765  -6.996  0.00  0.00    +0.000 A 
ATOM     21  C   UNL     1       4.581   5.096  -6.656  0.00  0.00    +0.000 A 
ATOM     22  C   UNL     1       4.306   5.443  -5.323  0.00  0.00    +0.000 A 
BRANCH  21  23
ATOM     23  C   UNL     1       3.455   4.965  -7.669  0.00  0.00    +0.000 C 
ATOM     24  C   UNL     1       2.791   6.316  -7.973  0.00  0.00    +0.000 C 
ATOM     25  C   UNL     1       1.555   6.136  -8.845  0.00  0.00    +0.000 C 
ATOM     26  O   UNL     1       0.644   5.211  -8.252  0.00  0.00    +0.000 OA
ATOM     27  C   UNL     1       1.210   3.908  -8.134  0.00  0.00    +0.000 C 
ATOM     28  C   UNL     1       2.410   3.933  -7.203  0.00  0.00    +0.000 C 
ENDBRANCH  21  23
ENDBRANCH   1  17
TORSDOF 4
