REMARK  Name = 
REMARK  8 active torsions:
REMARK  status: ('A' for Active; 'I' for Inactive)
REMARK    1  A    between atoms: C_1  and  C_2
REMARK    2  A    between atoms: C_2  and  C_3
REMARK    3  A    between atoms: C_2  and  C_4
REMARK    4  A    between atoms: C_2  and  C_19
REMARK    5  A    between atoms: C_4  and  N_5
REMARK    6  A    between atoms: C_10  and  O_11
REMARK    7  A    between atoms: O_11  and  C_12
REMARK    8  A    between atoms: C_22  and  C_23
REMARK                            x       y       z     vdW  Elec       q    Type
REMARK                         _______ _______ _______ _____ _____    ______ ____
ROOT
ATOM      1  C   UNL     1       3.109   1.331   0.642  0.00  0.00    +0.000 C 
ENDROOT
BRANCH   1   2
ATOM      2  N   UNL     1       2.751   2.523  -0.108  0.00  0.00    +0.000 N 
ATOM      3  C   UNL     1       3.220   3.704   0.447  0.00  0.00    +0.000 A 
ATOM      4  N   UNL     1       2.454   4.781   0.245  0.00  0.00    +0.000 NA
ATOM      5  C   UNL     1       2.878   5.941   0.774  0.00  0.00    +0.000 A 
ATOM      6  C   UNL     1       4.029   6.057   1.501  0.00  0.00    +0.000 A 
ATOM      7  C   UNL     1       4.739   4.891   1.660  0.00  0.00    +0.000 A 
ATOM      8  N   UNL     1       4.358   3.711   1.155  0.00  0.00    +0.000 NA
ATOM      9  H   UNL     1       1.759   2.668  -0.276  0.00  0.00    +0.000 HD
BRANCH   7  10
ATOM     10  O   UNL     1       5.942   4.952   2.341  0.00  0.00    +0.000 OA
BRANCH  10  11
ATOM     11  C   UNL     1       6.356   3.751   3.038  0.00  0.00    +0.000 C 
ATOM     12  C   UNL     1       7.761   3.849   3.670  0.00  0.00    +0.000 C 
ATOM     13  C   UNL     1       8.063   2.425   3.179  0.00  0.00    +0.000 C 
ATOM     14  F   UNL     1       9.266   2.257   2.587  0.00  0.00    +0.000 F 
ATOM     15  F   UNL     1       7.960   1.461   4.123  0.00  0.00    +0.000 F 
ATOM     16  C   UNL     1       6.864   2.541   2.224  0.00  0.00    +0.000 C 
ENDBRANCH  10  11
ENDBRANCH   7  10
ENDBRANCH   1   2
BRANCH   1  18
ATOM     17  C   UNL     1       3.315  -0.096  -1.424  0.00  0.00    +0.000 C 
ATOM     18  C   UNL     1       2.604   0.033  -0.054  0.00  0.00    +0.000 C 
ATOM     19  C   UNL     1       3.063  -1.164   0.816  0.00  0.00    +0.000 C 
BRANCH  18  20
ATOM     20  C   UNL     1       1.072   0.000  -0.180  0.00  0.00    +0.000 A 
ATOM     21  C   UNL     1       0.416  -0.126  -1.413  0.00  0.00    +0.000 A 
ATOM     22  C   UNL     1      -0.971  -0.209  -1.483  0.00  0.00    +0.000 A 
ATOM     23  C   UNL     1      -1.682  -0.159  -0.296  0.00  0.00    +0.000 A 
ATOM     24  N   UNL     1      -1.106  -0.013   0.927  0.00  0.00    +0.000 NA
ATOM     25  C   UNL     1       0.247   0.061   0.951  0.00  0.00    +0.000 A 
BRANCH  23  26
ATOM     26  C   UNL     1      -3.176  -0.290  -0.331  0.00  0.00    +0.000 C 
ATOM     27  N   UNL     1      -3.794  -0.242   0.888  0.00  0.00    +0.000 N 
ATOM     28  O   UNL     1      -3.808  -0.441  -1.374  0.00  0.00    +0.000 OA
ATOM     29  H   UNL     1      -3.236  -0.140   1.726  0.00  0.00    +0.000 HD
ATOM     30  H   UNL     1      -4.795  -0.359   0.942  0.00  0.00    +0.000 HD
ENDBRANCH  23  26
ENDBRANCH  18  20
ENDBRANCH   1  18
TORSDOF 6
