REMARK  Name = 
REMARK  4 active torsions:
REMARK  status: ('A' for Active; 'I' for Inactive)
REMARK    1  A    between atoms: N_6  and  C_7
REMARK    2  A    between atoms: C_7  and  C_8
REMARK    3  A    between atoms: C_8  and  C_9
REMARK    4  A    between atoms: C_13  and  N_14
REMARK                            x       y       z     vdW  Elec       q    Type
REMARK                         _______ _______ _______ _____ _____    ______ ____
ROOT
ATOM      1  C   UNL     1      -7.320   2.423   0.590  0.00  0.00    +0.000 A 
ATOM      2  C   UNL     1      -6.627   3.622   0.532  0.00  0.00    +0.000 A 
ATOM      3  N   UNL     1      -7.247   4.817   0.565  0.00  0.00    +0.000 NA
ATOM      4  C   UNL     1      -8.603   4.755   0.662  0.00  0.00    +0.000 A 
ATOM      5  C   UNL     1      -9.350   3.574   0.736  0.00  0.00    +0.000 A 
ATOM      6  N   UNL     1      -8.676   2.400   0.686  0.00  0.00    +0.000 NA
ENDROOT
BRANCH   5   7
ATOM      7  N   UNL     1     -10.730   3.549   0.806  0.00  0.00    +0.000 N 
ATOM      8  C   UNL     1     -11.519   4.641   1.374  0.00  0.00    +0.000 C 
ATOM      9  C   UNL     1     -12.189   4.191   2.675  0.00  0.00    +0.000 C 
ATOM     10  C   UNL     1     -12.989   2.907   2.475  0.00  0.00    +0.000 C 
ATOM     11  C   UNL     1     -12.106   1.813   1.880  0.00  0.00    +0.000 C 
ATOM     12  C   UNL     1     -11.437   2.284   0.590  0.00  0.00    +0.000 C 
ENDBRANCH   5   7
BRANCH   1  13
ATOM     13  C   UNL     1      -6.572   1.114   0.518  0.00  0.00    +0.000 C 
BRANCH  13  14
ATOM     14  C   UNL     1      -7.484  -0.103   0.690  0.00  0.00    +0.000 C 
BRANCH  14  20
ATOM     15 BR   UNL     1     -10.072  -6.283   1.041  0.00  0.00    +0.000 Br
ATOM     16  C   UNL     1      -9.021  -4.734   0.922  0.00  0.00    +0.000 A 
ATOM     17  C   UNL     1      -7.872  -4.674   0.175  0.00  0.00    +0.000 A 
ATOM     18  N   UNL     1      -7.107  -3.563   0.063  0.00  0.00    +0.000 NA
ATOM     19  C   UNL     1      -7.508  -2.479   0.744  0.00  0.00    +0.000 A 
ATOM     20  N   UNL     1      -6.715  -1.342   0.610  0.00  0.00    +0.000 N 
ATOM     21  N   UNL     1      -8.617  -2.447   1.501  0.00  0.00    +0.000 NA
ATOM     22  C   UNL     1      -9.354  -3.574   1.574  0.00  0.00    +0.000 A 
ATOM     23  H   UNL     1      -6.181  -1.482  -0.242  0.00  0.00    +0.000 HD
ENDBRANCH  14  20
ENDBRANCH  13  14
ENDBRANCH   1  13
TORSDOF 4
