REMARK  Name = 
REMARK  7 active torsions:
REMARK  status: ('A' for Active; 'I' for Inactive)
REMARK    1  A    between atoms: N_1  and  C_2
REMARK    2  A    between atoms: C_2  and  C_3
REMARK    3  A    between atoms: C_3  and  C_4
REMARK    4  A    between atoms: C_8  and  C_9
REMARK    5  A    between atoms: C_9  and  N_10
REMARK    6  A    between atoms: C_15  and  C_16
REMARK    7  A    between atoms: C_16  and  O_18
REMARK                            x       y       z     vdW  Elec       q    Type
REMARK                         _______ _______ _______ _____ _____    ______ ____
ROOT
ATOM      1  N   UNL     1       8.829   1.196   2.062  0.00  0.00    +0.000 N 
ATOM      2  N   UNL     1       9.388   1.698   0.935  0.00  0.00    +0.000 NA
ATOM      3  C   UNL     1      10.698   1.659   1.184  0.00  0.00    +0.000 A 
ATOM      4  C   UNL     1      10.995   1.138   2.460  0.00  0.00    +0.000 A 
ATOM      5  C   UNL     1      12.166   0.923   3.207  0.00  0.00    +0.000 A 
ATOM      6  C   UNL     1      12.064   0.398   4.506  0.00  0.00    +0.000 A 
ATOM      7  C   UNL     1      10.809   0.085   5.045  0.00  0.00    +0.000 A 
ATOM      8  C   UNL     1       9.632   0.281   4.302  0.00  0.00    +0.000 A 
ATOM      9  C   UNL     1       9.757   0.822   3.014  0.00  0.00    +0.000 A 
ENDROOT
BRANCH   6  10
ATOM     10  C   UNL     1      13.328   0.272   5.284  0.00  0.00    +0.000 C 
ATOM     11  O   UNL     1      14.297   0.981   5.079  0.00  0.00    +0.000 OA
BRANCH  10  12
ATOM     12  O   UNL     1      13.324  -0.710   6.211  0.00  0.00    +0.000 OA
ATOM     13  H   UNL     1      12.564  -1.321   6.178  0.00  0.00    +0.000 HD
ENDBRANCH  10  12
ENDBRANCH   6  10
BRANCH   1  14
ATOM     14  C   UNL     1       7.385   1.278   2.229  0.00  0.00    +0.000 C 
BRANCH  14  19
ATOM     15  C   UNL     1       5.184  -1.688   2.209  0.00  0.00    +0.000 A 
ATOM     16  C   UNL     1       5.135  -2.066   0.871  0.00  0.00    +0.000 A 
ATOM     17  C   UNL     1       5.906  -1.366  -0.050  0.00  0.00    +0.000 A 
ATOM     18  C   UNL     1       6.686  -0.299   0.382  0.00  0.00    +0.000 A 
ATOM     19  C   UNL     1       6.662   0.053   1.730  0.00  0.00    +0.000 A 
ATOM     20  N   UNL     1       5.919  -0.632   2.642  0.00  0.00    +0.000 NA
BRANCH  15  21
ATOM     21  C   UNL     1       4.412  -2.463   3.245  0.00  0.00    +0.000 C 
BRANCH  21  22
ATOM     22  C   UNL     1       2.996  -1.920   3.437  0.00  0.00    +0.000 C 
BRANCH  22  23
ATOM     23  N   UNL     1       2.268  -2.704   4.438  0.00  0.00    +0.000 NA
ATOM     24  H   UNL     1       1.348  -2.290   4.584  0.00  0.00    +0.000 HD
ATOM     25  H   UNL     1       2.749  -2.639   5.335  0.00  0.00    +0.000 HD
ENDBRANCH  22  23
ENDBRANCH  21  22
ENDBRANCH  15  21
ENDBRANCH  14  19
ENDBRANCH   1  14
TORSDOF 7
