REMARK  Name = 
REMARK  6 active torsions:
REMARK  status: ('A' for Active; 'I' for Inactive)
REMARK    1  A    between atoms: C_1  and  C_2
REMARK    2  A    between atoms: C_4  and  N_5
REMARK    3  A    between atoms: C_4  and  C_16
REMARK    4  A    between atoms: N_5  and  C_6
REMARK    5  A    between atoms: C_9  and  C_10
REMARK    6  A    between atoms: C_16  and  C_17
REMARK                            x       y       z     vdW  Elec       q    Type
REMARK                         _______ _______ _______ _____ _____    ______ ____
ROOT
ATOM      1  N   UNL     1       4.496  -1.587  -0.940  0.00  0.00    +0.000 N 
ATOM      2  H   UNL     1       4.921  -2.008  -1.765  0.00  0.00    +0.000 HD
ENDROOT
BRANCH   1   3
ATOM      3  C   UNL     1       4.805  -2.338   0.222  0.00  0.00    +0.000 A 
ATOM      4  C   UNL     1       6.165  -2.517   0.530  0.00  0.00    +0.000 A 
ATOM      5  C   UNL     1       6.571  -3.226   1.668  0.00  0.00    +0.000 A 
ATOM      6  C   UNL     1       5.612  -3.779   2.523  0.00  0.00    +0.000 A 
ATOM      7  C   UNL     1       4.257  -3.619   2.227  0.00  0.00    +0.000 A 
ATOM      8  C   UNL     1       3.866  -2.900   1.097  0.00  0.00    +0.000 A 
ATOM      9  F   UNL     1       2.550  -2.797   0.858  0.00  0.00    +0.000 F 
BRANCH   6  10
ATOM     10  C   UNL     1       5.980  -4.564   3.729  0.00  0.00    +0.000 C 
ATOM     11  N   UNL     1       7.207  -4.349   4.282  0.00  0.00    +0.000 N 
ATOM     12  O   UNL     1       5.200  -5.367   4.233  0.00  0.00    +0.000 OA
ATOM     13  H   UNL     1       7.782  -3.551   4.059  0.00  0.00    +0.000 HD
ATOM     14  H   UNL     1       7.385  -4.827   5.155  0.00  0.00    +0.000 HD
ENDBRANCH   6  10
ENDBRANCH   1   3
BRANCH   1  18
ATOM     15  C   UNL     1       1.207   0.225   0.348  0.00  0.00    +0.000 C 
ATOM     16  C   UNL     1       2.634  -0.058   0.042  0.00  0.00    +0.000 C 
ATOM     17  C   UNL     1       3.331   0.659  -1.065  0.00  0.00    +0.000 C 
ATOM     18  C   UNL     1       3.192  -0.870  -1.160  0.00  0.00    +0.000 C 
BRANCH  18  19
ATOM     19  C   UNL     1       2.352  -1.416  -2.367  0.00  0.00    +0.000 C 
ATOM     20  C   UNL     1       2.356  -2.965  -2.371  0.00  0.00    +0.000 C 
ATOM     21  C   UNL     1       0.900  -0.918  -2.463  0.00  0.00    +0.000 C 
ATOM     22  C   UNL     1       0.478  -1.086  -3.919  0.00  0.00    +0.000 C 
ATOM     23  C   UNL     1       1.768  -1.055  -4.730  0.00  0.00    +0.000 C 
ATOM     24  C   UNL     1       2.908  -0.904  -3.720  0.00  0.00    +0.000 C 
ENDBRANCH  18  19
ENDBRANCH   1  18
TORSDOF 4
