REMARK  Name = 
REMARK  5 active torsions:
REMARK  status: ('A' for Active; 'I' for Inactive)
REMARK    1  A    between atoms: C_2  and  C_4
REMARK    2  A    between atoms: C_7  and  O_8
REMARK    3  A    between atoms: O_8  and  C_9
REMARK    4  A    between atoms: C_9  and  C_10
REMARK    5  A    between atoms: C_10  and  C_13
REMARK                            x       y       z     vdW  Elec       q    Type
REMARK                         _______ _______ _______ _____ _____    ______ ____
ROOT
ATOM      1  C   UNL     1       2.828  -1.484  -0.616  0.00  0.00    +0.000 A 
ATOM      2  C   UNL     1       3.374  -1.968   0.574  0.00  0.00    +0.000 A 
ATOM      3  C   UNL     1       4.204  -3.091   0.535  0.00  0.00    +0.000 A 
ATOM      4  C   UNL     1       4.435  -3.702  -0.690  0.00  0.00    +0.000 A 
ATOM      5  N   UNL     1       3.918  -3.258  -1.854  0.00  0.00    +0.000 NA
ATOM      6  C   UNL     1       3.124  -2.162  -1.792  0.00  0.00    +0.000 A 
ENDROOT
BRANCH   1   8
ATOM      7  N   UNL     1       2.041   0.630   0.292  0.00  0.00    +0.000 N 
ATOM      8  C   UNL     1       1.931  -0.313  -0.690  0.00  0.00    +0.000 C 
ATOM      9  O   UNL     1       1.146  -0.170  -1.616  0.00  0.00    +0.000 OA
ATOM     10  H   UNL     1       1.497   1.475   0.161  0.00  0.00    +0.000 HD
ATOM     11  H   UNL     1       2.831   0.681   0.917  0.00  0.00    +0.000 HD
ENDBRANCH   1   8
BRANCH   4  12
ATOM     12  O   UNL     1       5.262  -4.804  -0.699  0.00  0.00    +0.000 OA
BRANCH  12  13
ATOM     13  C   UNL     1       5.060  -5.624  -1.866  0.00  0.00    +0.000 C 
BRANCH  13  14
ATOM     14  C   UNL     1       6.051  -6.796  -1.880  0.00  0.00    +0.000 C 
ATOM     15  F   UNL     1       7.321  -6.291  -1.946  0.00  0.00    +0.000 F 
ATOM     16  F   UNL     1       5.985  -7.443  -0.677  0.00  0.00    +0.000 F 
BRANCH  14  17
ATOM     17  C   UNL     1       5.762  -7.737  -3.037  0.00  0.00    +0.000 A 
ATOM     18  C   UNL     1       6.343  -7.523  -4.297  0.00  0.00    +0.000 A 
ATOM     19  C   UNL     1       6.076  -8.392  -5.358  0.00  0.00    +0.000 A 
ATOM     20  C   UNL     1       5.227  -9.481  -5.173  0.00  0.00    +0.000 A 
ATOM     21  C   UNL     1       4.639  -9.702  -3.929  0.00  0.00    +0.000 A 
ATOM     22  C   UNL     1       4.903  -8.835  -2.867  0.00  0.00    +0.000 A 
ENDBRANCH  14  17
ENDBRANCH  13  14
ENDBRANCH  12  13
ENDBRANCH   4  12
TORSDOF 5
