REMARK  Name = 
REMARK  8 active torsions:
REMARK  status: ('A' for Active; 'I' for Inactive)
REMARK    1  A    between atoms: C_1  and  C_2
REMARK    2  A    between atoms: C_2  and  C_3
REMARK    3  A    between atoms: C_7  and  C_8
REMARK    4  A    between atoms: C_8  and  C_9
REMARK    5  A    between atoms: C_9  and  N_10
REMARK    6  A    between atoms: N_10  and  C_11
REMARK    7  A    between atoms: C_14  and  C_15
REMARK    8  A    between atoms: C_23  and  O_24
REMARK                            x       y       z     vdW  Elec       q    Type
REMARK                         _______ _______ _______ _____ _____    ______ ____
ROOT
ATOM      1  C   UNL     1       3.055   0.357   1.361  0.00  0.00    +0.000 A 
ATOM      2  C   UNL     1       2.773   1.612   1.922  0.00  0.00    +0.000 A 
ATOM      3  C   UNL     1       3.081   1.889   3.259  0.00  0.00    +0.000 A 
ATOM      4  C   UNL     1       3.652   0.910   4.075  0.00  0.00    +0.000 A 
ATOM      5  C   UNL     1       3.952  -0.349   3.553  0.00  0.00    +0.000 A 
ATOM      6  C   UNL     1       3.688  -0.578   2.190  0.00  0.00    +0.000 A 
ENDROOT
BRANCH   1   8
ATOM      7  C   UNL     1       1.025  -0.003  -0.011  0.00  0.00    +0.000 C 
ATOM      8  C   UNL     1       2.573  -0.029  -0.057  0.00  0.00    +0.000 C 
ATOM      9  C   UNL     1       3.115   0.976  -1.107  0.00  0.00    +0.000 C 
ATOM     10  C   UNL     1       2.751   0.608  -2.547  0.00  0.00    +0.000 C 
ATOM     11  C   UNL     1       3.181  -0.810  -2.911  0.00  0.00    +0.000 C 
ATOM     12  C   UNL     1       2.652  -1.836  -1.917  0.00  0.00    +0.000 C 
ATOM     13  C   UNL     1       3.030  -1.460  -0.489  0.00  0.00    +0.000 C 
BRANCH  11  14
ATOM     14  O   UNL     1       2.716  -1.135  -4.215  0.00  0.00    +0.000 OA
ATOM     15  H   UNL     1       1.744  -1.166  -4.191  0.00  0.00    +0.000 HD
ENDBRANCH  11  14
ENDBRANCH   1   8
BRANCH   5  16
ATOM     16  C   UNL     1       4.471  -1.454   4.463  0.00  0.00    +0.000 C 
BRANCH  16  17
ATOM     17  C   UNL     1       4.765  -2.760   3.712  0.00  0.00    +0.000 C 
BRANCH  17  18
ATOM     18  N   UNL     1       5.188  -3.870   4.568  0.00  0.00    +0.000 N 
ATOM     19  H   UNL     1       4.550  -4.013   5.351  0.00  0.00    +0.000 HD
BRANCH  18  20
ATOM     20  C   UNL     1       5.406  -5.073   3.860  0.00  0.00    +0.000 A 
ATOM     21  C   UNL     1       5.945  -5.153   2.579  0.00  0.00    +0.000 A 
ATOM     22  N   UNL     1       6.208  -6.296   1.909  0.00  0.00    +0.000 NA
ATOM     23  C   UNL     1       5.948  -7.431   2.592  0.00  0.00    +0.000 A 
ATOM     24  N   UNL     1       5.464  -7.501   3.846  0.00  0.00    +0.000 NA
ATOM     25  C   UNL     1       5.223  -6.315   4.448  0.00  0.00    +0.000 A 
BRANCH  23  26
ATOM     26  C   UNL     1       6.261  -8.724   1.868  0.00  0.00    +0.000 C 
ATOM     27  N   UNL     1       6.769  -8.581   0.597  0.00  0.00    +0.000 N 
ATOM     28  O   UNL     1       6.091  -9.836   2.351  0.00  0.00    +0.000 OA
ATOM     29  H   UNL     1       6.930  -7.658   0.211  0.00  0.00    +0.000 HD
ATOM     30  H   UNL     1       7.022  -9.409   0.076  0.00  0.00    +0.000 HD
ENDBRANCH  23  26
ENDBRANCH  18  20
ENDBRANCH  17  18
ENDBRANCH  16  17
ENDBRANCH   5  16
TORSDOF 7
