REMARK  Name = 
REMARK  4 active torsions:
REMARK  status: ('A' for Active; 'I' for Inactive)
REMARK    1  A    between atoms: C_2  and  C_5
REMARK    2  A    between atoms: N_10  and  C_11
REMARK    3  A    between atoms: C_11  and  C_12
REMARK    4  A    between atoms: C_14  and  C_15
REMARK                            x       y       z     vdW  Elec       q    Type
REMARK                         _______ _______ _______ _____ _____    ______ ____
ROOT
ATOM      1  C   UNL     1       1.951   5.038   1.003  0.00  0.00    +0.000 C 
ENDROOT
BRANCH   1   7
ATOM      2  C   UNL     1       2.695   0.797   1.544  0.00  0.00    +0.000 A 
ATOM      3  C   UNL     1       4.013   0.494   1.887  0.00  0.00    +0.000 A 
ATOM      4  C   UNL     1       4.857   1.538   2.202  0.00  0.00    +0.000 A 
ATOM      5  N   UNL     1       4.480   2.839   2.200  0.00  0.00    +0.000 NA
ATOM      6  C   UNL     1       3.208   3.135   1.877  0.00  0.00    +0.000 A 
ATOM      7  N   UNL     1       2.853   4.469   1.993  0.00  0.00    +0.000 N 
ATOM      8  C   UNL     1       2.299   2.140   1.542  0.00  0.00    +0.000 A 
ATOM      9  H   UNL     1       3.720   4.999   2.097  0.00  0.00    +0.000 HD
BRANCH   2  11
ATOM     10  F   UNL     1       2.190  -1.535   1.302  0.00  0.00    +0.000 F 
ATOM     11  C   UNL     1       1.695  -0.270   1.202  0.00  0.00    +0.000 C 
ATOM     12  F   UNL     1       1.224  -0.151  -0.070  0.00  0.00    +0.000 F 
ATOM     13  F   UNL     1       0.600  -0.231   2.009  0.00  0.00    +0.000 F 
ENDBRANCH   2  11
ENDBRANCH   1   7
BRANCH   1  14
ATOM     14  C   UNL     1       1.758   6.524   1.247  0.00  0.00    +0.000 A 
ATOM     15  C   UNL     1       0.821   6.968   2.186  0.00  0.00    +0.000 A 
ATOM     16  C   UNL     1       0.640   8.342   2.410  0.00  0.00    +0.000 A 
ATOM     17  C   UNL     1       1.449   9.212   1.667  0.00  0.00    +0.000 A 
ATOM     18  C   UNL     1       2.363   8.693   0.764  0.00  0.00    +0.000 A 
ATOM     19  N   UNL     1       2.536   7.377   0.540  0.00  0.00    +0.000 NA
BRANCH  16  20
ATOM     20  C   UNL     1      -0.350   8.851   3.386  0.00  0.00    +0.000 A 
ATOM     21  C   UNL     1      -1.038  10.055   3.187  0.00  0.00    +0.000 A 
ATOM     22  N   UNL     1      -1.942  10.596   4.044  0.00  0.00    +0.000 NA
ATOM     23  C   UNL     1      -2.195   9.899   5.172  0.00  0.00    +0.000 A 
ATOM     24  C   UNL     1      -1.590   8.691   5.470  0.00  0.00    +0.000 A 
ATOM     25 BR   UNL     1      -2.011   7.771   7.061  0.00  0.00    +0.000 Br
ATOM     26  C   UNL     1      -0.660   8.166   4.572  0.00  0.00    +0.000 A 
ENDBRANCH  16  20
ENDBRANCH   1  14
TORSDOF 4
