REMARK  Name = 
REMARK  7 active torsions:
REMARK  status: ('A' for Active; 'I' for Inactive)
REMARK    1  A    between atoms: C_1  and  C_2
REMARK    2  A    between atoms: C_2  and  N_3
REMARK    3  A    between atoms: C_2  and  C_17
REMARK    4  A    between atoms: N_3  and  C_4
REMARK    5  A    between atoms: C_7  and  C_8
REMARK    6  A    between atoms: C_8  and  N_9
REMARK    7  A    between atoms: N_9  and  C_10
REMARK                            x       y       z     vdW  Elec       q    Type
REMARK                         _______ _______ _______ _____ _____    ______ ____
ROOT
ATOM      1  N   UNL     1       1.026   0.046  -0.011  0.00  0.00    +0.000 N 
ATOM      2  H   UNL     1       1.118   0.137   1.006  0.00  0.00    +0.000 HD
ENDROOT
BRANCH   1   3
ATOM      3  C   UNL     1       0.295  -1.075  -0.392  0.00  0.00    +0.000 A 
ATOM      4  C   UNL     1       0.799  -2.120  -1.165  0.00  0.00    +0.000 A 
ATOM      5  C   UNL     1       0.032  -3.269  -1.411  0.00  0.00    +0.000 A 
ATOM      6  C   UNL     1      -1.272  -3.397  -0.918  0.00  0.00    +0.000 A 
ATOM      7  C   UNL     1      -1.814  -2.317  -0.221  0.00  0.00    +0.000 A 
ATOM      8  C   UNL     1      -1.033  -1.178   0.045  0.00  0.00    +0.000 A 
BRANCH   6   9
ATOM      9  C   UNL     1      -2.050  -4.685  -1.107  0.00  0.00    +0.000 C 
BRANCH   9  10
ATOM     10  N   UNL     1      -1.392  -5.786  -0.397  0.00  0.00    +0.000 NA
ATOM     11  H   UNL     1      -1.356  -5.572   0.601  0.00  0.00    +0.000 HD
BRANCH  10  12
ATOM     12  C   UNL     1      -1.992  -7.105  -0.621  0.00  0.00    +0.000 C 
ATOM     13  C   UNL     1      -3.379  -7.309  -0.012  0.00  0.00    +0.000 C 
ATOM     14  C   UNL     1      -3.116  -8.009   1.305  0.00  0.00    +0.000 C 
ATOM     15  N   UNL     1      -2.018  -8.931   1.006  0.00  0.00    +0.000 NA
ATOM     16  C   UNL     1      -1.142  -8.198   0.073  0.00  0.00    +0.000 C 
ATOM     17  H   UNL     1      -2.395  -9.747   0.524  0.00  0.00    +0.000 HD
ENDBRANCH  10  12
ENDBRANCH   9  10
ENDBRANCH   6   9
ENDBRANCH   1   3
BRANCH   1  19
ATOM     18  C   UNL     1       2.242   2.069  -0.492  0.00  0.00    +0.000 C 
ATOM     19  C   UNL     1       2.182   0.556  -0.744  0.00  0.00    +0.000 C 
BRANCH  19  20
ATOM     20  C   UNL     1       3.557  -0.075  -0.555  0.00  0.00    +0.000 A 
ATOM     21  C   UNL     1       4.422  -0.245  -1.626  0.00  0.00    +0.000 A 
ATOM     22  S   UNL     1       5.873  -1.041  -1.217  0.00  0.00    +0.000 S 
ATOM     23  C   UNL     1       5.443  -1.101   0.423  0.00  0.00    +0.000 A 
ATOM     24  N   UNL     1       6.291  -1.637   1.345  0.00  0.00    +0.000 NA
ATOM     25  C   UNL     1       5.882  -1.542   2.565  0.00  0.00    +0.000 A 
ATOM     26  N   UNL     1       4.699  -0.962   2.949  0.00  0.00    +0.000 N 
ATOM     27  C   UNL     1       3.791  -0.443   2.047  0.00  0.00    +0.000 A 
ATOM     28  O   UNL     1       2.740   0.069   2.415  0.00  0.00    +0.000 OA
ATOM     29  C   UNL     1       4.206  -0.520   0.662  0.00  0.00    +0.000 A 
ATOM     30  H   UNL     1       4.455  -0.892   3.919  0.00  0.00    +0.000 HD
ENDBRANCH  19  20
ENDBRANCH   1  19
TORSDOF 6
