REMARK  Name = 
REMARK  10 active torsions:
REMARK  status: ('A' for Active; 'I' for Inactive)
REMARK    1  A    between atoms: N_1  and  C_2
REMARK    2  A    between atoms: C_2  and  C_3
REMARK    3  A    between atoms: C_3  and  N_4
REMARK    4  A    between atoms: N_4  and  C_5
REMARK    5  A    between atoms: N_4  and  C_26
REMARK    6  A    between atoms: C_5  and  C_6
REMARK    7  A    between atoms: C_9  and  C_10
REMARK    8  A    between atoms: C_10  and  N_11
REMARK    9  A    between atoms: C_12  and  C_14
REMARK   10  A    between atoms: C_26  and  C_27
REMARK                            x       y       z     vdW  Elec       q    Type
REMARK                         _______ _______ _______ _____ _____    ______ ____
ROOT
ATOM      1  C   UNL     1       4.606   0.255   1.658  0.00  0.00    +0.000 A 
ATOM      2  C   UNL     1       3.352   0.539   2.202  0.00  0.00    +0.000 A 
ATOM      3  C   UNL     1       3.060   1.834   2.626  0.00  0.00    +0.000 A 
ATOM      4  C   UNL     1       4.035   2.821   2.503  0.00  0.00    +0.000 A 
ATOM      5  N   UNL     1       5.276   2.562   2.018  0.00  0.00    +0.000 NA
ATOM      6  C   UNL     1       5.528   1.297   1.615  0.00  0.00    +0.000 A 
ENDROOT
BRANCH   1   7
ATOM      7  C   UNL     1       4.925  -1.098   1.066  0.00  0.00    +0.000 C 
BRANCH   7   8
ATOM      8  N   UNL     1       4.477  -1.265  -0.339  0.00  0.00    +0.000 NA
BRANCH   8   9
ATOM      9  C   UNL     1       4.703  -2.648  -0.820  0.00  0.00    +0.000 C 
BRANCH   9  10
ATOM     10  C   UNL     1       3.969  -3.765  -0.047  0.00  0.00    +0.000 C 
BRANCH  10  11
ATOM     11  N   UNL     1       4.215  -5.076  -0.657  0.00  0.00    +0.000 NA
ATOM     12  H   UNL     1       3.746  -5.794  -0.105  0.00  0.00    +0.000 HD
ATOM     13  H   UNL     1       5.210  -5.292  -0.617  0.00  0.00    +0.000 HD
ENDBRANCH  10  11
ENDBRANCH   9  10
ENDBRANCH   8   9
BRANCH   8  14
ATOM     14  C   UNL     1       5.195  -0.299  -1.220  0.00  0.00    +0.000 C 
BRANCH  14  15
ATOM     15  C   UNL     1       4.765  -0.215  -2.702  0.00  0.00    +0.000 C 
ATOM     16  C   UNL     1       5.563   0.854  -3.445  0.00  0.00    +0.000 C 
ATOM     17  C   UNL     1       4.698   1.133  -4.657  0.00  0.00    +0.000 C 
ATOM     18  C   UNL     1       3.275   0.912  -4.165  0.00  0.00    +0.000 C 
ATOM     19  N   UNL     1       3.383   0.250  -2.869  0.00  0.00    +0.000 NA
ATOM     20  H   UNL     1       2.729  -0.525  -2.764  0.00  0.00    +0.000 HD
ENDBRANCH  14  15
ENDBRANCH   8  14
ENDBRANCH   7   8
ENDBRANCH   1   7
BRANCH   4  21
ATOM     21  C   UNL     1       3.716   4.256   2.845  0.00  0.00    +0.000 C 
BRANCH  21  22
ATOM     22  N   UNL     1       3.155   4.973   1.718  0.00  0.00    +0.000 N 
ATOM     23  C   UNL     1       1.811   5.192   1.581  0.00  0.00    +0.000 C 
ATOM     24  O   UNL     1       0.999   4.790   2.413  0.00  0.00    +0.000 OA
ATOM     25  H   UNL     1       3.775   5.105   0.924  0.00  0.00    +0.000 HD
BRANCH  23  26
ATOM     26  C   UNL     1       1.384   6.004   0.431  0.00  0.00    +0.000 A 
ATOM     27  C   UNL     1       0.147   6.635   0.466  0.00  0.00    +0.000 A 
ATOM     28  S   UNL     1      -0.183   7.580  -0.914  0.00  0.00    +0.000 S 
ATOM     29  C   UNL     1       1.294   7.141  -1.633  0.00  0.00    +0.000 A 
ATOM     30  N   UNL     1       1.629   7.599  -2.868  0.00  0.00    +0.000 NA
ATOM     31  C   UNL     1       2.759   7.159  -3.313  0.00  0.00    +0.000 A 
ATOM     32  N   UNL     1       3.586   6.310  -2.628  0.00  0.00    +0.000 N 
ATOM     33  C   UNL     1       3.321   5.877  -1.349  0.00  0.00    +0.000 A 
ATOM     34  O   UNL     1       4.142   5.216  -0.721  0.00  0.00    +0.000 OA
ATOM     35  C   UNL     1       2.042   6.307  -0.821  0.00  0.00    +0.000 A 
ATOM     36  H   UNL     1       4.473   6.023  -3.018  0.00  0.00    +0.000 HD
ENDBRANCH  23  26
ENDBRANCH  21  22
ENDBRANCH   4  21
TORSDOF 10
