REMARK  Name = 
REMARK  5 active torsions:
REMARK  status: ('A' for Active; 'I' for Inactive)
REMARK    1  A    between atoms: C_2  and  C_4
REMARK    2  A    between atoms: C_7  and  O_8
REMARK    3  A    between atoms: O_8  and  C_9
REMARK    4  A    between atoms: C_9  and  C_10
REMARK    5  A    between atoms: C_14  and  C_15
REMARK                            x       y       z     vdW  Elec       q    Type
REMARK                         _______ _______ _______ _____ _____    ______ ____
ROOT
ATOM      1  C   UNL     1       6.419   4.388  -2.405  0.00  0.00    +0.000 C 
ATOM      2  C   UNL     1       6.641   4.023  -3.866  0.00  0.00    +0.000 C 
ATOM      3  C   UNL     1       7.310   3.228  -2.793  0.00  0.00    +0.000 C 
ENDROOT
BRANCH   1   4
ATOM      4  C   UNL     1       7.007   5.685  -1.878  0.00  0.00    +0.000 A 
ATOM      5  C   UNL     1       6.492   6.921  -2.297  0.00  0.00    +0.000 A 
ATOM      6  C   UNL     1       6.935   8.117  -1.736  0.00  0.00    +0.000 A 
ATOM      7  C   UNL     1       7.895   8.101  -0.726  0.00  0.00    +0.000 A 
ATOM      8  C   UNL     1       8.442   6.894  -0.262  0.00  0.00    +0.000 A 
ATOM      9  C   UNL     1       8.006   5.705  -0.882  0.00  0.00    +0.000 A 
BRANCH   8  10
ATOM     10  C   UNL     1       9.367   6.866   0.884  0.00  0.00    +0.000 A 
ATOM     11  C   UNL     1       9.210   7.689   1.995  0.00  0.00    +0.000 A 
ATOM     12  N   UNL     1      10.000   7.672   3.092  0.00  0.00    +0.000 NA
ATOM     13  C   UNL     1      10.993   6.776   3.072  0.00  0.00    +0.000 A 
ATOM     14  N   UNL     1      11.263   5.924   2.074  0.00  0.00    +0.000 NA
ATOM     15  C   UNL     1      10.440   5.996   1.002  0.00  0.00    +0.000 A 
ENDBRANCH   8  10
ENDBRANCH   1   4
BRANCH   1  16
ATOM     16  O   UNL     1       5.045   4.123  -2.033  0.00  0.00    +0.000 OA
BRANCH  16  20
ATOM     17  C   UNL     1       3.904   2.306   1.411  0.00  0.00    +0.000 A 
ATOM     18  N   UNL     1       5.244   2.434   1.243  0.00  0.00    +0.000 NA
ATOM     19  C   UNL     1       5.633   3.065   0.111  0.00  0.00    +0.000 A 
ATOM     20  C   UNL     1       4.759   3.547  -0.837  0.00  0.00    +0.000 A 
ATOM     21  C   UNL     1       3.422   3.378  -0.537  0.00  0.00    +0.000 A 
ATOM     22  N   UNL     1       2.960   2.764   0.570  0.00  0.00    +0.000 NA
BRANCH  17  24
ATOM     23  N   UNL     1       4.449   1.021   3.417  0.00  0.00    +0.000 N 
ATOM     24  C   UNL     1       3.445   1.529   2.625  0.00  0.00    +0.000 C 
ATOM     25  O   UNL     1       2.270   1.331   2.910  0.00  0.00    +0.000 OA
ATOM     26  H   UNL     1       4.200   0.470   4.226  0.00  0.00    +0.000 HD
ATOM     27  H   UNL     1       5.419   1.176   3.173  0.00  0.00    +0.000 HD
ENDBRANCH  17  24
ENDBRANCH  16  20
ENDBRANCH   1  16
TORSDOF 5
