REMARK  Name = 
REMARK  7 active torsions:
REMARK  status: ('A' for Active; 'I' for Inactive)
REMARK    1  A    between atoms: C_2  and  C_22
REMARK    2  A    between atoms: N_3  and  C_4
REMARK    3  A    between atoms: C_4  and  C_5
REMARK    4  A    between atoms: C_8  and  C_9
REMARK    5  A    between atoms: C_9  and  N_10
REMARK    6  A    between atoms: C_11  and  C_13
REMARK    7  A    between atoms: C_16  and  O_17
REMARK                            x       y       z     vdW  Elec       q    Type
REMARK                         _______ _______ _______ _____ _____    ______ ____
ROOT
ATOM      1  C   UNL     1       3.918  -0.658  -7.180  0.00  0.00    +0.000 A 
ATOM      2  C   UNL     1       4.297  -1.593  -6.221  0.00  0.00    +0.000 A 
ATOM      3  C   UNL     1       5.485  -2.310  -6.373  0.00  0.00    +0.000 A 
ATOM      4  C   UNL     1       6.290  -2.080  -7.489  0.00  0.00    +0.000 A 
ATOM      5  N   UNL     1       5.946  -1.162  -8.431  0.00  0.00    +0.000 NA
ATOM      6  C   UNL     1       4.779  -0.484  -8.257  0.00  0.00    +0.000 A 
ENDROOT
BRANCH   1   7
ATOM      7  C   UNL     1       2.661   0.146  -7.026  0.00  0.00    +0.000 C 
BRANCH   7  10
ATOM      8  O   UNL     1       1.817   0.507  -9.636  0.00  0.00    +0.000 OA
ATOM      9  C   UNL     1       1.168  -0.256  -8.913  0.00  0.00    +0.000 C 
ATOM     10  N   UNL     1       1.487  -0.465  -7.591  0.00  0.00    +0.000 N 
ATOM     11  H   UNL     1       1.106  -1.278  -7.118  0.00  0.00    +0.000 HD
BRANCH   9  12
ATOM     12  C   UNL     1      -0.009  -0.966  -9.403  0.00  0.00    +0.000 A 
ATOM     13  C   UNL     1      -0.831  -0.478 -10.411  0.00  0.00    +0.000 A 
ATOM     14  S   UNL     1      -2.129  -1.538 -10.781  0.00  0.00    +0.000 S 
ATOM     15  C   UNL     1      -1.609  -2.673  -9.625  0.00  0.00    +0.000 A 
ATOM     16  N   UNL     1      -2.282  -3.833  -9.408  0.00  0.00    +0.000 NA
ATOM     17  C   UNL     1      -1.742  -4.607  -8.525  0.00  0.00    +0.000 A 
ATOM     18  N   UNL     1      -0.587  -4.331  -7.843  0.00  0.00    +0.000 N 
ATOM     19  C   UNL     1       0.104  -3.163  -7.980  0.00  0.00    +0.000 A 
ATOM     20  O   UNL     1       1.057  -2.905  -7.258  0.00  0.00    +0.000 OA
ATOM     21  C   UNL     1      -0.465  -2.258  -8.972  0.00  0.00    +0.000 A 
ATOM     22  H   UNL     1      -0.224  -4.969  -7.149  0.00  0.00    +0.000 HD
ENDBRANCH   9  12
ENDBRANCH   7  10
ENDBRANCH   1   7
BRANCH   4  23
ATOM     23  C   UNL     1       7.577  -2.855  -7.715  0.00  0.00    +0.000 C 
BRANCH  23  24
ATOM     24  N   UNL     1       8.769  -2.245  -7.139  0.00  0.00    +0.000 N 
ATOM     25  C   UNL     1       9.202  -2.552  -5.880  0.00  0.00    +0.000 C 
ATOM     26  O   UNL     1       8.582  -3.336  -5.145  0.00  0.00    +0.000 OA
ATOM     27  H   UNL     1       9.195  -1.457  -7.610  0.00  0.00    +0.000 HD
BRANCH  25  28
ATOM     28  C   UNL     1      10.501  -1.866  -5.455  0.00  0.00    +0.000 C 
ATOM     29  C   UNL     1      10.863  -2.274  -4.017  0.00  0.00    +0.000 C 
ATOM     30  C   UNL     1      12.223  -1.747  -3.579  0.00  0.00    +0.000 C 
ATOM     31  C   UNL     1      13.313  -2.188  -4.552  0.00  0.00    +0.000 C 
ATOM     32  C   UNL     1      12.993  -1.719  -5.969  0.00  0.00    +0.000 C 
ATOM     33  C   UNL     1      11.629  -2.219  -6.437  0.00  0.00    +0.000 C 
BRANCH  31  34
ATOM     34  O   UNL     1      14.570  -1.666  -4.140  0.00  0.00    +0.000 OA
ATOM     35  H   UNL     1      14.553  -0.700  -4.250  0.00  0.00    +0.000 HD
ENDBRANCH  31  34
ENDBRANCH  25  28
ENDBRANCH  23  24
ENDBRANCH   4  23
TORSDOF 7
