REMARK  Name = 
REMARK  6 active torsions:
REMARK  status: ('A' for Active; 'I' for Inactive)
REMARK    1  A    between atoms: C_7  and  C_8
REMARK    2  A    between atoms: N_10  and  C_11
REMARK    3  A    between atoms: C_11  and  C_12
REMARK    4  A    between atoms: C_15  and  C_16
REMARK    5  A    between atoms: C_16  and  O_17
REMARK    6  A    between atoms: C_16  and  C_18
REMARK                            x       y       z     vdW  Elec       q    Type
REMARK                         _______ _______ _______ _____ _____    ______ ____
ROOT
ATOM      1  C   UNL     1      -3.993  -2.870  -1.280  0.00  0.00    +0.000 C 
ATOM      2  O   UNL     1      -4.644  -2.315  -0.397  0.00  0.00    +0.000 OA
ATOM      3  N   UNL     1      -3.189  -3.952  -1.011  0.00  0.00    +0.000 N 
ATOM      4  H   UNL     1      -2.697  -4.431  -1.762  0.00  0.00    +0.000 HD
ENDROOT
BRANCH   1  11
ATOM      5  N   UNL     1      -1.886  -3.110  -7.654  0.00  0.00    +0.000 N 
ATOM      6  C   UNL     1      -2.413  -2.968  -6.411  0.00  0.00    +0.000 A 
ATOM      7  N   UNL     1      -3.267  -2.016  -6.165  0.00  0.00    +0.000 NA
ATOM      8  C   UNL     1      -3.700  -1.990  -4.883  0.00  0.00    +0.000 A 
ATOM      9  N   UNL     1      -4.592  -1.075  -4.411  0.00  0.00    +0.000 N 
ATOM     10  C   UNL     1      -4.800  -1.308  -3.075  0.00  0.00    +0.000 A 
ATOM     11  C   UNL     1      -4.026  -2.393  -2.667  0.00  0.00    +0.000 A 
ATOM     12  C   UNL     1      -3.350  -2.827  -3.846  0.00  0.00    +0.000 A 
ATOM     13  C   UNL     1      -2.426  -3.888  -4.154  0.00  0.00    +0.000 A 
ATOM     14  O   UNL     1      -2.060  -4.739  -3.346  0.00  0.00    +0.000 OA
ATOM     15  N   UNL     1      -1.985  -3.870  -5.463  0.00  0.00    +0.000 N 
ATOM     16  H   UNL     1      -2.051  -2.296  -8.238  0.00  0.00    +0.000 HD
ATOM     17  H   UNL     1      -0.938  -3.455  -7.719  0.00  0.00    +0.000 HD
ATOM     18  H   UNL     1      -5.017  -0.347  -4.970  0.00  0.00    +0.000 HD
ATOM     19  H   UNL     1      -1.367  -4.618  -5.725  0.00  0.00    +0.000 HD
ENDBRANCH   1  11
BRANCH   3  20
ATOM     20  C   UNL     1      -3.062  -4.464   0.332  0.00  0.00    +0.000 C 
BRANCH  20  21
ATOM     21  C   UNL     1      -2.102  -5.624   0.412  0.00  0.00    +0.000 A 
ATOM     22  C   UNL     1      -0.733  -5.409   0.611  0.00  0.00    +0.000 A 
ATOM     23  C   UNL     1       0.159  -6.487   0.662  0.00  0.00    +0.000 A 
ATOM     24  C   UNL     1      -0.296  -7.808   0.511  0.00  0.00    +0.000 A 
ATOM     25  C   UNL     1      -1.669  -8.019   0.310  0.00  0.00    +0.000 A 
ATOM     26  C   UNL     1      -2.559  -6.940   0.259  0.00  0.00    +0.000 A 
BRANCH  24  27
ATOM     27  C   UNL     1       0.691  -8.966   0.571  0.00  0.00    +0.000 C 
BRANCH  27  28
ATOM     28  C   UNL     1       0.848  -9.789  -0.692  0.00  0.00    +0.000 A 
ATOM     29  C   UNL     1       1.210 -11.144  -0.640  0.00  0.00    +0.000 A 
ATOM     30  C   UNL     1       1.453 -11.856  -1.810  0.00  0.00    +0.000 A 
ATOM     31  C   UNL     1       1.335 -11.188  -3.015  0.00  0.00    +0.000 A 
ATOM     32  N   UNL     1       0.988  -9.888  -3.120  0.00  0.00    +0.000 NA
ATOM     33  C   UNL     1       0.759  -9.221  -1.962  0.00  0.00    +0.000 A 
ENDBRANCH  27  28
BRANCH  27  34
ATOM     34  O   UNL     1       0.358  -9.833   1.661  0.00  0.00    +0.000 OA
ATOM     35  H   UNL     1      -0.560  -9.655   1.917  0.00  0.00    +0.000 HD
ENDBRANCH  27  34
ENDBRANCH  24  27
ENDBRANCH  20  21
ENDBRANCH   3  20
TORSDOF 6
