REMARK  Name = 
REMARK  9 active torsions:
REMARK  status: ('A' for Active; 'I' for Inactive)
REMARK    1  A    between atoms: C_1  and  N_2
REMARK    2  A    between atoms: N_2  and  C_3
REMARK    3  A    between atoms: C_3  and  C_4
REMARK    4  A    between atoms: C_7  and  C_8
REMARK    5  A    between atoms: C_8  and  N_9
REMARK    6  A    between atoms: N_9  and  C_10
REMARK    7  A    between atoms: C_10  and  C_11
REMARK    8  A    between atoms: C_13  and  O_14
REMARK    9  A    between atoms: C_19  and  C_21
REMARK                            x       y       z     vdW  Elec       q    Type
REMARK                         _______ _______ _______ _____ _____    ______ ____
ROOT
ATOM      1  C   UNL     1      -1.732   0.115  -0.390  0.00  0.00    +0.000 A 
ATOM      2  C   UNL     1      -2.626   1.177  -0.182  0.00  0.00    +0.000 A 
ATOM      3  C   UNL     1      -2.914   1.613   1.110  0.00  0.00    +0.000 A 
ATOM      4  C   UNL     1      -2.337   0.979   2.219  0.00  0.00    +0.000 A 
ATOM      5  C   UNL     1      -1.464  -0.098   2.006  0.00  0.00    +0.000 A 
ATOM      6  C   UNL     1      -1.162  -0.527   0.714  0.00  0.00    +0.000 A 
ENDROOT
BRANCH   1   7
ATOM      7  C   UNL     1      -1.350  -0.290  -1.787  0.00  0.00    +0.000 C 
BRANCH   7   9
ATOM      8  C   UNL     1       0.480   1.479  -1.723  0.00  0.00    +0.000 C 
ATOM      9  N   UNL     1      -0.144   0.322  -2.358  0.00  0.00    +0.000 N 
ATOM     10  C   UNL     1       0.496  -0.142  -3.521  0.00  0.00    +0.000 C 
ATOM     11  O   UNL     1       1.521   0.398  -3.935  0.00  0.00    +0.000 OA
BRANCH  10  12
ATOM     12  C   UNL     1      -0.080  -1.263  -4.276  0.00  0.00    +0.000 A 
ATOM     13  C   UNL     1      -1.416  -1.376  -4.626  0.00  0.00    +0.000 A 
ATOM     14  S   UNL     1      -1.767  -2.761  -5.560  0.00  0.00    +0.000 S 
ATOM     15  C   UNL     1      -0.121  -3.172  -5.663  0.00  0.00    +0.000 A 
ATOM     16  N   UNL     1       0.292  -4.216  -6.427  0.00  0.00    +0.000 NA
ATOM     17  C   UNL     1       1.575  -4.361  -6.467  0.00  0.00    +0.000 A 
ATOM     18  N   UNL     1       2.476  -3.584  -5.784  0.00  0.00    +0.000 N 
ATOM     19  C   UNL     1       2.097  -2.603  -4.892  0.00  0.00    +0.000 A 
ATOM     20  O   UNL     1       2.911  -2.093  -4.132  0.00  0.00    +0.000 OA
ATOM     21  C   UNL     1       0.671  -2.322  -4.908  0.00  0.00    +0.000 A 
ATOM     22  H   UNL     1       3.463  -3.792  -5.811  0.00  0.00    +0.000 HD
ENDBRANCH  10  12
ENDBRANCH   7   9
ENDBRANCH   1   7
BRANCH   4  23
ATOM     23  C   UNL     1      -2.537   1.494   3.625  0.00  0.00    +0.000 C 
BRANCH  23  24
ATOM     24  N   UNL     1      -3.846   2.113   3.821  0.00  0.00    +0.000 NA
ATOM     25  H   UNL     1      -4.574   1.411   3.670  0.00  0.00    +0.000 HD
BRANCH  24  26
ATOM     26  C   UNL     1      -3.983   2.601   5.197  0.00  0.00    +0.000 C 
BRANCH  26  27
ATOM     27  C   UNL     1      -5.367   3.242   5.387  0.00  0.00    +0.000 C 
ATOM     28  C   UNL     1      -5.592   3.733   6.811  0.00  0.00    +0.000 C 
ATOM     29  C   UNL     1      -7.103   3.742   6.921  0.00  0.00    +0.000 C 
ATOM     30  C   UNL     1      -7.515   2.508   6.120  0.00  0.00    +0.000 C 
ATOM     31  N   UNL     1      -6.469   2.294   5.106  0.00  0.00    +0.000 NA
ATOM     32  H   UNL     1      -6.831   2.476   4.170  0.00  0.00    +0.000 HD
BRANCH  29  33
ATOM     33  O   UNL     1      -7.631   4.931   6.336  0.00  0.00    +0.000 OA
ATOM     34  H   UNL     1      -7.483   4.882   5.375  0.00  0.00    +0.000 HD
ENDBRANCH  29  33
ENDBRANCH  26  27
ENDBRANCH  24  26
ENDBRANCH  23  24
ENDBRANCH   4  23
TORSDOF 8
