REMARK  Name = 
REMARK  9 active torsions:
REMARK  status: ('A' for Active; 'I' for Inactive)
REMARK    1  A    between atoms: C_1  and  O_2
REMARK    2  A    between atoms: O_2  and  C_3
REMARK    3  A    between atoms: C_10  and  C_11
REMARK    4  A    between atoms: N_13  and  C_14
REMARK    5  A    between atoms: C_14  and  C_15
REMARK    6  A    between atoms: C_18  and  C_19
REMARK    7  A    between atoms: C_19  and  O_20
REMARK    8  A    between atoms: O_20  and  C_21
REMARK    9  A    between atoms: C_21  and  C_22
REMARK                            x       y       z     vdW  Elec       q    Type
REMARK                         _______ _______ _______ _____ _____    ______ ____
ROOT
ATOM      1  C   UNL     1       2.841   1.296   3.165  0.00  0.00    +0.000 C 
ENDROOT
BRANCH   1   2
ATOM      2  C   UNL     1       1.791   2.257   2.675  0.00  0.00    +0.000 A 
ATOM      3  C   UNL     1       0.515   1.799   2.322  0.00  0.00    +0.000 A 
ATOM      4  C   UNL     1      -0.440   2.684   1.820  0.00  0.00    +0.000 A 
ATOM      5  C   UNL     1      -0.136   4.042   1.658  0.00  0.00    +0.000 A 
ATOM      6  C   UNL     1       1.142   4.500   2.005  0.00  0.00    +0.000 A 
ATOM      7  C   UNL     1       2.097   3.614   2.507  0.00  0.00    +0.000 A 
BRANCH   5   8
ATOM      8  C   UNL     1      -1.184   5.003   1.152  0.00  0.00    +0.000 C 
BRANCH   8   9
ATOM      9  O   UNL     1      -2.354   4.994   1.971  0.00  0.00    +0.000 OA
BRANCH   9  10
ATOM     10  C   UNL     1      -2.114   5.530   3.273  0.00  0.00    +0.000 C 
BRANCH  10  11
ATOM     11  C   UNL     1      -3.392   5.561   4.069  0.00  0.00    +0.000 A 
ATOM     12  C   UNL     1      -3.361   5.333   5.448  0.00  0.00    +0.000 A 
ATOM     13  C   UNL     1      -4.548   5.400   6.163  0.00  0.00    +0.000 A 
ATOM     14  N   UNL     1      -5.743   5.685   5.607  0.00  0.00    +0.000 NA
ATOM     15  C   UNL     1      -5.752   5.911   4.275  0.00  0.00    +0.000 A 
ATOM     16  C   UNL     1      -4.619   5.868   3.477  0.00  0.00    +0.000 A 
ENDBRANCH  10  11
ENDBRANCH   9  10
ENDBRANCH   8   9
ENDBRANCH   5   8
ENDBRANCH   1   2
BRANCH   1  19
ATOM     17  C   UNL     1       4.584  -0.163   2.246  0.00  0.00    +0.000 C 
ATOM     18  O   UNL     1       4.866  -0.567   3.372  0.00  0.00    +0.000 OA
ATOM     19  N   UNL     1       3.598   0.763   2.057  0.00  0.00    +0.000 N 
ATOM     20  H   UNL     1       3.401   1.123   1.132  0.00  0.00    +0.000 HD
BRANCH  17  28
ATOM     21  C   UNL     1       4.225   0.374  -1.143  0.00  0.00    +0.000 A 
ATOM     22  N   UNL     1       4.321   0.408  -2.488  0.00  0.00    +0.000 NA
ATOM     23  C   UNL     1       5.274  -0.324  -3.070  0.00  0.00    +0.000 A 
ATOM     24  N   UNL     1       6.164  -1.105  -2.465  0.00  0.00    +0.000 NA
ATOM     25  C   UNL     1       6.040  -1.104  -1.126  0.00  0.00    +0.000 A 
ATOM     26  S   UNL     1       7.095  -2.049  -0.192  0.00  0.00    +0.000 S 
ATOM     27  C   UNL     1       6.349  -1.545   1.247  0.00  0.00    +0.000 A 
ATOM     28  C   UNL     1       5.299  -0.654   1.057  0.00  0.00    +0.000 A 
ATOM     29  C   UNL     1       5.112  -0.393  -0.369  0.00  0.00    +0.000 A 
BRANCH  21  31
ATOM     30  C   UNL     1       2.140   1.399  -1.395  0.00  0.00    +0.000 C 
ATOM     31  O   UNL     1       3.261   1.160  -0.545  0.00  0.00    +0.000 OA
ENDBRANCH  21  31
ENDBRANCH  17  28
ENDBRANCH   1  19
TORSDOF 8
