REMARK  Name = 
REMARK  4 active torsions:
REMARK  status: ('A' for Active; 'I' for Inactive)
REMARK    1  A    between atoms: N_1  and  C_2
REMARK    2  A    between atoms: C_2  and  C_3
REMARK    3  A    between atoms: C_7  and  C_8
REMARK    4  A    between atoms: C_8  and  N_9
REMARK                            x       y       z     vdW  Elec       q    Type
REMARK                         _______ _______ _______ _____ _____    ______ ____
ROOT
ATOM      1  C   UNL     1       6.153  -3.420  -0.129  0.00  0.00    +0.000 C 
ENDROOT
BRANCH   1   2
ATOM      2  N   UNL     1       6.999  -2.240  -0.154  0.00  0.00    +0.000 N 
ATOM      3  C   UNL     1       7.442  -1.568   0.953  0.00  0.00    +0.000 A 
ATOM      4  N   UNL     1       8.182  -0.532   0.631  0.00  0.00    +0.000 NA
ATOM      5  C   UNL     1       8.245  -0.544  -0.739  0.00  0.00    +0.000 A 
ATOM      6  C   UNL     1       8.903   0.338  -1.608  0.00  0.00    +0.000 A 
ATOM      7  C   UNL     1       8.841   0.101  -2.988  0.00  0.00    +0.000 A 
ATOM      8  C   UNL     1       8.137  -0.996  -3.485  0.00  0.00    +0.000 A 
ATOM      9 CL   UNL     1       8.095  -1.270  -5.187  0.00  0.00    +0.000 Cl
ATOM     10  C   UNL     1       7.463  -1.883  -2.638  0.00  0.00    +0.000 A 
ATOM     11  C   UNL     1       7.531  -1.624  -1.263  0.00  0.00    +0.000 A 
ENDBRANCH   1   2
BRANCH   1  16
ATOM     12  C   UNL     1       2.621  -2.492  -1.248  0.00  0.00    +0.000 A 
ATOM     13  C   UNL     1       2.049  -2.342   0.009  0.00  0.00    +0.000 A 
ATOM     14  N   UNL     1       2.713  -2.525   1.173  0.00  0.00    +0.000 NA
ATOM     15  C   UNL     1       4.016  -2.866   1.084  0.00  0.00    +0.000 A 
ATOM     16  C   UNL     1       4.696  -3.055  -0.115  0.00  0.00    +0.000 A 
ATOM     17  C   UNL     1       3.971  -2.860  -1.296  0.00  0.00    +0.000 A 
BRANCH  12  18
ATOM     18  C   UNL     1       1.834  -2.219  -2.498  0.00  0.00    +0.000 C 
BRANCH  18  19
ATOM     19  N   UNL     1       1.766  -3.390  -3.365  0.00  0.00    +0.000 NA
ATOM     20  H   UNL     1       1.239  -3.150  -4.204  0.00  0.00    +0.000 HD
ATOM     21  H   UNL     1       1.230  -4.120  -2.896  0.00  0.00    +0.000 HD
ENDBRANCH  18  19
ENDBRANCH  12  18
ENDBRANCH   1  16
TORSDOF 4
