REMARK  Name = 
REMARK  5 active torsions:
REMARK  status: ('A' for Active; 'I' for Inactive)
REMARK    1  A    between atoms: C_2  and  C_4
REMARK    2  A    between atoms: C_7  and  O_8
REMARK    3  A    between atoms: O_8  and  C_9
REMARK    4  A    between atoms: C_9  and  C_10
REMARK    5  A    between atoms: C_12  and  N_13
REMARK                            x       y       z     vdW  Elec       q    Type
REMARK                         _______ _______ _______ _____ _____    ______ ____
ROOT
ATOM      1  C   UNL     1       5.011   5.823   0.728  0.00  0.00    +0.000 C 
ENDROOT
BRANCH   1   2
ATOM      2  C   UNL     1       5.845   7.053   0.441  0.00  0.00    +0.000 A 
ATOM      3  C   UNL     1       5.308   8.329   0.611  0.00  0.00    +0.000 A 
ATOM      4  C   UNL     1       6.093   9.467   0.412  0.00  0.00    +0.000 A 
ATOM      5  C   UNL     1       7.419   9.256   0.042  0.00  0.00    +0.000 A 
ATOM      6  C   UNL     1       7.891   7.960  -0.102  0.00  0.00    +0.000 A 
ATOM      7  N   UNL     1       7.140   6.856   0.097  0.00  0.00    +0.000 NA
BRANCH   4   8
ATOM      8  N   UNL     1       5.571  10.719   0.655  0.00  0.00    +0.000 N 
ATOM      9  C   UNL     1       6.405  11.847   1.081  0.00  0.00    +0.000 C 
ATOM     10  C   UNL     1       5.594  12.677   2.088  0.00  0.00    +0.000 C 
ATOM     11  O   UNL     1       4.358  13.140   1.514  0.00  0.00    +0.000 OA
ATOM     12  C   UNL     1       3.545  12.025   1.100  0.00  0.00    +0.000 C 
ATOM     13  C   UNL     1       4.276  11.129   0.084  0.00  0.00    +0.000 C 
ENDBRANCH   4   8
ENDBRANCH   1   2
BRANCH   1  14
ATOM     14  O   UNL     1       3.632   6.081   0.447  0.00  0.00    +0.000 OA
BRANCH  14  18
ATOM     15  C   UNL     1       0.711   3.168   1.025  0.00  0.00    +0.000 A 
ATOM     16  C   UNL     1       2.044   2.838   1.300  0.00  0.00    +0.000 A 
ATOM     17  C   UNL     1       3.056   3.789   1.126  0.00  0.00    +0.000 A 
ATOM     18  C   UNL     1       2.743   5.072   0.673  0.00  0.00    +0.000 A 
ATOM     19  C   UNL     1       1.411   5.398   0.398  0.00  0.00    +0.000 A 
ATOM     20  C   UNL     1       0.398   4.451   0.565  0.00  0.00    +0.000 A 
BRANCH  15  22
ATOM     21  N   UNL     1      -0.212   1.186   2.096  0.00  0.00    +0.000 N 
ATOM     22  C   UNL     1      -0.386   2.182   1.174  0.00  0.00    +0.000 C 
ATOM     23  O   UNL     1      -1.424   2.266   0.528  0.00  0.00    +0.000 OA
ATOM     24  H   UNL     1      -1.008   0.582   2.258  0.00  0.00    +0.000 HD
ATOM     25  H   UNL     1       0.494   1.234   2.815  0.00  0.00    +0.000 HD
ENDBRANCH  15  22
ENDBRANCH  14  18
ENDBRANCH   1  14
TORSDOF 5
