REMARK  Name = 
REMARK  9 active torsions:
REMARK  status: ('A' for Active; 'I' for Inactive)
REMARK    1  A    between atoms: C_1  and  C_2
REMARK    2  A    between atoms: C_2  and  C_3
REMARK    3  A    between atoms: C_3  and  N_4
REMARK    4  A    between atoms: C_3  and  C_17
REMARK    5  A    between atoms: C_5  and  C_7
REMARK    6  A    between atoms: C_20  and  C_21
REMARK    7  A    between atoms: C_21  and  N_22
REMARK    8  A    between atoms: C_21  and  C_23
REMARK    9  A    between atoms: C_23  and  C_24
REMARK                            x       y       z     vdW  Elec       q    Type
REMARK                         _______ _______ _______ _____ _____    ______ ____
ROOT
ATOM      1  C   UNL     1      10.493   4.499   0.971  0.00  0.00    +0.000 C 
ENDROOT
BRANCH   1   2
ATOM      2  C   UNL     1       9.964   3.267   0.253  0.00  0.00    +0.000 A 
ATOM      3  C   UNL     1      10.743   2.124   0.034  0.00  0.00    +0.000 A 
ATOM      4  C   UNL     1      10.163   0.980  -0.511  0.00  0.00    +0.000 A 
ATOM      5  C   UNL     1       8.802   0.990  -0.812  0.00  0.00    +0.000 A 
ATOM      6  N   UNL     1       8.050   2.113  -0.697  0.00  0.00    +0.000 NA
ATOM      7  C   UNL     1       8.636   3.205  -0.154  0.00  0.00    +0.000 A 
BRANCH   5   8
ATOM      8  C   UNL     1       8.115  -0.299  -1.258  0.00  0.00    +0.000 C 
BRANCH   8   9
ATOM      9  N   UNL     1       8.336  -0.533  -2.699  0.00  0.00    +0.000 NA
ATOM     10  H   UNL     1       7.978   0.282  -3.202  0.00  0.00    +0.000 HD
ATOM     11  H   UNL     1       7.773  -1.323  -3.008  0.00  0.00    +0.000 HD
ENDBRANCH   8   9
BRANCH   8  12
ATOM     12  C   UNL     1       6.594  -0.333  -0.938  0.00  0.00    +0.000 C 
BRANCH  12  13
ATOM     13  C   UNL     1       6.218  -0.048   0.490  0.00  0.00    +0.000 A 
ATOM     14  C   UNL     1       5.399   1.015   0.822  0.00  0.00    +0.000 A 
ATOM     15  N   UNL     1       5.065   1.350   2.084  0.00  0.00    +0.000 NA
ATOM     16  C   UNL     1       5.590   0.574   3.042  0.00  0.00    +0.000 A 
ATOM     17  N   UNL     1       6.373  -0.498   2.851  0.00  0.00    +0.000 NA
ATOM     18  C   UNL     1       6.667  -0.787   1.566  0.00  0.00    +0.000 A 
ENDBRANCH  12  13
ENDBRANCH   8  12
ENDBRANCH   5   8
ENDBRANCH   1   2
BRANCH   1  19
ATOM     19  N   UNL     1      11.828   4.820   0.471  0.00  0.00    +0.000 N 
ATOM     20  C   UNL     1      12.539   5.934   0.845  0.00  0.00    +0.000 C 
ATOM     21  O   UNL     1      12.149   6.725   1.697  0.00  0.00    +0.000 OA
ATOM     22  H   UNL     1      12.064   4.406  -0.424  0.00  0.00    +0.000 HD
BRANCH  20  23
ATOM     23  C   UNL     1      13.849   6.094   0.198  0.00  0.00    +0.000 A 
ATOM     24  C   UNL     1      14.877   6.745   0.866  0.00  0.00    +0.000 A 
ATOM     25  S   UNL     1      16.325   6.831  -0.034  0.00  0.00    +0.000 S 
ATOM     26  C   UNL     1      15.612   6.042  -1.362  0.00  0.00    +0.000 A 
ATOM     27  N   UNL     1      16.313   5.829  -2.512  0.00  0.00    +0.000 NA
ATOM     28  C   UNL     1      15.633   5.252  -3.447  0.00  0.00    +0.000 A 
ATOM     29  N   UNL     1      14.324   4.853  -3.333  0.00  0.00    +0.000 N 
ATOM     30  C   UNL     1      13.596   5.003  -2.181  0.00  0.00    +0.000 A 
ATOM     31  O   UNL     1      12.457   4.559  -2.081  0.00  0.00    +0.000 OA
ATOM     32  C   UNL     1      14.301   5.685  -1.109  0.00  0.00    +0.000 A 
ATOM     33  H   UNL     1      13.859   4.386  -4.097  0.00  0.00    +0.000 HD
ENDBRANCH  20  23
ENDBRANCH   1  19
BRANCH   1  35
ATOM     34  C   UNL     1       9.105   4.033   3.095  0.00  0.00    +0.000 C 
ATOM     35  C   UNL     1      10.488   4.283   2.502  0.00  0.00    +0.000 C 
ENDBRANCH   1  35
TORSDOF 8
