REMARK  Name = 
REMARK  7 active torsions:
REMARK  status: ('A' for Active; 'I' for Inactive)
REMARK    1  A    between atoms: C_1  and  S_2
REMARK    2  A    between atoms: S_2  and  C_5
REMARK    3  A    between atoms: C_7  and  C_8
REMARK    4  A    between atoms: C_8  and  O_9
REMARK    5  A    between atoms: O_9  and  C_10
REMARK    6  A    between atoms: C_15  and  C_16
REMARK    7  A    between atoms: C_25  and  C_26
REMARK                            x       y       z     vdW  Elec       q    Type
REMARK                         _______ _______ _______ _____ _____    ______ ____
ROOT
ATOM      1  O   UNL     1       6.886  -4.900  -1.310  0.00  0.00    +0.000 OA
ENDROOT
BRANCH   1   2
ATOM      2  C   UNL     1       8.162  -5.235  -1.678  0.00  0.00    +0.000 A 
ATOM      3  C   UNL     1       9.323  -4.639  -1.192  0.00  0.00    +0.000 A 
ATOM      4  C   UNL     1      10.567  -5.105  -1.618  0.00  0.00    +0.000 A 
ATOM      5  C   UNL     1      10.646  -6.164  -2.523  0.00  0.00    +0.000 A 
ATOM      6  F   UNL     1      11.863  -6.595  -2.886  0.00  0.00    +0.000 F 
ATOM      7  C   UNL     1       9.499  -6.787  -3.029  0.00  0.00    +0.000 A 
ATOM      8  C   UNL     1       8.259  -6.306  -2.572  0.00  0.00    +0.000 A 
BRANCH   7   9
ATOM      9  C   UNL     1       9.628  -7.963  -3.997  0.00  0.00    +0.000 C 
ATOM     10  C   UNL     1      10.327  -7.594  -5.322  0.00  0.00    +0.000 C 
ATOM     11  C   UNL     1       9.413  -6.782  -6.237  0.00  0.00    +0.000 C 
ATOM     12  C   UNL     1       8.046  -7.441  -6.431  0.00  0.00    +0.000 C 
ATOM     13  N   UNL     1       7.417  -7.850  -5.178  0.00  0.00    +0.000 NA
ATOM     14  C   UNL     1       8.304  -8.681  -4.355  0.00  0.00    +0.000 C 
ATOM     15  H   UNL     1       6.550  -8.349  -5.372  0.00  0.00    +0.000 HD
ENDBRANCH   7   9
ENDBRANCH   1   2
BRANCH   1  16
ATOM     16  C   UNL     1       6.683  -3.519  -1.027  0.00  0.00    +0.000 C 
BRANCH  16  19
ATOM     17  C   UNL     1       2.889  -3.228  -1.501  0.00  0.00    +0.000 A 
ATOM     18  C   UNL     1       4.244  -3.529  -1.738  0.00  0.00    +0.000 A 
ATOM     19  C   UNL     1       5.213  -3.278  -0.755  0.00  0.00    +0.000 A 
ATOM     20  C   UNL     1       4.806  -2.748   0.476  0.00  0.00    +0.000 A 
ATOM     21  C   UNL     1       3.462  -2.447   0.709  0.00  0.00    +0.000 A 
ATOM     22  C   UNL     1       2.495  -2.666  -0.282  0.00  0.00    +0.000 A 
BRANCH  17  24
ATOM     23  C   UNL     1       0.541  -4.655  -2.248  0.00  0.00    +0.000 C 
ATOM     24  S   UNL     1       1.728  -3.470  -2.831  0.00  0.00    +0.000 S 
ATOM     25  O   UNL     1       2.449  -4.106  -3.917  0.00  0.00    +0.000 OA
ATOM     26  O   UNL     1       1.064  -2.201  -3.037  0.00  0.00    +0.000 OA
ENDBRANCH  17  24
BRANCH  22  27
ATOM     27  C   UNL     1       1.144  -2.290   0.015  0.00  0.00    +0.000 C 
ATOM     28  N   UNL     1       0.049  -2.033   0.293  0.00  0.00    +0.000 NA
ENDBRANCH  22  27
ENDBRANCH  16  19
ENDBRANCH   1  16
TORSDOF 6
