REMARK  Name = 
REMARK  9 active torsions:
REMARK  status: ('A' for Active; 'I' for Inactive)
REMARK    1  A    between atoms: C_1  and  C_2
REMARK    2  A    between atoms: C_2  and  C_3
REMARK    3  A    between atoms: C_2  and  N_4
REMARK    4  A    between atoms: C_5  and  C_7
REMARK    5  A    between atoms: N_11  and  C_12
REMARK    6  A    between atoms: C_12  and  C_13
REMARK    7  A    between atoms: C_13  and  C_14
REMARK    8  A    between atoms: C_13  and  C_15
REMARK    9  A    between atoms: C_13  and  C_16
REMARK                            x       y       z     vdW  Elec       q    Type
REMARK                         _______ _______ _______ _____ _____    ______ ____
ROOT
ATOM      1  C   UNL     1       4.675   0.947   2.952  0.00  0.00    +0.000 A 
ATOM      2  C   UNL     1       5.659   1.925   2.862  0.00  0.00    +0.000 A 
ATOM      3  C   UNL     1       6.249   2.406   4.033  0.00  0.00    +0.000 A 
ATOM      4  C   UNL     1       5.854   1.904   5.275  0.00  0.00    +0.000 A 
ATOM      5  N   UNL     1       6.400   2.493   6.424  0.00  0.00    +0.000 N 
ATOM      6  N   UNL     1       4.907   0.951   5.372  0.00  0.00    +0.000 NA
ATOM      7  C   UNL     1       4.332   0.502   4.221  0.00  0.00    +0.000 A 
ATOM      8  H   UNL     1       7.400   2.609   6.311  0.00  0.00    +0.000 HD
ENDROOT
BRANCH   1  10
ATOM      9  N   UNL     1       4.572   0.488   0.558  0.00  0.00    +0.000 N 
ATOM     10  C   UNL     1       3.932   0.422   1.780  0.00  0.00    +0.000 C 
ATOM     11  O   UNL     1       2.808  -0.042   1.931  0.00  0.00    +0.000 OA
ATOM     12  H   UNL     1       5.562   0.691   0.530  0.00  0.00    +0.000 HD
BRANCH   9  14
ATOM     13  C   UNL     1       4.508   0.757  -1.868  0.00  0.00    +0.000 C 
ATOM     14  C   UNL     1       3.945   0.005  -0.667  0.00  0.00    +0.000 C 
ATOM     15  C   UNL     1       4.143  -1.500  -0.839  0.00  0.00    +0.000 C 
ENDBRANCH   9  14
ENDBRANCH   1  10
BRANCH   5  16
ATOM     16  C   UNL     1       6.018   1.877   7.703  0.00  0.00    +0.000 C 
BRANCH  16  17
ATOM     17  C   UNL     1       6.790   2.507   8.915  0.00  0.00    +0.000 C 
ATOM     18  C   UNL     1       8.306   2.216   8.801  0.00  0.00    +0.000 C 
ATOM     19  C   UNL     1       6.614   4.046   8.870  0.00  0.00    +0.000 C 
BRANCH  17  20
ATOM     20  C   UNL     1       6.266   1.898  10.236  0.00  0.00    +0.000 A 
ATOM     21  C   UNL     1       6.369   0.516  10.486  0.00  0.00    +0.000 A 
ATOM     22  C   UNL     1       5.889  -0.002  11.681  0.00  0.00    +0.000 A 
ATOM     23  N   UNL     1       5.317   0.741  12.650  0.00  0.00    +0.000 NA
ATOM     24  C   UNL     1       5.221   2.057  12.407  0.00  0.00    +0.000 A 
ATOM     25  C   UNL     1       5.671   2.670  11.243  0.00  0.00    +0.000 A 
ENDBRANCH  17  20
ENDBRANCH  16  17
ENDBRANCH   5  16
TORSDOF 5
