REMARK  Name = 
REMARK  6 active torsions:
REMARK  status: ('A' for Active; 'I' for Inactive)
REMARK    1  A    between atoms: C_1  and  O_2
REMARK    2  A    between atoms: O_2  and  C_3
REMARK    3  A    between atoms: N_9  and  C_10
REMARK    4  A    between atoms: C_10  and  C_11
REMARK    5  A    between atoms: C_15  and  C_16
REMARK    6  A    between atoms: C_16  and  N_17
REMARK                            x       y       z     vdW  Elec       q    Type
REMARK                         _______ _______ _______ _____ _____    ______ ____
ROOT
ATOM      1  C   UNL     1       3.202   5.370   1.930  0.00  0.00    +0.000 A 
ATOM      2  C   UNL     1       2.759   4.679   3.058  0.00  0.00    +0.000 A 
ATOM      3  N   UNL     1       3.320   3.564   3.585  0.00  0.00    +0.000 NA
ATOM      4  C   UNL     1       4.412   3.125   2.923  0.00  0.00    +0.000 A 
ATOM      5  N   UNL     1       5.139   2.014   3.252  0.00  0.00    +0.000 NA
ATOM      6  C   UNL     1       6.089   1.951   2.346  0.00  0.00    +0.000 A 
ATOM      7  N   UNL     1       6.010   2.983   1.448  0.00  0.00    +0.000 N 
ATOM      8  C   UNL     1       4.925   3.751   1.791  0.00  0.00    +0.000 A 
ATOM      9  C   UNL     1       4.327   4.894   1.258  0.00  0.00    +0.000 A 
ENDROOT
BRANCH   1  11
ATOM     10  C   UNL     1       1.504   7.026   2.050  0.00  0.00    +0.000 C 
ATOM     11  O   UNL     1       2.644   6.494   1.387  0.00  0.00    +0.000 OA
ENDBRANCH   1  11
BRANCH   7  12
ATOM     12  C   UNL     1       6.847   3.131   0.272  0.00  0.00    +0.000 C 
BRANCH  12  13
ATOM     13  C   UNL     1       8.053   3.998   0.525  0.00  0.00    +0.000 A 
ATOM     14  C   UNL     1       9.250   3.441   0.995  0.00  0.00    +0.000 A 
ATOM     15  C   UNL     1      10.382   4.239   1.168  0.00  0.00    +0.000 A 
ATOM     16  C   UNL     1      10.331   5.604   0.883  0.00  0.00    +0.000 A 
ATOM     17  C   UNL     1       9.141   6.190   0.434  0.00  0.00    +0.000 A 
ATOM     18  C   UNL     1       8.008   5.377   0.266  0.00  0.00    +0.000 A 
BRANCH  17  19
ATOM     19  C   UNL     1       9.068   7.671   0.157  0.00  0.00    +0.000 C 
BRANCH  19  20
ATOM     20  N   UNL     1       8.664   7.943  -1.219  0.00  0.00    +0.000 NA
ATOM     21  H   UNL     1       9.366   7.554  -1.847  0.00  0.00    +0.000 HD
ATOM     22  H   UNL     1       8.670   8.949  -1.372  0.00  0.00    +0.000 HD
ENDBRANCH  19  20
ENDBRANCH  17  19
ENDBRANCH  12  13
ENDBRANCH   7  12
TORSDOF 5
