REMARK  Name = 
REMARK  9 active torsions:
REMARK  status: ('A' for Active; 'I' for Inactive)
REMARK    1  A    between atoms: C_1  and  C_2
REMARK    2  A    between atoms: C_2  and  C_3
REMARK    3  A    between atoms: C_2  and  C_4
REMARK    4  A    between atoms: C_2  and  C_5
REMARK    5  A    between atoms: N_7  and  C_8
REMARK    6  A    between atoms: C_8  and  C_9
REMARK    7  A    between atoms: C_12  and  C_13
REMARK    8  A    between atoms: C_13  and  C_14
REMARK    9  A    between atoms: C_14  and  N_15
REMARK                            x       y       z     vdW  Elec       q    Type
REMARK                         _______ _______ _______ _____ _____    ______ ____
ROOT
ATOM      1  C   UNL     1       2.820   0.529  -1.350  0.00  0.00    +0.000 A 
ATOM      2  C   UNL     1       2.689   1.880  -1.648  0.00  0.00    +0.000 A 
ATOM      3  N   UNL     1       3.128   2.107  -2.929  0.00  0.00    +0.000 N 
ATOM      4  C   UNL     1       3.568   0.927  -3.482  0.00  0.00    +0.000 A 
ATOM      5  C   UNL     1       4.112   0.628  -4.738  0.00  0.00    +0.000 A 
ATOM      6  C   UNL     1       4.462  -0.698  -4.960  0.00  0.00    +0.000 A 
ATOM      7  C   UNL     1       4.256  -1.626  -3.953  0.00  0.00    +0.000 A 
ATOM      8  N   UNL     1       3.733  -1.363  -2.739  0.00  0.00    +0.000 NA
ATOM      9  C   UNL     1       3.390  -0.068  -2.520  0.00  0.00    +0.000 A 
ENDROOT
BRANCH   1  11
ATOM     10  C   UNL     1       0.882   0.048   0.158  0.00  0.00    +0.000 C 
ATOM     11  C   UNL     1       2.406  -0.123  -0.033  0.00  0.00    +0.000 C 
ATOM     12  C   UNL     1       3.134   0.552   1.151  0.00  0.00    +0.000 C 
ATOM     13  C   UNL     1       2.718  -1.630   0.038  0.00  0.00    +0.000 C 
ENDBRANCH   1  11
BRANCH   3  14
ATOM     14  C   UNL     1       3.251   3.428  -3.532  0.00  0.00    +0.000 C 
BRANCH  14  15
ATOM     15  C   UNL     1       2.043   3.831  -4.340  0.00  0.00    +0.000 A 
ATOM     16  C   UNL     1       0.934   4.405  -3.719  0.00  0.00    +0.000 A 
ATOM     17  C   UNL     1      -0.102   4.904  -4.508  0.00  0.00    +0.000 A 
ATOM     18  C   UNL     1      -0.027   4.803  -5.898  0.00  0.00    +0.000 A 
ATOM     19  C   UNL     1       1.095   4.178  -6.428  0.00  0.00    +0.000 A 
ATOM     20  N   UNL     1       2.126   3.704  -5.690  0.00  0.00    +0.000 NA
BRANCH  18  21
ATOM     21  C   UNL     1      -1.091   5.391  -6.786  0.00  0.00    +0.000 C 
BRANCH  21  22
ATOM     22  C   UNL     1      -0.779   6.846  -7.169  0.00  0.00    +0.000 C 
BRANCH  22  23
ATOM     23  N   UNL     1      -1.834   7.409  -8.007  0.00  0.00    +0.000 NA
ATOM     24  H   UNL     1      -1.890   6.898  -8.888  0.00  0.00    +0.000 HD
ATOM     25  H   UNL     1      -1.594   8.370  -8.253  0.00  0.00    +0.000 HD
ENDBRANCH  22  23
ENDBRANCH  21  22
ENDBRANCH  18  21
ENDBRANCH  14  15
ENDBRANCH   3  14
TORSDOF 6
