REMARK  Name = 
REMARK  4 active torsions:
REMARK  status: ('A' for Active; 'I' for Inactive)
REMARK    1  A    between atoms: C_2  and  C_4
REMARK    2  A    between atoms: C_7  and  C_8
REMARK    3  A    between atoms: C_8  and  C_9
REMARK    4  A    between atoms: C_9  and  C_10
REMARK                            x       y       z     vdW  Elec       q    Type
REMARK                         _______ _______ _______ _____ _____    ______ ____
ROOT
ATOM      1  C   UNL     1       9.204  -0.896  -3.673  0.00  0.00    +0.000 A 
ATOM      2  C   UNL     1       8.892   0.220  -4.437  0.00  0.00    +0.000 A 
ATOM      3  C   UNL     1       7.563   0.420  -4.805  0.00  0.00    +0.000 A 
ATOM      4  C   UNL     1       6.583  -0.506  -4.435  0.00  0.00    +0.000 A 
ATOM      5  C   UNL     1       7.007  -1.592  -3.663  0.00  0.00    +0.000 A 
ATOM      6  N   UNL     1       8.285  -1.816  -3.273  0.00  0.00    +0.000 NA
ENDROOT
BRANCH   1   8
ATOM      7  N   UNL     1      10.837  -2.246  -2.488  0.00  0.00    +0.000 N 
ATOM      8  C   UNL     1      10.617  -1.110  -3.220  0.00  0.00    +0.000 C 
ATOM      9  O   UNL     1      11.522  -0.325  -3.474  0.00  0.00    +0.000 OA
ATOM     10  H   UNL     1      11.760  -2.440  -2.132  0.00  0.00    +0.000 HD
ATOM     11  H   UNL     1      10.060  -2.864  -2.281  0.00  0.00    +0.000 HD
ENDBRANCH   1   8
BRANCH   4  12
ATOM     12  C   UNL     1       5.108  -0.326  -4.718  0.00  0.00    +0.000 C 
BRANCH  12  13
ATOM     13  C   UNL     1       4.764   0.310  -6.063  0.00  0.00    +0.000 C 
ATOM     14  C   UNL     1       4.628   1.826  -6.116  0.00  0.00    +0.000 C 
ATOM     15  C   UNL     1       3.394   0.985  -6.177  0.00  0.00    +0.000 C 
BRANCH  13  16
ATOM     16  C   UNL     1       5.197  -0.453  -7.317  0.00  0.00    +0.000 A 
ATOM     17  C   UNL     1       4.450  -1.541  -7.801  0.00  0.00    +0.000 A 
ATOM     18  C   UNL     1       4.796  -2.196  -8.985  0.00  0.00    +0.000 A 
ATOM     19  C   UNL     1       5.912  -1.783  -9.707  0.00  0.00    +0.000 A 
ATOM     20  C   UNL     1       6.682  -0.725  -9.241  0.00  0.00    +0.000 A 
ATOM     21  C   UNL     1       6.325  -0.068  -8.063  0.00  0.00    +0.000 A 
ENDBRANCH  13  16
ENDBRANCH  12  13
ENDBRANCH   4  12
TORSDOF 4
