REMARK  Name = 
REMARK  7 active torsions:
REMARK  status: ('A' for Active; 'I' for Inactive)
REMARK    1  A    between atoms: C_1  and  C_2
REMARK    2  A    between atoms: C_2  and  N_3
REMARK    3  A    between atoms: C_2  and  C_12
REMARK    4  A    between atoms: C_4  and  C_6
REMARK    5  A    between atoms: C_15  and  C_16
REMARK    6  A    between atoms: C_16  and  N_17
REMARK    7  A    between atoms: C_18  and  C_20
REMARK                            x       y       z     vdW  Elec       q    Type
REMARK                         _______ _______ _______ _____ _____    ______ ____
ROOT
ATOM      1  C   UNL     1       7.527   5.444   2.488  0.00  0.00    +0.000 A 
ATOM      2  C   UNL     1       6.653   6.039   3.401  0.00  0.00    +0.000 A 
ATOM      3  C   UNL     1       7.174   6.753   4.484  0.00  0.00    +0.000 A 
ATOM      4  C   UNL     1       8.555   6.883   4.634  0.00  0.00    +0.000 A 
ATOM      5  C   UNL     1       9.350   6.282   3.666  0.00  0.00    +0.000 A 
ATOM      6  N   UNL     1       8.873   5.583   2.605  0.00  0.00    +0.000 NA
ENDROOT
BRANCH   1   8
ATOM      7  C   UNL     1       6.297   3.332   1.959  0.00  0.00    +0.000 C 
ATOM      8  C   UNL     1       7.011   4.549   1.356  0.00  0.00    +0.000 C 
BRANCH   8   9
ATOM      9  N   UNL     1       6.170   5.299   0.417  0.00  0.00    +0.000 N 
ATOM     10  C   UNL     1       5.654   4.721  -0.742  0.00  0.00    +0.000 C 
ATOM     11  O   UNL     1       5.796   3.539  -1.033  0.00  0.00    +0.000 OA
ATOM     12  H   UNL     1       6.379   6.287   0.346  0.00  0.00    +0.000 HD
BRANCH  10  13
ATOM     13  C   UNL     1       4.890   5.738  -1.639  0.00  0.00    +0.000 C 
ATOM     14  C   UNL     1       4.273   5.136  -2.910  0.00  0.00    +0.000 C 
ATOM     15  C   UNL     1       2.985   4.350  -2.670  0.00  0.00    +0.000 C 
ATOM     16  C   UNL     1       2.035   5.057  -1.710  0.00  0.00    +0.000 C 
ATOM     17  C   UNL     1       2.750   5.612  -0.485  0.00  0.00    +0.000 C 
ATOM     18  N   UNL     1       3.874   6.475  -0.852  0.00  0.00    +0.000 NA
ATOM     19  H   UNL     1       4.304   6.827   0.001  0.00  0.00    +0.000 HD
ENDBRANCH  10  13
ENDBRANCH   8   9
ENDBRANCH   1   8
BRANCH   4  20
ATOM     20  C   UNL     1       9.167   7.599   5.806  0.00  0.00    +0.000 C 
BRANCH  20  21
ATOM     21  N   UNL     1       9.413   6.705   6.912  0.00  0.00    +0.000 N 
ATOM     22  C   UNL     1       9.875   7.176   8.118  0.00  0.00    +0.000 C 
ATOM     23  O   UNL     1      10.041   8.376   8.321  0.00  0.00    +0.000 OA
ATOM     24  H   UNL     1       9.497   5.714   6.707  0.00  0.00    +0.000 HD
BRANCH  22  25
ATOM     25  C   UNL     1      10.107   6.182   9.176  0.00  0.00    +0.000 A 
ATOM     26  C   UNL     1      10.092   6.580  10.508  0.00  0.00    +0.000 A 
ATOM     27  S   UNL     1      10.343   5.301  11.609  0.00  0.00    +0.000 S 
ATOM     28  C   UNL     1      10.537   4.177  10.347  0.00  0.00    +0.000 A 
ATOM     29  N   UNL     1      10.814   2.873  10.605  0.00  0.00    +0.000 NA
ATOM     30  C   UNL     1      10.974   2.141   9.552  0.00  0.00    +0.000 A 
ATOM     31  N   UNL     1      10.865   2.595   8.264  0.00  0.00    +0.000 N 
ATOM     32  C   UNL     1      10.543   3.895   7.954  0.00  0.00    +0.000 A 
ATOM     33  O   UNL     1      10.397   4.260   6.791  0.00  0.00    +0.000 OA
ATOM     34  C   UNL     1      10.383   4.764   9.104  0.00  0.00    +0.000 A 
ATOM     35  H   UNL     1      10.989   1.966   7.484  0.00  0.00    +0.000 HD
ENDBRANCH  22  25
ENDBRANCH  20  21
ENDBRANCH   4  20
TORSDOF 6
