REMARK  Name = 
REMARK  6 active torsions:
REMARK  status: ('A' for Active; 'I' for Inactive)
REMARK    1  A    between atoms: N_1  and  C_2
REMARK    2  A    between atoms: C_2  and  C_3
REMARK    3  A    between atoms: C_7  and  O_8
REMARK    4  A    between atoms: O_8  and  C_9
REMARK    5  A    between atoms: C_9  and  C_10
REMARK    6  A    between atoms: C_10  and  C_11
REMARK                            x       y       z     vdW  Elec       q    Type
REMARK                         _______ _______ _______ _____ _____    ______ ____
ROOT
ATOM      1  C   UNL     1       3.956   1.726   2.653  0.00  0.00    +0.000 A 
ATOM      2  C   UNL     1       3.437   0.799   1.744  0.00  0.00    +0.000 A 
ATOM      3  C   UNL     1       2.621   1.249   0.724  0.00  0.00    +0.000 A 
ATOM      4  N   UNL     1       2.285   2.542   0.552  0.00  0.00    +0.000 NA
ATOM      5  C   UNL     1       2.794   3.432   1.431  0.00  0.00    +0.000 A 
ATOM      6  C   UNL     1       3.622   3.077   2.489  0.00  0.00    +0.000 A 
ENDROOT
BRANCH   1   7
ATOM      7  C   UNL     1       4.848   1.259   3.770  0.00  0.00    +0.000 C 
BRANCH   7   8
ATOM      8  N   UNL     1       6.049   0.611   3.253  0.00  0.00    +0.000 NA
ATOM      9  H   UNL     1       6.663   0.368   4.029  0.00  0.00    +0.000 HD
ATOM     10  H   UNL     1       6.563   1.279   2.679  0.00  0.00    +0.000 HD
ENDBRANCH   7   8
ENDBRANCH   1   7
BRANCH   5  11
ATOM     11  O   UNL     1       2.483   4.776   1.284  0.00  0.00    +0.000 OA
BRANCH  11  12
ATOM     12  C   UNL     1       1.695   5.009   0.105  0.00  0.00    +0.000 C 
BRANCH  12  13
ATOM     13  C   UNL     1       1.393   6.498  -0.048  0.00  0.00    +0.000 C 
BRANCH  13  14
ATOM     14  C   UNL     1       0.565   6.746  -1.285  0.00  0.00    +0.000 A 
ATOM     15  C   UNL     1      -0.824   6.706  -1.234  0.00  0.00    +0.000 A 
ATOM     16  C   UNL     1      -1.532   6.895  -2.416  0.00  0.00    +0.000 A 
ATOM     17 CL   UNL     1      -3.253   6.851  -2.399  0.00  0.00    +0.000 Cl
ATOM     18  C   UNL     1      -0.864   7.114  -3.613  0.00  0.00    +0.000 A 
ATOM     19  C   UNL     1       0.515   7.132  -3.573  0.00  0.00    +0.000 A 
ATOM     20  N   UNL     1       1.237   6.955  -2.443  0.00  0.00    +0.000 NA
ENDBRANCH  13  14
ENDBRANCH  12  13
ENDBRANCH  11  12
ENDBRANCH   5  11
TORSDOF 6
