REMARK  Name = 
REMARK  8 active torsions:
REMARK  status: ('A' for Active; 'I' for Inactive)
REMARK    1  A    between atoms: N_1  and  C_2
REMARK    2  A    between atoms: C_2  and  C_3
REMARK    3  A    between atoms: C_2  and  C_17
REMARK    4  A    between atoms: C_3  and  N_4
REMARK    5  A    between atoms: C_7  and  C_8
REMARK    6  A    between atoms: C_8  and  N_9
REMARK    7  A    between atoms: N_9  and  C_10
REMARK    8  A    between atoms: C_10  and  C_11
REMARK                            x       y       z     vdW  Elec       q    Type
REMARK                         _______ _______ _______ _____ _____    ______ ____
ROOT
ATOM      1  C   UNL     1       0.738  -1.214   0.634  0.00  0.00    +0.000 C 
ENDROOT
BRANCH   1   2
ATOM      2  C   UNL     1       1.400  -1.288   2.001  0.00  0.00    +0.000 A 
ATOM      3  C   UNL     1       2.765  -1.146   2.223  0.00  0.00    +0.000 A 
ATOM      4  S   UNL     1       3.176  -1.095   3.878  0.00  0.00    +0.000 S 
ATOM      5  C   UNL     1       1.552  -1.287   4.349  0.00  0.00    +0.000 A 
ATOM      6  N   UNL     1       1.195  -1.285   5.662  0.00  0.00    +0.000 NA
ATOM      7  C   UNL     1      -0.066  -1.470   5.869  0.00  0.00    +0.000 A 
ATOM      8  N   UNL     1      -1.001  -1.670   4.885  0.00  0.00    +0.000 N 
ATOM      9  C   UNL     1      -0.694  -1.656   3.541  0.00  0.00    +0.000 A 
ATOM     10  O   UNL     1      -1.563  -1.826   2.694  0.00  0.00    +0.000 OA
ATOM     11  C   UNL     1       0.711  -1.433   3.260  0.00  0.00    +0.000 A 
ATOM     12  H   UNL     1      -1.970  -1.835   5.115  0.00  0.00    +0.000 HD
ENDBRANCH   1   2
BRANCH   1  13
ATOM     13  N   UNL     1       1.211  -2.342  -0.170  0.00  0.00    +0.000 NA
ATOM     14  H   UNL     1       1.006  -3.211   0.319  0.00  0.00    +0.000 HD
ATOM     15  H   UNL     1       2.216  -2.287  -0.298  0.00  0.00    +0.000 HD
ENDBRANCH   1  13
BRANCH   1  16
ATOM     16  C   UNL     1       1.003   0.198   0.005  0.00  0.00    +0.000 C 
BRANCH  16  17
ATOM     17  N   UNL     1       0.456   0.487  -1.335  0.00  0.00    +0.000 NA
ATOM     18  C   UNL     1       0.849   1.839  -1.767  0.00  0.00    +0.000 C 
ATOM     19  C   UNL     1      -0.215   2.750  -1.185  0.00  0.00    +0.000 C 
ATOM     20  C   UNL     1      -1.497   1.947  -1.405  0.00  0.00    +0.000 C 
ATOM     21  C   UNL     1      -1.023   0.482  -1.371  0.00  0.00    +0.000 C 
BRANCH  20  22
ATOM     22  C   UNL     1      -2.140   2.339  -2.745  0.00  0.00    +0.000 C 
BRANCH  22  23
ATOM     23  N   UNL     1      -3.380   1.601  -2.971  0.00  0.00    +0.000 NA
ATOM     24  H   UNL     1      -4.060   1.824  -2.247  0.00  0.00    +0.000 HD
BRANCH  23  25
ATOM     25  C   UNL     1      -3.954   1.936  -4.276  0.00  0.00    +0.000 C 
BRANCH  25  26
ATOM     26  C   UNL     1      -5.202   1.136  -4.489  0.00  0.00    +0.000 A 
ATOM     27  C   UNL     1      -5.328  -0.238  -4.570  0.00  0.00    +0.000 A 
ATOM     28  C   UNL     1      -6.674  -0.650  -4.764  0.00  0.00    +0.000 A 
ATOM     29  C   UNL     1      -7.534   0.421  -4.835  0.00  0.00    +0.000 A 
ATOM     30  S   UNL     1      -6.718   1.914  -4.664  0.00  0.00    +0.000 S 
ENDBRANCH  25  26
ENDBRANCH  23  25
ENDBRANCH  22  23
ENDBRANCH  20  22
ENDBRANCH  16  17
ENDBRANCH   1  16
TORSDOF 8
