REMARK  Name = 
REMARK  5 active torsions:
REMARK  status: ('A' for Active; 'I' for Inactive)
REMARK    1  A    between atoms: N_1  and  C_2
REMARK    2  A    between atoms: C_2  and  C_3
REMARK    3  A    between atoms: C_6  and  C_7
REMARK    4  A    between atoms: C_7  and  N_8
REMARK    5  A    between atoms: C_13  and  C_14
REMARK                            x       y       z     vdW  Elec       q    Type
REMARK                         _______ _______ _______ _____ _____    ______ ____
ROOT
ATOM      1  N   UNL     1       6.222   5.316  -1.495  0.00  0.00    +0.000 N 
ATOM      2  C   UNL     1       6.783   6.430  -2.088  0.00  0.00    +0.000 A 
ATOM      3  N   UNL     1       8.052   6.272  -2.489  0.00  0.00    +0.000 NA
ATOM      4  C   UNL     1       8.681   7.338  -3.014  0.00  0.00    +0.000 A 
ATOM      5  C   UNL     1       8.087   8.559  -3.163  0.00  0.00    +0.000 A 
ATOM      6  C   UNL     1       6.780   8.615  -2.738  0.00  0.00    +0.000 A 
ATOM      7  N   UNL     1       6.098   7.571  -2.206  0.00  0.00    +0.000 NA
ATOM      8  H   UNL     1       6.820   4.546  -1.773  0.00  0.00    +0.000 HD
ENDROOT
BRANCH   6   9
ATOM      9  C   UNL     1       6.044   9.912  -2.831  0.00  0.00    +0.000 C 
ATOM     10  N   UNL     1       4.744   9.888  -2.404  0.00  0.00    +0.000 N 
ATOM     11  O   UNL     1       6.567  10.937  -3.250  0.00  0.00    +0.000 OA
ATOM     12  H   UNL     1       4.364   9.039  -2.003  0.00  0.00    +0.000 HD
ATOM     13  H   UNL     1       4.219  10.750  -2.376  0.00  0.00    +0.000 HD
ENDBRANCH   6   9
BRANCH   1  14
ATOM     14  C   UNL     1       4.799   5.115  -1.692  0.00  0.00    +0.000 C 
BRANCH  14  18
ATOM     15  C   UNL     1       2.989   1.188  -0.785  0.00  0.00    +0.000 C 
ATOM     16  C   UNL     1       4.512   1.341  -0.669  0.00  0.00    +0.000 C 
ATOM     17  C   UNL     1       5.027   2.578  -1.403  0.00  0.00    +0.000 C 
ATOM     18  C   UNL     1       4.328   3.862  -0.924  0.00  0.00    +0.000 C 
ATOM     19  C   UNL     1       2.806   3.708  -1.056  0.00  0.00    +0.000 C 
ATOM     20  C   UNL     1       2.289   2.474  -0.317  0.00  0.00    +0.000 C 
BRANCH  15  21
ATOM     21  C   UNL     1       2.529  -0.047   0.011  0.00  0.00    +0.000 C 
BRANCH  21  22
ATOM     22  N   UNL     1       1.089  -0.256  -0.087  0.00  0.00    +0.000 NA
ATOM     23  H   UNL     1       0.836  -1.112   0.404  0.00  0.00    +0.000 HD
ATOM     24  H   UNL     1       0.825  -0.392  -1.061  0.00  0.00    +0.000 HD
ENDBRANCH  21  22
ENDBRANCH  15  21
ENDBRANCH  14  18
ENDBRANCH   1  14
TORSDOF 5
