REMARK  Name = 
REMARK  5 active torsions:
REMARK  status: ('A' for Active; 'I' for Inactive)
REMARK    1  A    between atoms: C_2  and  C_4
REMARK    2  A    between atoms: C_7  and  N_8
REMARK    3  A    between atoms: N_8  and  C_9
REMARK    4  A    between atoms: C_9  and  C_10
REMARK    5  A    between atoms: C_14  and  C_15
REMARK                            x       y       z     vdW  Elec       q    Type
REMARK                         _______ _______ _______ _____ _____    ______ ____
ROOT
ATOM      1  N   UNL     1       5.322  -2.288  -4.300  0.00  0.00    +0.000 N 
ATOM      2  H   UNL     1       5.373  -3.168  -3.796  0.00  0.00    +0.000 HD
ENDROOT
BRANCH   1   6
ATOM      3  C   UNL     1       4.949   1.134  -1.871  0.00  0.00    +0.000 A 
ATOM      4  C   UNL     1       4.353   1.118  -3.134  0.00  0.00    +0.000 A 
ATOM      5  C   UNL     1       4.439  -0.025  -3.935  0.00  0.00    +0.000 A 
ATOM      6  C   UNL     1       5.100  -1.177  -3.497  0.00  0.00    +0.000 A 
ATOM      7  C   UNL     1       5.712  -1.133  -2.235  0.00  0.00    +0.000 A 
ATOM      8  C   UNL     1       5.641   0.008  -1.427  0.00  0.00    +0.000 A 
BRANCH   3  10
ATOM      9  N   UNL     1       3.813   3.165  -1.170  0.00  0.00    +0.000 N 
ATOM     10  C   UNL     1       4.891   2.338  -1.008  0.00  0.00    +0.000 C 
ATOM     11  O   UNL     1       5.744   2.569  -0.162  0.00  0.00    +0.000 OA
ATOM     12  H   UNL     1       3.726   3.925  -0.509  0.00  0.00    +0.000 HD
ATOM     13  H   UNL     1       2.985   2.881  -1.672  0.00  0.00    +0.000 HD
ENDBRANCH   3  10
ENDBRANCH   1   6
BRANCH   1  14
ATOM     14  C   UNL     1       4.796  -2.403  -5.648  0.00  0.00    +0.000 C 
BRANCH  14  15
ATOM     15  C   UNL     1       5.671  -3.337  -6.443  0.00  0.00    +0.000 A 
ATOM     16  C   UNL     1       7.021  -3.019  -6.648  0.00  0.00    +0.000 A 
ATOM     17  C   UNL     1       7.831  -3.845  -7.419  0.00  0.00    +0.000 A 
ATOM     18  C   UNL     1       7.304  -5.014  -7.970  0.00  0.00    +0.000 A 
ATOM     19  C   UNL     1       5.965  -5.390  -7.752  0.00  0.00    +0.000 A 
ATOM     20  C   UNL     1       5.153  -4.513  -7.007  0.00  0.00    +0.000 A 
BRANCH  19  21
ATOM     21  C   UNL     1       5.433  -6.675  -8.241  0.00  0.00    +0.000 A 
ATOM     22  C   UNL     1       6.213  -7.830  -8.316  0.00  0.00    +0.000 A 
ATOM     23  N   UNL     1       5.738  -9.035  -8.722  0.00  0.00    +0.000 NA
ATOM     24  C   UNL     1       4.430  -9.048  -9.050  0.00  0.00    +0.000 A 
ATOM     25  C   UNL     1       3.638  -7.915  -8.979  0.00  0.00    +0.000 A 
ATOM     26  N   UNL     1       4.115  -6.715  -8.573  0.00  0.00    +0.000 NA
ENDBRANCH  19  21
ENDBRANCH  14  15
ENDBRANCH   1  14
TORSDOF 5
