REMARK  Name = 
REMARK  7 active torsions:
REMARK  status: ('A' for Active; 'I' for Inactive)
REMARK    1  A    between atoms: C_1  and  S_2
REMARK    2  A    between atoms: S_2  and  C_3
REMARK    3  A    between atoms: C_6  and  C_7
REMARK    4  A    between atoms: C_7  and  C_8
REMARK    5  A    between atoms: C_7  and  N_9
REMARK    6  A    between atoms: N_9  and  C_10
REMARK    7  A    between atoms: C_13  and  C_14
REMARK                            x       y       z     vdW  Elec       q    Type
REMARK                         _______ _______ _______ _____ _____    ______ ____
ROOT
ATOM      1  N   UNL     1       4.917  -3.690  -5.187  0.00  0.00    +0.000 N 
ATOM      2  H   UNL     1       5.377  -2.800  -4.995  0.00  0.00    +0.000 HD
ENDROOT
BRANCH   1   3
ATOM      3  C   UNL     1       5.777  -4.502  -5.945  0.00  0.00    +0.000 A 
ATOM      4  C   UNL     1       5.697  -5.898  -5.993  0.00  0.00    +0.000 A 
ATOM      5  C   UNL     1       6.545  -6.654  -6.813  0.00  0.00    +0.000 A 
ATOM      6  C   UNL     1       7.481  -6.027  -7.636  0.00  0.00    +0.000 A 
ATOM      7  C   UNL     1       7.552  -4.632  -7.638  0.00  0.00    +0.000 A 
ATOM      8  C   UNL     1       6.694  -3.886  -6.815  0.00  0.00    +0.000 A 
BRANCH   6   9
ATOM      9  C   UNL     1       8.376  -6.887  -8.456  0.00  0.00    +0.000 C 
ATOM     10  N   UNL     1       8.926  -6.342  -9.580  0.00  0.00    +0.000 N 
ATOM     11  O   UNL     1       8.590  -8.058  -8.161  0.00  0.00    +0.000 OA
ATOM     12  H   UNL     1       8.590  -5.484  -9.990  0.00  0.00    +0.000 HD
ATOM     13  H   UNL     1       9.438  -6.981 -10.178  0.00  0.00    +0.000 HD
ENDBRANCH   6   9
ENDBRANCH   1   3
BRANCH   1  14
ATOM     14  C   UNL     1       4.295  -4.220  -3.954  0.00  0.00    +0.000 C 
ATOM     15  C   UNL     1       2.955  -4.903  -4.250  0.00  0.00    +0.000 C 
BRANCH  14  19
ATOM     16  C   UNL     1       3.572  -1.191  -0.977  0.00  0.00    +0.000 A 
ATOM     17  C   UNL     1       2.927  -1.095  -2.207  0.00  0.00    +0.000 A 
ATOM     18  C   UNL     1       3.174  -2.047  -3.199  0.00  0.00    +0.000 A 
ATOM     19  C   UNL     1       4.063  -3.092  -2.938  0.00  0.00    +0.000 A 
ATOM     20  N   UNL     1       4.728  -3.182  -1.758  0.00  0.00    +0.000 NA
ATOM     21  C   UNL     1       4.474  -2.236  -0.819  0.00  0.00    +0.000 A 
BRANCH  16  23
ATOM     22  C   UNL     1       2.628  -1.080   1.604  0.00  0.00    +0.000 C 
ATOM     23  S   UNL     1       3.257   0.009   0.296  0.00  0.00    +0.000 S 
ENDBRANCH  16  23
ENDBRANCH  14  19
ENDBRANCH   1  14
TORSDOF 5
