REMARK  Name = 
REMARK  6 active torsions:
REMARK  status: ('A' for Active; 'I' for Inactive)
REMARK    1  A    between atoms: C_2  and  C_25
REMARK    2  A    between atoms: N_3  and  C_4
REMARK    3  A    between atoms: C_4  and  C_5
REMARK    4  A    between atoms: C_8  and  C_9
REMARK    5  A    between atoms: C_9  and  N_10
REMARK    6  A    between atoms: C_11  and  C_13
REMARK                            x       y       z     vdW  Elec       q    Type
REMARK                         _______ _______ _______ _____ _____    ______ ____
ROOT
ATOM      1  C   UNL     1       3.219   3.497   0.993  0.00  0.00    +0.000 A 
ATOM      2  C   UNL     1       2.796   4.812   0.787  0.00  0.00    +0.000 A 
ATOM      3  C   UNL     1       3.653   5.871   1.073  0.00  0.00    +0.000 A 
ATOM      4  C   UNL     1       4.926   5.592   1.565  0.00  0.00    +0.000 A 
ATOM      5  N   UNL     1       5.375   4.323   1.737  0.00  0.00    +0.000 NA
ATOM      6  C   UNL     1       4.522   3.315   1.446  0.00  0.00    +0.000 A 
ENDROOT
BRANCH   1   7
ATOM      7  C   UNL     1       2.304   2.336   0.769  0.00  0.00    +0.000 C 
BRANCH   7  10
ATOM      8  O   UNL     1       0.826   0.173  -0.156  0.00  0.00    +0.000 OA
ATOM      9  C   UNL     1       1.523   0.792  -0.957  0.00  0.00    +0.000 C 
ATOM     10  N   UNL     1       2.294   1.871  -0.592  0.00  0.00    +0.000 N 
ATOM     11  H   UNL     1       2.777   2.371  -1.334  0.00  0.00    +0.000 HD
BRANCH   9  12
ATOM     12  C   UNL     1       1.593   0.447  -2.362  0.00  0.00    +0.000 A 
ATOM     13  N   UNL     1       2.373   1.031  -3.258  0.00  0.00    +0.000 NA
ATOM     14  C   UNL     1       2.127   0.367  -4.439  0.00  0.00    +0.000 A 
ATOM     15  C   UNL     1       1.178  -0.612  -4.264  0.00  0.00    +0.000 A 
ATOM     16  N   UNL     1       0.848  -0.552  -2.940  0.00  0.00    +0.000 N 
ATOM     17  H   UNL     1       0.181  -1.127  -2.443  0.00  0.00    +0.000 HD
ENDBRANCH   9  12
ENDBRANCH   7  10
ENDBRANCH   1   7
BRANCH   4  18
ATOM     18  C   UNL     1       5.868   6.718   1.917  0.00  0.00    +0.000 C 
BRANCH  18  19
ATOM     19  N   UNL     1       6.692   7.112   0.797  0.00  0.00    +0.000 N 
ATOM     20  C   UNL     1       6.402   8.193   0.011  0.00  0.00    +0.000 C 
ATOM     21  O   UNL     1       5.415   8.897   0.213  0.00  0.00    +0.000 OA
ATOM     22  H   UNL     1       7.366   6.419   0.483  0.00  0.00    +0.000 HD
BRANCH  20  23
ATOM     23  C   UNL     1       7.370   8.517  -1.045  0.00  0.00    +0.000 A 
ATOM     24  C   UNL     1       7.418   9.808  -1.556  0.00  0.00    +0.000 A 
ATOM     25  S   UNL     1       8.625  10.034  -2.738  0.00  0.00    +0.000 S 
ATOM     26  C   UNL     1       9.099   8.403  -2.643  0.00  0.00    +0.000 A 
ATOM     27  N   UNL     1      10.096   7.919  -3.433  0.00  0.00    +0.000 NA
ATOM     28  C   UNL     1      10.329   6.658  -3.285  0.00  0.00    +0.000 A 
ATOM     29  N   UNL     1       9.663   5.839  -2.410  0.00  0.00    +0.000 N 
ATOM     30  C   UNL     1       8.691   6.296  -1.554  0.00  0.00    +0.000 A 
ATOM     31  O   UNL     1       8.178   5.556  -0.721  0.00  0.00    +0.000 OA
ATOM     32  C   UNL     1       8.363   7.701  -1.706  0.00  0.00    +0.000 A 
ATOM     33  H   UNL     1       9.907   4.863  -2.325  0.00  0.00    +0.000 HD
ENDBRANCH  20  23
ENDBRANCH  18  19
ENDBRANCH   4  18
TORSDOF 6
