REMARK  Name = 
REMARK  5 active torsions:
REMARK  status: ('A' for Active; 'I' for Inactive)
REMARK    1  A    between atoms: N_1  and  C_2
REMARK    2  A    between atoms: C_2  and  C_3
REMARK    3  A    between atoms: C_6  and  C_7
REMARK    4  A    between atoms: C_7  and  N_8
REMARK    5  A    between atoms: C_14  and  N_15
REMARK                            x       y       z     vdW  Elec       q    Type
REMARK                         _______ _______ _______ _____ _____    ______ ____
ROOT
ATOM      1  N   UNL     1       5.176  -4.287  -4.366  0.00  0.00    +0.000 N 
ATOM      2  C   UNL     1       4.059  -5.025  -4.673  0.00  0.00    +0.000 A 
ATOM      3  C   UNL     1       4.442  -6.337  -4.843  0.00  0.00    +0.000 A 
ATOM      4  C   UNL     1       5.854  -6.395  -4.680  0.00  0.00    +0.000 A 
ATOM      5  C   UNL     1       6.797  -7.428  -4.813  0.00  0.00    +0.000 A 
ATOM      6  C   UNL     1       8.160  -7.149  -4.642  0.00  0.00    +0.000 A 
ATOM      7  C   UNL     1       8.565  -5.864  -4.271  0.00  0.00    +0.000 A 
ATOM      8  C   UNL     1       7.637  -4.831  -4.052  0.00  0.00    +0.000 A 
ATOM      9  C   UNL     1       6.286  -5.112  -4.320  0.00  0.00    +0.000 A 
ENDROOT
BRANCH   7  10
ATOM     10  N   UNL     1       9.999  -5.561  -4.175  0.00  0.00    +0.000 N 
ATOM     11  O   UNL     1      10.801  -6.445  -4.510  0.00  0.00    +0.000 OA
ATOM     12  O   UNL     1      10.326  -4.431  -3.783  0.00  0.00    +0.000 OA
ENDBRANCH   7  10
BRANCH   1  13
ATOM     13  C   UNL     1       5.197  -2.829  -4.317  0.00  0.00    +0.000 C 
BRANCH  13  17
ATOM     14  C   UNL     1       3.109  -0.362  -1.382  0.00  0.00    +0.000 C 
ATOM     15  C   UNL     1       3.068  -1.882  -1.171  0.00  0.00    +0.000 C 
ATOM     16  C   UNL     1       3.533  -2.657  -2.402  0.00  0.00    +0.000 C 
ATOM     17  C   UNL     1       4.910  -2.216  -2.930  0.00  0.00    +0.000 C 
ATOM     18  C   UNL     1       5.031  -0.681  -3.021  0.00  0.00    +0.000 C 
ATOM     19  C   UNL     1       4.546   0.029  -1.757  0.00  0.00    +0.000 C 
BRANCH  14  20
ATOM     20  C   UNL     1       2.040   0.078  -2.408  0.00  0.00    +0.000 C 
BRANCH  20  21
ATOM     21  N   UNL     1       2.023   1.520  -2.622  0.00  0.00    +0.000 NA
ATOM     22  H   UNL     1       1.321   1.746  -3.326  0.00  0.00    +0.000 HD
ATOM     23  H   UNL     1       2.913   1.824  -3.014  0.00  0.00    +0.000 HD
ENDBRANCH  20  21
ENDBRANCH  14  20
ENDBRANCH  13  17
ENDBRANCH   1  13
TORSDOF 5
