REMARK  Name = 
REMARK  6 active torsions:
REMARK  status: ('A' for Active; 'I' for Inactive)
REMARK    1  A    between atoms: C_2  and  C_19
REMARK    2  A    between atoms: N_3  and  C_4
REMARK    3  A    between atoms: C_4  and  C_5
REMARK    4  A    between atoms: C_8  and  C_9
REMARK    5  A    between atoms: C_9  and  C_10
REMARK    6  A    between atoms: C_10  and  N_11
REMARK                            x       y       z     vdW  Elec       q    Type
REMARK                         _______ _______ _______ _____ _____    ______ ____
ROOT
ATOM      1  O   UNL     1       3.664  -0.272  -0.826  0.00  0.00    +0.000 OA
ATOM      2  C   UNL     1       2.881  -0.875  -1.550  0.00  0.00    +0.000 C 
ATOM      3  N   UNL     1       2.114  -1.927  -1.104  0.00  0.00    +0.000 N 
ATOM      4  H   UNL     1       1.626  -2.510  -1.769  0.00  0.00    +0.000 HD
ENDROOT
BRANCH   2   5
ATOM      5  C   UNL     1       2.646  -0.494  -2.943  0.00  0.00    +0.000 A 
ATOM      6  C   UNL     1       1.394  -0.538  -3.540  0.00  0.00    +0.000 A 
ATOM      7  S   UNL     1       1.386   0.075  -5.135  0.00  0.00    +0.000 S 
ATOM      8  C   UNL     1       3.052   0.420  -5.072  0.00  0.00    +0.000 A 
ATOM      9  N   UNL     1       3.688   0.996  -6.127  0.00  0.00    +0.000 NA
ATOM     10  C   UNL     1       4.946   1.216  -5.930  0.00  0.00    +0.000 A 
ATOM     11  N   UNL     1       5.625   0.899  -4.780  0.00  0.00    +0.000 N 
ATOM     12  C   UNL     1       5.040   0.238  -3.722  0.00  0.00    +0.000 A 
ATOM     13  O   UNL     1       5.720  -0.185  -2.798  0.00  0.00    +0.000 OA
ATOM     14  C   UNL     1       3.612   0.046  -3.866  0.00  0.00    +0.000 A 
ATOM     15  H   UNL     1       6.621   1.045  -4.712  0.00  0.00    +0.000 HD
ENDBRANCH   2   5
BRANCH   3  16
ATOM     16  C   UNL     1       2.205  -2.415   0.257  0.00  0.00    +0.000 C 
BRANCH  16  17
ATOM     17  C   UNL     1       3.159  -3.579   0.398  0.00  0.00    +0.000 A 
ATOM     18  C   UNL     1       4.510  -3.346   0.631  0.00  0.00    +0.000 A 
ATOM     19  C   UNL     1       5.366  -4.433   0.787  0.00  0.00    +0.000 A 
ATOM     20  C   UNL     1       4.866  -5.735   0.719  0.00  0.00    +0.000 A 
ATOM     21  C   UNL     1       3.508  -5.872   0.447  0.00  0.00    +0.000 A 
ATOM     22  N   UNL     1       2.650  -4.833   0.282  0.00  0.00    +0.000 NA
BRANCH  20  23
ATOM     23  C   UNL     1       5.761  -6.936   0.936  0.00  0.00    +0.000 C 
BRANCH  23  24
ATOM     24  C   UNL     1       6.436  -6.900   2.326  0.00  0.00    +0.000 C 
BRANCH  24  25
ATOM     25  N   UNL     1       7.330  -8.032   2.641  0.00  0.00    +0.000 NA
ATOM     26  C   UNL     1       6.648  -9.342   2.699  0.00  0.00    +0.000 C 
ATOM     27  C   UNL     1       5.695  -9.482   3.897  0.00  0.00    +0.000 C 
ATOM     28  O   UNL     1       6.405  -9.317   5.130  0.00  0.00    +0.000 OA
ATOM     29  C   UNL     1       7.062  -8.044   5.177  0.00  0.00    +0.000 C 
ATOM     30  C   UNL     1       7.985  -7.820   3.961  0.00  0.00    +0.000 C 
ENDBRANCH  24  25
ENDBRANCH  23  24
ENDBRANCH  20  23
ENDBRANCH  16  17
ENDBRANCH   3  16
TORSDOF 6
