REMARK  Name = 
REMARK  9 active torsions:
REMARK  status: ('A' for Active; 'I' for Inactive)
REMARK    1  A    between atoms: C_1  and  O_2
REMARK    2  A    between atoms: O_2  and  C_3
REMARK    3  A    between atoms: C_5  and  C_6
REMARK    4  A    between atoms: C_6  and  N_7
REMARK    5  A    between atoms: C_8  and  C_10
REMARK    6  A    between atoms: C_22  and  C_23
REMARK    7  A    between atoms: C_23  and  N_24
REMARK    8  A    between atoms: N_24  and  C_25
REMARK    9  A    between atoms: C_25  and  C_26
REMARK                            x       y       z     vdW  Elec       q    Type
REMARK                         _______ _______ _______ _____ _____    ______ ____
ROOT
ATOM      1  C   UNL     1       3.176  -0.856  -0.810  0.00  0.00    +0.000 A 
ATOM      2  C   UNL     1       2.844  -1.193  -2.132  0.00  0.00    +0.000 A 
ATOM      3  C   UNL     1       3.528  -2.204  -2.812  0.00  0.00    +0.000 A 
ATOM      4  C   UNL     1       4.508  -2.880  -2.105  0.00  0.00    +0.000 A 
ATOM      5  N   UNL     1       4.853  -2.594  -0.830  0.00  0.00    +0.000 NA
ATOM      6  C   UNL     1       4.177  -1.601  -0.175  0.00  0.00    +0.000 A 
ENDROOT
BRANCH   1   8
ATOM      7  C   UNL     1       3.038   1.067   0.596  0.00  0.00    +0.000 C 
ATOM      8  O   UNL     1       2.408   0.150  -0.290  0.00  0.00    +0.000 OA
ENDBRANCH   1   8
BRANCH   3   9
ATOM      9  C   UNL     1       3.221  -2.559  -4.235  0.00  0.00    +0.000 C 
BRANCH   9  10
ATOM     10  N   UNL     1       2.208  -3.581  -4.330  0.00  0.00    +0.000 N 
ATOM     11  C   UNL     1       1.902  -4.163  -5.537  0.00  0.00    +0.000 C 
ATOM     12  O   UNL     1       2.508  -3.873  -6.568  0.00  0.00    +0.000 OA
ATOM     13  H   UNL     1       1.551  -3.659  -3.561  0.00  0.00    +0.000 HD
BRANCH  11  14
ATOM     14  C   UNL     1       0.862  -5.198  -5.525  0.00  0.00    +0.000 A 
ATOM     15  C   UNL     1       0.811  -6.136  -6.556  0.00  0.00    +0.000 A 
ATOM     16  S   UNL     1      -0.420  -7.293  -6.363  0.00  0.00    +0.000 S 
ATOM     17  C   UNL     1      -0.965  -6.565  -4.930  0.00  0.00    +0.000 A 
ATOM     18  N   UNL     1      -2.037  -7.062  -4.254  0.00  0.00    +0.000 NA
ATOM     19  C   UNL     1      -2.360  -6.393  -3.197  0.00  0.00    +0.000 A 
ATOM     20  N   UNL     1      -1.707  -5.273  -2.754  0.00  0.00    +0.000 N 
ATOM     21  C   UNL     1      -0.607  -4.747  -3.391  0.00  0.00    +0.000 A 
ATOM     22  O   UNL     1      -0.027  -3.758  -2.954  0.00  0.00    +0.000 OA
ATOM     23  C   UNL     1      -0.207  -5.459  -4.591  0.00  0.00    +0.000 A 
ATOM     24  H   UNL     1      -2.009  -4.793  -1.918  0.00  0.00    +0.000 HD
ENDBRANCH  11  14
ENDBRANCH   9  10
ENDBRANCH   3   9
BRANCH   6  25
ATOM     25  C   UNL     1       4.562  -1.382   1.280  0.00  0.00    +0.000 C 
BRANCH  25  26
ATOM     26  N   UNL     1       5.571  -2.315   1.783  0.00  0.00    +0.000 NA
ATOM     27  H   UNL     1       6.356  -2.313   1.130  0.00  0.00    +0.000 HD
BRANCH  26  28
ATOM     28  C   UNL     1       6.014  -1.975   3.127  0.00  0.00    +0.000 C 
BRANCH  28  29
ATOM     29  C   UNL     1       7.103  -2.921   3.552  0.00  0.00    +0.000 A 
ATOM     30  C   UNL     1       8.379  -2.466   3.886  0.00  0.00    +0.000 A 
ATOM     31  C   UNL     1       9.349  -3.400   4.211  0.00  0.00    +0.000 A 
ATOM     32  N   UNL     1       9.138  -4.733   4.231  0.00  0.00    +0.000 NA
ATOM     33  C   UNL     1       7.897  -5.152   3.906  0.00  0.00    +0.000 A 
ATOM     34  C   UNL     1       6.861  -4.299   3.574  0.00  0.00    +0.000 A 
ENDBRANCH  28  29
ENDBRANCH  26  28
ENDBRANCH  25  26
ENDBRANCH   6  25
TORSDOF 8
