REMARK  Name = 
REMARK  5 active torsions:
REMARK  status: ('A' for Active; 'I' for Inactive)
REMARK    1  A    between atoms: C_2  and  C_4
REMARK    2  A    between atoms: C_7  and  O_8
REMARK    3  A    between atoms: O_8  and  C_9
REMARK    4  A    between atoms: C_9  and  C_10
REMARK    5  A    between atoms: C_14  and  C_15
REMARK                            x       y       z     vdW  Elec       q    Type
REMARK                         _______ _______ _______ _____ _____    ______ ____
ROOT
ATOM      1  C   UNL     1       4.792   4.562   3.899  0.00  0.00    +0.000 C 
ENDROOT
BRANCH   1   2
ATOM      2  C   UNL     1       5.657   5.712   4.359  0.00  0.00    +0.000 A 
ATOM      3  C   UNL     1       7.033   5.545   4.473  0.00  0.00    +0.000 A 
ATOM      4  N   UNL     1       7.864   6.540   4.854  0.00  0.00    +0.000 NA
ATOM      5  C   UNL     1       7.262   7.724   5.123  0.00  0.00    +0.000 A 
ATOM      6  C   UNL     1       5.885   7.925   5.033  0.00  0.00    +0.000 A 
ATOM      7  N   UNL     1       5.070   6.909   4.638  0.00  0.00    +0.000 NA
BRANCH   6   8
ATOM      8  C   UNL     1       5.233   9.200   5.341  0.00  0.00    +0.000 A 
ATOM      9  C   UNL     1       4.047   9.598   4.746  0.00  0.00    +0.000 A 
ATOM     10  N   UNL     1       3.413  10.768   4.993  0.00  0.00    +0.000 NA
ATOM     11  C   UNL     1       3.999  11.569   5.891  0.00  0.00    +0.000 A 
ATOM     12  N   UNL     1       5.139  11.308   6.544  0.00  0.00    +0.000 NA
ATOM     13  C   UNL     1       5.723  10.123   6.252  0.00  0.00    +0.000 A 
ENDBRANCH   6   8
ENDBRANCH   1   2
BRANCH   1  14
ATOM     14  O   UNL     1       5.214   4.204   2.580  0.00  0.00    +0.000 OA
BRANCH  14  18
ATOM     15  C   UNL     1       3.293   1.100   0.810  0.00  0.00    +0.000 A 
ATOM     16  C   UNL     1       2.925   1.508   2.088  0.00  0.00    +0.000 A 
ATOM     17  N   UNL     1       3.534   2.540   2.734  0.00  0.00    +0.000 NA
ATOM     18  C   UNL     1       4.517   3.151   2.036  0.00  0.00    +0.000 A 
ATOM     19  C   UNL     1       4.880   2.745   0.754  0.00  0.00    +0.000 A 
ATOM     20  N   UNL     1       4.289   1.710   0.106  0.00  0.00    +0.000 NA
BRANCH  15  22
ATOM     21  N   UNL     1       3.074  -0.412  -1.068  0.00  0.00    +0.000 N 
ATOM     22  C   UNL     1       2.600  -0.048   0.164  0.00  0.00    +0.000 C 
ATOM     23  O   UNL     1       1.672  -0.638   0.702  0.00  0.00    +0.000 OA
ATOM     24  H   UNL     1       2.660  -1.197  -1.550  0.00  0.00    +0.000 HD
ATOM     25  H   UNL     1       3.860   0.081  -1.478  0.00  0.00    +0.000 HD
ENDBRANCH  15  22
ENDBRANCH  14  18
ENDBRANCH   1  14
TORSDOF 5
