REMARK  Name = 
REMARK  3 active torsions:
REMARK  status: ('A' for Active; 'I' for Inactive)
REMARK    1  A    between atoms: C_2  and  C_4
REMARK    2  A    between atoms: N_8  and  C_9
REMARK    3  A    between atoms: C_9  and  C_10
REMARK                            x       y       z     vdW  Elec       q    Type
REMARK                         _______ _______ _______ _____ _____    ______ ____
ROOT
ATOM      1  C   UNL     1       3.332  -1.383  -0.593  0.00  0.00    +0.000 A 
ATOM      2  C   UNL     1       4.667  -1.677  -0.462  0.00  0.00    +0.000 A 
ATOM      3  N   UNL     1       5.394  -2.287  -1.421  0.00  0.00    +0.000 NA
ATOM      4  C   UNL     1       4.755  -2.632  -2.551  0.00  0.00    +0.000 A 
ATOM      5  N   UNL     1       5.449  -3.260  -3.570  0.00  0.00    +0.000 N 
ATOM      6  N   UNL     1       3.453  -2.400  -2.767  0.00  0.00    +0.000 NA
ATOM      7  C   UNL     1       2.764  -1.782  -1.780  0.00  0.00    +0.000 A 
ATOM      8  H   UNL     1       4.760  -3.716  -4.161  0.00  0.00    +0.000 HD
ENDROOT
BRANCH   1  10
ATOM      9  N   UNL     1       3.184   0.055   1.359  0.00  0.00    +0.000 N 
ATOM     10  C   UNL     1       2.531  -0.734   0.453  0.00  0.00    +0.000 C 
ATOM     11  O   UNL     1       1.318  -0.882   0.500  0.00  0.00    +0.000 OA
ATOM     12  H   UNL     1       2.600   0.550   2.022  0.00  0.00    +0.000 HD
ATOM     13  H   UNL     1       4.122   0.404   1.225  0.00  0.00    +0.000 HD
ENDBRANCH   1  10
BRANCH   5  14
ATOM     14  C   UNL     1       6.482  -4.163  -3.090  0.00  0.00    +0.000 C 
BRANCH  14  15
ATOM     15  C   UNL     1       7.145  -4.848  -4.267  0.00  0.00    +0.000 A 
ATOM     16  C   UNL     1       8.234  -4.249  -4.898  0.00  0.00    +0.000 A 
ATOM     17  C   UNL     1       8.798  -4.876  -6.005  0.00  0.00    +0.000 A 
ATOM     18  C   UNL     1       8.257  -6.073  -6.457  0.00  0.00    +0.000 A 
ATOM     19  C   UNL     1       7.169  -6.598  -5.779  0.00  0.00    +0.000 A 
ATOM     20  N   UNL     1       6.600  -6.015  -4.701  0.00  0.00    +0.000 NA
ENDBRANCH  14  15
ENDBRANCH   5  14
TORSDOF 3
