REMARK  Name = 
REMARK  5 active torsions:
REMARK  status: ('A' for Active; 'I' for Inactive)
REMARK    1  A    between atoms: N_1  and  C_2
REMARK    2  A    between atoms: C_2  and  C_3
REMARK    3  A    between atoms: C_7  and  C_8
REMARK    4  A    between atoms: C_8  and  N_9
REMARK    5  A    between atoms: C_14  and  C_15
REMARK                            x       y       z     vdW  Elec       q    Type
REMARK                         _______ _______ _______ _____ _____    ______ ____
ROOT
ATOM      1  N   UNL     1       1.740  -1.327   1.769  0.00  0.00    +0.000 N 
ATOM      2  C   UNL     1       1.562  -0.025   1.351  0.00  0.00    +0.000 A 
ATOM      3  C   UNL     1       1.285   0.753   2.452  0.00  0.00    +0.000 A 
ATOM      4  C   UNL     1       1.287  -0.092   3.591  0.00  0.00    +0.000 A 
ATOM      5  C   UNL     1       0.993   0.115   4.945  0.00  0.00    +0.000 A 
ATOM      6  C   UNL     1       1.085  -0.995   5.770  0.00  0.00    +0.000 A 
ATOM      7  N   UNL     1       1.481  -2.232   5.363  0.00  0.00    +0.000 NA
ATOM      8  C   UNL     1       1.784  -2.425   4.058  0.00  0.00    +0.000 A 
ATOM      9  C   UNL     1       1.643  -1.377   3.153  0.00  0.00    +0.000 A 
ENDROOT
BRANCH   6  10
ATOM     10  C   UNL     1       0.663  -0.870   7.211  0.00  0.00    +0.000 C 
ATOM     11  N   UNL     1       0.690  -2.035   7.933  0.00  0.00    +0.000 N 
ATOM     12  O   UNL     1       0.307   0.188   7.712  0.00  0.00    +0.000 OA
ATOM     13  H   UNL     1       0.964  -2.895   7.475  0.00  0.00    +0.000 HD
ATOM     14  H   UNL     1       0.381  -2.036   8.895  0.00  0.00    +0.000 HD
ENDBRANCH   6  10
BRANCH   1  15
ATOM     15  C   UNL     1       1.685  -2.483   0.859  0.00  0.00    +0.000 C 
BRANCH  15  20
ATOM     16  C   UNL     1       2.457  -3.534  -1.438  0.00  0.00    +0.000 C 
ATOM     17  C   UNL     1       3.361  -4.721  -1.105  0.00  0.00    +0.000 C 
ATOM     18  C   UNL     1       4.502  -4.176  -0.266  0.00  0.00    +0.000 C 
ATOM     19  C   UNL     1       4.138  -2.747   0.129  0.00  0.00    +0.000 C 
ATOM     20  C   UNL     1       2.692  -2.485  -0.315  0.00  0.00    +0.000 C 
BRANCH  16  21
ATOM     21  C   UNL     1       1.022  -4.015  -1.680  0.00  0.00    +0.000 C 
BRANCH  21  22
ATOM     22  N   UNL     1       0.139  -2.912  -2.026  0.00  0.00    +0.000 NA
ATOM     23  H   UNL     1      -0.832  -3.219  -1.947  0.00  0.00    +0.000 HD
ATOM     24  H   UNL     1       0.269  -2.670  -3.008  0.00  0.00    +0.000 HD
ENDBRANCH  21  22
ENDBRANCH  16  21
ENDBRANCH  15  20
ENDBRANCH   1  15
TORSDOF 5
