REMARK  Name = 
REMARK  7 active torsions:
REMARK  status: ('A' for Active; 'I' for Inactive)
REMARK    1  A    between atoms: C_2  and  C_3
REMARK    2  A    between atoms: C_5  and  N_6
REMARK    3  A    between atoms: N_6  and  C_7
REMARK    4  A    between atoms: C_7  and  C_8
REMARK    5  A    between atoms: C_12  and  C_13
REMARK    6  A    between atoms: C_17  and  C_18
REMARK    7  A    between atoms: C_27  and  C_28
REMARK                            x       y       z     vdW  Elec       q    Type
REMARK                         _______ _______ _______ _____ _____    ______ ____
ROOT
ATOM      1  C   UNL     1      -1.768   3.570  -0.013  0.00  0.00    +0.000 C 
ATOM      2  C   UNL     1      -0.677   4.431  -0.661  0.00  0.00    +0.000 C 
ATOM      3  C   UNL     1      -0.581   4.091   0.782  0.00  0.00    +0.000 C 
ENDROOT
BRANCH   1   4
ATOM      4  C   UNL     1      -3.099   4.290   0.241  0.00  0.00    +0.000 A 
ATOM      5  C   UNL     1      -3.817   4.109   1.428  0.00  0.00    +0.000 A 
ATOM      6  C   UNL     1      -4.861   4.969   1.766  0.00  0.00    +0.000 A 
ATOM      7  C   UNL     1      -5.193   6.034   0.924  0.00  0.00    +0.000 A 
ATOM      8  C   UNL     1      -4.539   6.221  -0.303  0.00  0.00    +0.000 A 
ATOM      9  C   UNL     1      -3.549   5.289  -0.649  0.00  0.00    +0.000 A 
BRANCH   8  10
ATOM     10  C   UNL     1      -4.769   7.416  -1.145  0.00  0.00    +0.000 A 
ATOM     11  C   UNL     1      -4.915   8.680  -0.563  0.00  0.00    +0.000 A 
ATOM     12  C   UNL     1      -5.067   9.792  -1.374  0.00  0.00    +0.000 A 
ATOM     13  N   UNL     1      -5.078   9.740  -2.720  0.00  0.00    +0.000 NA
ATOM     14  C   UNL     1      -4.929   8.520  -3.304  0.00  0.00    +0.000 A 
ATOM     15  C   UNL     1      -4.772   7.353  -2.547  0.00  0.00    +0.000 A 
BRANCH  14  16
ATOM     16  C   UNL     1      -4.921   8.411  -4.824  0.00  0.00    +0.000 C 
ATOM     17  F   UNL     1      -5.129   9.588  -5.478  0.00  0.00    +0.000 F 
ATOM     18  F   UNL     1      -3.738   7.924  -5.304  0.00  0.00    +0.000 F 
ATOM     19  F   UNL     1      -5.878   7.555  -5.287  0.00  0.00    +0.000 F 
ENDBRANCH  14  16
ENDBRANCH   8  10
ENDBRANCH   1   4
BRANCH   1  20
ATOM     20  N   UNL     1      -1.924   2.208  -0.548  0.00  0.00    +0.000 N 
ATOM     21  H   UNL     1      -2.740   2.051  -1.135  0.00  0.00    +0.000 HD
BRANCH  20  24
ATOM     22  C   UNL     1      -0.257  -0.479   1.414  0.00  0.00    +0.000 A 
ATOM     23  C   UNL     1      -0.586   0.805   0.970  0.00  0.00    +0.000 A 
ATOM     24  C   UNL     1      -1.611   0.988   0.055  0.00  0.00    +0.000 A 
ATOM     25  N   UNL     1      -2.321  -0.066  -0.400  0.00  0.00    +0.000 NA
ATOM     26  C   UNL     1      -1.990  -1.313   0.051  0.00  0.00    +0.000 A 
ATOM     27  C   UNL     1      -0.969  -1.568   0.947  0.00  0.00    +0.000 A 
BRANCH  26  28
ATOM     28  C   UNL     1      -2.779  -2.458  -0.497  0.00  0.00    +0.000 C 
ATOM     29  N   UNL     1      -3.776  -2.128  -1.374  0.00  0.00    +0.000 N 
ATOM     30  O   UNL     1      -2.548  -3.620  -0.189  0.00  0.00    +0.000 OA
ATOM     31  H   UNL     1      -3.926  -1.159  -1.631  0.00  0.00    +0.000 HD
ATOM     32  H   UNL     1      -4.320  -2.862  -1.803  0.00  0.00    +0.000 HD
ENDBRANCH  26  28
BRANCH  22  34
ATOM     33  N   UNL     1       1.718  -0.789   3.064  0.00  0.00    +0.000 NA
ATOM     34  C   UNL     1       0.833  -0.660   2.328  0.00  0.00    +0.000 C 
ENDBRANCH  22  34
ENDBRANCH  20  24
ENDBRANCH   1  20
TORSDOF 7
