REMARK  Name = 
REMARK  6 active torsions:
REMARK  status: ('A' for Active; 'I' for Inactive)
REMARK    1  A    between atoms: C_2  and  C_25
REMARK    2  A    between atoms: N_3  and  C_4
REMARK    3  A    between atoms: C_4  and  C_5
REMARK    4  A    between atoms: C_8  and  C_9
REMARK    5  A    between atoms: C_9  and  N_10
REMARK    6  A    between atoms: C_11  and  C_13
REMARK                            x       y       z     vdW  Elec       q    Type
REMARK                         _______ _______ _______ _____ _____    ______ ____
ROOT
ATOM      1  C   UNL     1       3.364  -3.288   1.623  0.00  0.00    +0.000 A 
ATOM      2  C   UNL     1       4.538  -2.889   2.263  0.00  0.00    +0.000 A 
ATOM      3  C   UNL     1       5.416  -3.860   2.758  0.00  0.00    +0.000 A 
ATOM      4  C   UNL     1       5.109  -5.215   2.612  0.00  0.00    +0.000 A 
ATOM      5  C   UNL     1       3.902  -5.515   1.987  0.00  0.00    +0.000 A 
ATOM      6  N   UNL     1       3.037  -4.597   1.484  0.00  0.00    +0.000 NA
ENDROOT
BRANCH   1   7
ATOM      7  C   UNL     1       2.393  -2.254   1.082  0.00  0.00    +0.000 C 
BRANCH   7  10
ATOM      8  O   UNL     1       4.074  -0.140   0.359  0.00  0.00    +0.000 OA
ATOM      9  C   UNL     1       3.533  -0.789  -0.533  0.00  0.00    +0.000 C 
ATOM     10  N   UNL     1       2.674  -1.831  -0.276  0.00  0.00    +0.000 N 
ATOM     11  H   UNL     1       2.233  -2.298  -1.064  0.00  0.00    +0.000 HD
BRANCH   9  12
ATOM     12  C   UNL     1       3.787  -0.461  -1.971  0.00  0.00    +0.000 A 
ATOM     13  C   UNL     1       4.673   0.573  -2.262  0.00  0.00    +0.000 A 
ATOM     14  C   UNL     1       4.900   0.900  -3.593  0.00  0.00    +0.000 A 
ATOM     15  C   UNL     1       4.230   0.193  -4.584  0.00  0.00    +0.000 A 
ATOM     16  C   UNL     1       3.367  -0.827  -4.204  0.00  0.00    +0.000 A 
ATOM     17  N   UNL     1       3.125  -1.181  -2.918  0.00  0.00    +0.000 NA
ENDBRANCH   9  12
ENDBRANCH   7  10
ENDBRANCH   1   7
BRANCH   4  18
ATOM     18  C   UNL     1       6.009  -6.318   3.099  0.00  0.00    +0.000 C 
BRANCH  18  19
ATOM     19  N   UNL     1       5.705  -6.716   4.451  0.00  0.00    +0.000 N 
ATOM     20  C   UNL     1       6.420  -7.694   5.101  0.00  0.00    +0.000 C 
ATOM     21  O   UNL     1       7.370  -8.272   4.584  0.00  0.00    +0.000 OA
ATOM     22  H   UNL     1       4.760  -6.532   4.773  0.00  0.00    +0.000 HD
BRANCH  20  23
ATOM     23  C   UNL     1       6.011  -7.960   6.490  0.00  0.00    +0.000 A 
ATOM     24  C   UNL     1       6.932  -8.434   7.415  0.00  0.00    +0.000 A 
ATOM     25  S   UNL     1       6.281  -8.641   8.979  0.00  0.00    +0.000 S 
ATOM     26  C   UNL     1       4.736  -8.152   8.466  0.00  0.00    +0.000 A 
ATOM     27  N   UNL     1       3.676  -8.129   9.323  0.00  0.00    +0.000 NA
ATOM     28  C   UNL     1       2.564  -7.761   8.789  0.00  0.00    +0.000 A 
ATOM     29  N   UNL     1       2.405  -7.397   7.474  0.00  0.00    +0.000 N 
ATOM     30  C   UNL     1       3.452  -7.356   6.587  0.00  0.00    +0.000 A 
ATOM     31  O   UNL     1       3.298  -6.954   5.440  0.00  0.00    +0.000 OA
ATOM     32  C   UNL     1       4.723  -7.799   7.127  0.00  0.00    +0.000 A 
ATOM     33  H   UNL     1       1.509  -7.095   7.120  0.00  0.00    +0.000 HD
ENDBRANCH  20  23
ENDBRANCH  18  19
ENDBRANCH   4  18
TORSDOF 6
