REMARK  Name = 
REMARK  6 active torsions:
REMARK  status: ('A' for Active; 'I' for Inactive)
REMARK    1  A    between atoms: N_1  and  C_2
REMARK    2  A    between atoms: C_2  and  C_3
REMARK    3  A    between atoms: C_15  and  C_16
REMARK    4  A    between atoms: C_16  and  O_17
REMARK    5  A    between atoms: C_16  and  C_18
REMARK    6  A    between atoms: C_18  and  O_19
REMARK                            x       y       z     vdW  Elec       q    Type
REMARK                         _______ _______ _______ _____ _____    ______ ____
ROOT
ATOM      1  C   UNL     1       2.932  -1.216   0.948  0.00  0.00    +0.000 A 
ATOM      2  C   UNL     1       2.402  -2.485   0.761  0.00  0.00    +0.000 A 
ATOM      3  N   UNL     1       2.734  -3.568   1.505  0.00  0.00    +0.000 NA
ATOM      4  C   UNL     1       3.643  -3.403   2.515  0.00  0.00    +0.000 A 
ATOM      5  C   UNL     1       4.235  -2.148   2.782  0.00  0.00    +0.000 A 
ATOM      6  C   UNL     1       3.865  -1.066   1.974  0.00  0.00    +0.000 A 
ATOM      7  N   UNL     1       5.198  -1.862   3.775  0.00  0.00    +0.000 NA
ATOM      8  C   UNL     1       5.051  -2.320   4.978  0.00  0.00    +0.000 C 
ATOM      9  C   UNL     1       3.926  -3.196   5.449  0.00  0.00    +0.000 C 
ATOM     10  C   UNL     1       3.992  -4.525   4.752  0.00  0.00    +0.000 A 
ATOM     11  C   UNL     1       4.170  -5.700   5.489  0.00  0.00    +0.000 A 
ATOM     12  C   UNL     1       4.228  -6.921   4.834  0.00  0.00    +0.000 A 
ATOM     13  C   UNL     1       4.104  -6.947   3.449  0.00  0.00    +0.000 A 
ATOM     14  N   UNL     1       3.924  -5.817   2.713  0.00  0.00    +0.000 NA
ATOM     15  C   UNL     1       3.876  -4.609   3.356  0.00  0.00    +0.000 A 
ENDROOT
BRANCH   1  16
ATOM     16  C   UNL     1       2.494  -0.050   0.113  0.00  0.00    +0.000 C 
BRANCH  16  17
ATOM     17  N   UNL     1       1.330   0.609   0.694  0.00  0.00    +0.000 NA
ATOM     18  H   UNL     1       1.093   1.426   0.133  0.00  0.00    +0.000 HD
ATOM     19  H   UNL     1       1.568   0.960   1.620  0.00  0.00    +0.000 HD
ENDBRANCH  16  17
ENDBRANCH   1  16
BRANCH  13  20
ATOM     20  C   UNL     1       4.126  -8.277   2.709  0.00  0.00    +0.000 C 
BRANCH  20  21
ATOM     21  O   UNL     1       2.913  -8.422   1.965  0.00  0.00    +0.000 OA
ATOM     22  H   UNL     1       2.667  -7.512   1.693  0.00  0.00    +0.000 HD
ENDBRANCH  20  21
BRANCH  20  23
ATOM     23  C   UNL     1       5.319  -8.380   1.749  0.00  0.00    +0.000 C 
BRANCH  23  24
ATOM     24  O   UNL     1       6.570  -8.375   2.439  0.00  0.00    +0.000 OA
ATOM     25  H   UNL     1       6.669  -7.485   2.823  0.00  0.00    +0.000 HD
ENDBRANCH  23  24
ENDBRANCH  20  23
ENDBRANCH  13  20
TORSDOF 6
