REMARK  Name = 
REMARK  5 active torsions:
REMARK  status: ('A' for Active; 'I' for Inactive)
REMARK    1  A    between atoms: N_1  and  C_2
REMARK    2  A    between atoms: C_2  and  C_3
REMARK    3  A    between atoms: C_3  and  C_4
REMARK    4  A    between atoms: C_7  and  C_8
REMARK    5  A    between atoms: C_8  and  N_9
REMARK                            x       y       z     vdW  Elec       q    Type
REMARK                         _______ _______ _______ _____ _____    ______ ____
ROOT
ATOM      1  C   UNL     1       4.490   1.391   0.329  0.00  0.00    +0.000 A 
ATOM      2  C   UNL     1       5.164   2.604   0.182  0.00  0.00    +0.000 A 
ATOM      3  C   UNL     1       6.560   2.627   0.186  0.00  0.00    +0.000 A 
ATOM      4  C   UNL     1       7.260   1.434   0.349  0.00  0.00    +0.000 A 
ATOM      5  N   UNL     1       6.623   0.239   0.454  0.00  0.00    +0.000 NA
ATOM      6  C   UNL     1       5.266   0.248   0.440  0.00  0.00    +0.000 A 
ENDROOT
BRANCH   1   7
ATOM      7  C   UNL     1       2.985   1.339   0.400  0.00  0.00    +0.000 C 
BRANCH   7   8
ATOM      8  C   UNL     1       2.305   1.219  -0.970  0.00  0.00    +0.000 C 
BRANCH   8   9
ATOM      9  N   UNL     1       0.850   1.206  -0.823  0.00  0.00    +0.000 NA
ATOM     10  H   UNL     1       0.416   1.143  -1.745  0.00  0.00    +0.000 HD
ATOM     11  H   UNL     1       0.534   2.089  -0.424  0.00  0.00    +0.000 HD
ENDBRANCH   8   9
ENDBRANCH   7   8
ENDBRANCH   1   7
BRANCH   4  12
ATOM     12  C   UNL     1       8.770   1.407   0.411  0.00  0.00    +0.000 C 
BRANCH  12  13
ATOM     13  N   UNL     1       9.268   2.175   1.536  0.00  0.00    +0.000 N 
ATOM     14  N   UNL     1       9.649   3.459   1.363  0.00  0.00    +0.000 NA
ATOM     15  N   UNL     1       9.942   3.953   2.558  0.00  0.00    +0.000 NA
ATOM     16  C   UNL     1       9.774   2.958   3.484  0.00  0.00    +0.000 A 
ATOM     17  C   UNL     1       9.918   2.971   4.878  0.00  0.00    +0.000 A 
ATOM     18  C   UNL     1       9.671   1.788   5.587  0.00  0.00    +0.000 A 
ATOM     19  C   UNL     1       9.313   0.614   4.918  0.00  0.00    +0.000 A 
ATOM     20  C   UNL     1       9.165   0.584   3.526  0.00  0.00    +0.000 A 
ATOM     21  C   UNL     1       9.385   1.786   2.846  0.00  0.00    +0.000 A 
ENDBRANCH  12  13
ENDBRANCH   4  12
TORSDOF 5
