REMARK  Name = 
REMARK  3 active torsions:
REMARK  status: ('A' for Active; 'I' for Inactive)
REMARK    1  A    between atoms: C_2  and  C_4
REMARK    2  A    between atoms: N_11  and  C_12
REMARK    3  A    between atoms: C_12  and  C_13
REMARK                            x       y       z     vdW  Elec       q    Type
REMARK                         _______ _______ _______ _____ _____    ______ ____
ROOT
ATOM      1  C   UNL     1       7.320  -0.854  -0.835  0.00  0.00    +0.000 A 
ATOM      2  C   UNL     1       7.524  -0.829  -2.213  0.00  0.00    +0.000 A 
ATOM      3  N   UNL     1       6.899  -1.619  -3.126  0.00  0.00    +0.000 NA
ATOM      4  C   UNL     1       6.007  -2.463  -2.568  0.00  0.00    +0.000 A 
ATOM      5  C   UNL     1       5.705  -2.584  -1.211  0.00  0.00    +0.000 A 
ATOM      6  C   UNL     1       4.724  -3.603  -1.089  0.00  0.00    +0.000 A 
ATOM      7  C   UNL     1       4.470  -4.088  -2.353  0.00  0.00    +0.000 A 
ATOM      8  N   UNL     1       5.238  -3.378  -3.247  0.00  0.00    +0.000 N 
ATOM      9  C   UNL     1       6.382  -1.747  -0.308  0.00  0.00    +0.000 A 
ENDROOT
BRANCH   1  11
ATOM     10  N   UNL     1       8.292  -0.270   1.319  0.00  0.00    +0.000 N 
ATOM     11  C   UNL     1       8.092   0.081   0.013  0.00  0.00    +0.000 C 
ATOM     12  O   UNL     1       8.554   1.118  -0.440  0.00  0.00    +0.000 OA
ATOM     13  H   UNL     1       8.893   0.339   1.861  0.00  0.00    +0.000 HD
ATOM     14  H   UNL     1       8.138  -1.205   1.668  0.00  0.00    +0.000 HD
ENDBRANCH   1  11
BRANCH   8  15
ATOM     15  C   UNL     1       5.320  -3.652  -4.669  0.00  0.00    +0.000 C 
BRANCH  15  16
ATOM     16  C   UNL     1       4.320  -2.876  -5.557  0.00  0.00    +0.000 C 
ATOM     17  C   UNL     1       2.862  -3.213  -5.193  0.00  0.00    +0.000 C 
ATOM     18  C   UNL     1       1.843  -2.739  -6.224  0.00  0.00    +0.000 C 
ATOM     19  C   UNL     1       2.195  -3.225  -7.621  0.00  0.00    +0.000 C 
ATOM     20  C   UNL     1       3.579  -2.735  -8.021  0.00  0.00    +0.000 C 
ATOM     21  C   UNL     1       4.643  -3.196  -7.031  0.00  0.00    +0.000 C 
ENDBRANCH  15  16
ENDBRANCH   8  15
TORSDOF 3
