REMARK  Name = 
REMARK  8 active torsions:
REMARK  status: ('A' for Active; 'I' for Inactive)
REMARK    1  A    between atoms: N_1  and  C_2
REMARK    2  A    between atoms: C_2  and  C_3
REMARK    3  A    between atoms: C_3  and  N_4
REMARK    4  A    between atoms: C_3  and  C_13
REMARK    5  A    between atoms: C_5  and  C_7
REMARK    6  A    between atoms: C_16  and  C_17
REMARK    7  A    between atoms: C_17  and  N_18
REMARK    8  A    between atoms: C_19  and  C_21
REMARK                            x       y       z     vdW  Elec       q    Type
REMARK                         _______ _______ _______ _____ _____    ______ ____
ROOT
ATOM      1  C   UNL     1       4.472   1.193  -0.905  0.00  0.00    +0.000 A 
ATOM      2  C   UNL     1       5.203   1.970  -0.005  0.00  0.00    +0.000 A 
ATOM      3  C   UNL     1       6.599   1.938  -0.047  0.00  0.00    +0.000 A 
ATOM      4  C   UNL     1       7.250   1.151  -0.998  0.00  0.00    +0.000 A 
ATOM      5  C   UNL     1       6.448   0.408  -1.854  0.00  0.00    +0.000 A 
ATOM      6  N   UNL     1       5.092   0.418  -1.833  0.00  0.00    +0.000 NA
ENDROOT
BRANCH   1   7
ATOM      7  C   UNL     1       2.945   1.093  -0.805  0.00  0.00    +0.000 C 
BRANCH   7   8
ATOM      8  N   UNL     1       2.296   2.392  -1.073  0.00  0.00    +0.000 N 
ATOM      9  C   UNL     1       0.928   2.499  -1.141  0.00  0.00    +0.000 C 
ATOM     10  O   UNL     1       0.176   1.561  -0.879  0.00  0.00    +0.000 OA
ATOM     11  H   UNL     1       2.837   3.107  -1.553  0.00  0.00    +0.000 HD
BRANCH   9  12
ATOM     12  C   UNL     1       0.333   3.814  -1.639  0.00  0.00    +0.000 C 
ATOM     13  C   UNL     1       0.171   3.797  -3.161  0.00  0.00    +0.000 C 
ATOM     14  C   UNL     1       1.432   4.262  -3.878  0.00  0.00    +0.000 C 
ATOM     15  C   UNL     1       1.906   5.599  -3.322  0.00  0.00    +0.000 C 
ATOM     16  N   UNL     1       2.201   5.485  -1.891  0.00  0.00    +0.000 NA
ATOM     17  C   UNL     1       1.011   5.088  -1.128  0.00  0.00    +0.000 C 
ATOM     18  H   UNL     1       2.506   6.402  -1.555  0.00  0.00    +0.000 HD
ENDBRANCH   9  12
ENDBRANCH   7   8
BRANCH   7  19
ATOM     19  C   UNL     1       2.540   0.488   0.584  0.00  0.00    +0.000 C 
BRANCH  19  20
ATOM     20  N   UNL     1       3.120  -0.825   0.913  0.00  0.00    +0.000 NA
ATOM     21  H   UNL     1       3.060  -0.973   1.918  0.00  0.00    +0.000 HD
ATOM     22  H   UNL     1       4.108  -0.846   0.661  0.00  0.00    +0.000 HD
ENDBRANCH  19  20
ENDBRANCH   7  19
ENDBRANCH   1   7
BRANCH   4  23
ATOM     23  C   UNL     1       8.748   1.075  -1.074  0.00  0.00    +0.000 C 
BRANCH  23  24
ATOM     24  N   UNL     1       9.271   0.022  -0.239  0.00  0.00    +0.000 N 
ATOM     25  C   UNL     1      10.623  -0.146  -0.067  0.00  0.00    +0.000 C 
ATOM     26  O   UNL     1      11.440   0.636  -0.547  0.00  0.00    +0.000 OA
ATOM     27  H   UNL     1       8.650  -0.753  -0.027  0.00  0.00    +0.000 HD
BRANCH  25  28
ATOM     28  C   UNL     1      11.047  -1.279   0.767  0.00  0.00    +0.000 A 
ATOM     29  C   UNL     1      12.297  -1.263   1.371  0.00  0.00    +0.000 A 
ATOM     30  S   UNL     1      12.610  -2.632   2.339  0.00  0.00    +0.000 S 
ATOM     31  C   UNL     1      11.109  -3.324   1.942  0.00  0.00    +0.000 A 
ATOM     32  N   UNL     1      10.748  -4.544   2.426  0.00  0.00    +0.000 NA
ATOM     33  C   UNL     1       9.597  -4.962   2.014  0.00  0.00    +0.000 A 
ATOM     34  N   UNL     1       8.773  -4.266   1.169  0.00  0.00    +0.000 N 
ATOM     35  C   UNL     1       9.079  -3.015   0.689  0.00  0.00    +0.000 A 
ATOM     36  O   UNL     1       8.295  -2.399  -0.023  0.00  0.00    +0.000 OA
ATOM     37  C   UNL     1      10.372  -2.510   1.102  0.00  0.00    +0.000 A 
ATOM     38  H   UNL     1       7.876  -4.647   0.895  0.00  0.00    +0.000 HD
ENDBRANCH  25  28
ENDBRANCH  23  24
ENDBRANCH   4  23
TORSDOF 8
