REMARK  Name = 
REMARK  10 active torsions:
REMARK  status: ('A' for Active; 'I' for Inactive)
REMARK    1  A    between atoms: C_1  and  C_2
REMARK    2  A    between atoms: C_2  and  C_3
REMARK    3  A    between atoms: C_3  and  N_4
REMARK    4  A    between atoms: C_3  and  C_27
REMARK    5  A    between atoms: N_4  and  C_5
REMARK    6  A    between atoms: C_5  and  C_6
REMARK    7  A    between atoms: C_9  and  C_10
REMARK    8  A    between atoms: C_10  and  N_11
REMARK    9  A    between atoms: C_12  and  C_14
REMARK   10  A    between atoms: N_20  and  C_21
REMARK                            x       y       z     vdW  Elec       q    Type
REMARK                         _______ _______ _______ _____ _____    ______ ____
ROOT
ATOM      1  C   UNL     1       0.635  -3.754   0.873  0.00  0.00    +0.000 C 
ATOM      2  C   UNL     1      -0.409  -3.937   1.975  0.00  0.00    +0.000 C 
ATOM      3  C   UNL     1      -1.069  -5.314   1.932  0.00  0.00    +0.000 C 
ATOM      4  C   UNL     1      -0.040  -6.464   1.913  0.00  0.00    +0.000 C 
ATOM      5  C   UNL     1       1.018  -6.261   0.822  0.00  0.00    +0.000 C 
ATOM      6  C   UNL     1       1.678  -4.886   0.946  0.00  0.00    +0.000 C 
ENDROOT
BRANCH   1   7
ATOM      7  C   UNL     1       0.032  -3.748  -0.543  0.00  0.00    +0.000 C 
BRANCH   7   8
ATOM      8  N   UNL     1      -0.956  -2.720  -0.819  0.00  0.00    +0.000 NA
ATOM      9  H   UNL     1      -1.738  -2.837  -0.172  0.00  0.00    +0.000 HD
BRANCH   8  10
ATOM     10  C   UNL     1      -1.495  -2.814  -2.205  0.00  0.00    +0.000 C 
BRANCH  10  11
ATOM     11  C   UNL     1      -2.629  -1.781  -2.404  0.00  0.00    +0.000 A 
ATOM     12  C   UNL     1      -2.547  -0.487  -1.876  0.00  0.00    +0.000 A 
ATOM     13  C   UNL     1      -3.598   0.407  -2.076  0.00  0.00    +0.000 A 
ATOM     14  C   UNL     1      -4.696   0.010  -2.825  0.00  0.00    +0.000 A 
ATOM     15  C   UNL     1      -4.704  -1.281  -3.325  0.00  0.00    +0.000 A 
ATOM     16  N   UNL     1      -3.711  -2.182  -3.123  0.00  0.00    +0.000 NA
ENDBRANCH  10  11
BRANCH  10  18
ATOM     17  C   UNL     1       0.684  -3.663  -3.517  0.00  0.00    +0.000 C 
ATOM     18  C   UNL     1      -0.474  -2.665  -3.385  0.00  0.00    +0.000 C 
ENDBRANCH  10  18
ENDBRANCH   8  10
ENDBRANCH   7   8
ENDBRANCH   1   7
BRANCH   4  19
ATOM     19  C   UNL     1      -0.723  -7.822   1.730  0.00  0.00    +0.000 C 
BRANCH  19  20
ATOM     20  N   UNL     1      -1.633  -8.078   2.814  0.00  0.00    +0.000 N 
ATOM     21  C   UNL     1      -1.276  -8.772   3.931  0.00  0.00    +0.000 C 
ATOM     22  O   UNL     1      -0.112  -9.146   4.145  0.00  0.00    +0.000 OA
ATOM     23  H   UNL     1      -2.564  -7.677   2.767  0.00  0.00    +0.000 HD
BRANCH  21  24
ATOM     24  C   UNL     1      -2.347  -8.985   4.888  0.00  0.00    +0.000 A 
ATOM     25  C   UNL     1      -2.142  -9.057   6.257  0.00  0.00    +0.000 A 
ATOM     26  S   UNL     1      -3.598  -9.251   7.134  0.00  0.00    +0.000 S 
ATOM     27  C   UNL     1      -4.526  -9.268   5.708  0.00  0.00    +0.000 A 
ATOM     28  N   UNL     1      -5.874  -9.396   5.743  0.00  0.00    +0.000 NA
ATOM     29  C   UNL     1      -6.441  -9.394   4.581  0.00  0.00    +0.000 A 
ATOM     30  N   UNL     1      -5.795  -9.283   3.368  0.00  0.00    +0.000 N 
ATOM     31  C   UNL     1      -6.541  -9.336   2.128  0.00  0.00    +0.000 C 
ATOM     32  C   UNL     1      -4.413  -9.220   3.290  0.00  0.00    +0.000 A 
ATOM     33  O   UNL     1      -3.814  -9.220   2.216  0.00  0.00    +0.000 OA
ATOM     34  C   UNL     1      -3.744  -9.148   4.581  0.00  0.00    +0.000 A 
ENDBRANCH  21  24
ENDBRANCH  19  20
ENDBRANCH   4  19
TORSDOF 8
