REMARK  Name = 
REMARK  6 active torsions:
REMARK  status: ('A' for Active; 'I' for Inactive)
REMARK    1  A    between atoms: C_2  and  C_4
REMARK    2  A    between atoms: C_7  and  N_8
REMARK    3  A    between atoms: N_8  and  CA_9
REMARK    4  A    between atoms: CA_9  and  C_10
REMARK    5  A    between atoms: CA_9  and  C_12
REMARK    6  A    between atoms: C_10  and  O_11
REMARK                            x       y       z     vdW  Elec       q    Type
REMARK                         _______ _______ _______ _____ _____    ______ ____
ROOT
ATOM      1  N   UNL     1       4.802   3.800  -3.555  0.00  0.00    +0.000 N 
ATOM      2  H   UNL     1       5.792   3.608  -3.691  0.00  0.00    +0.000 HD
ENDROOT
BRANCH   1   6
ATOM      3  C   UNL     1       2.953   0.937  -1.156  0.00  0.00    +0.000 A 
ATOM      4  C   UNL     1       2.271   2.121  -1.396  0.00  0.00    +0.000 A 
ATOM      5  C   UNL     1       2.869   3.082  -2.216  0.00  0.00    +0.000 A 
ATOM      6  C   UNL     1       4.144   2.878  -2.743  0.00  0.00    +0.000 A 
ATOM      7  C   UNL     1       4.708   1.620  -2.482  0.00  0.00    +0.000 A 
ATOM      8  N   UNL     1       4.168   0.653  -1.691  0.00  0.00    +0.000 NA
BRANCH   3  10
ATOM      9  N   UNL     1       3.088  -1.214  -0.023  0.00  0.00    +0.000 N 
ATOM     10  C   UNL     1       2.332  -0.098  -0.263  0.00  0.00    +0.000 C 
ATOM     11  O   UNL     1       1.225   0.044   0.236  0.00  0.00    +0.000 OA
ATOM     12  H   UNL     1       2.725  -1.933   0.585  0.00  0.00    +0.000 HD
ATOM     13  H   UNL     1       4.019  -1.292  -0.419  0.00  0.00    +0.000 HD
ENDBRANCH   3  10
ENDBRANCH   1   6
BRANCH   1  14
ATOM     14  CA  UNL     1       4.502   5.254  -3.523  0.00  0.00    +0.000 C 
BRANCH  14  15
ATOM     15  C   UNL     1       5.297   5.956  -4.679  0.00  0.00    +0.000 C 
ATOM     16  C   UNL     1       5.113   7.490  -4.664  0.00  0.00    +0.000 C 
ATOM     17  C   UNL     1       5.770   8.186  -5.858  0.00  0.00    +0.000 C 
ATOM     18  C   UNL     1       5.296   7.602  -7.180  0.00  0.00    +0.000 C 
ATOM     19  C   UNL     1       5.550   6.102  -7.224  0.00  0.00    +0.000 C 
ATOM     20  C   UNL     1       4.877   5.388  -6.053  0.00  0.00    +0.000 C 
ENDBRANCH  14  15
BRANCH  14  21
ATOM     21  C   UNL     1       4.836   5.841  -2.128  0.00  0.00    +0.000 C 
BRANCH  21  22
ATOM     22  O   UNL     1       6.221   5.702  -1.813  0.00  0.00    +0.000 OA
ATOM     23  H   UNL     1       6.341   4.777  -1.533  0.00  0.00    +0.000 HD
ENDBRANCH  21  22
ENDBRANCH  14  21
ENDBRANCH   1  14
TORSDOF 6
