REMARK  Name = 
REMARK  5 active torsions:
REMARK  status: ('A' for Active; 'I' for Inactive)
REMARK    1  A    between atoms: N_1  and  C_2
REMARK    2  A    between atoms: C_2  and  C_3
REMARK    3  A    between atoms: C_3  and  C_4
REMARK    4  A    between atoms: C_7  and  C_8
REMARK    5  A    between atoms: C_8  and  N_9
REMARK                            x       y       z     vdW  Elec       q    Type
REMARK                         _______ _______ _______ _____ _____    ______ ____
ROOT
ATOM      1  C   UNL     1       4.432   1.171  -0.957  0.00  0.00    +0.000 A 
ATOM      2  C   UNL     1       5.093   1.319  -2.184  0.00  0.00    +0.000 A 
ATOM      3  C   UNL     1       6.487   1.412  -2.236  0.00  0.00    +0.000 A 
ATOM      4  C   UNL     1       7.250   1.345  -1.062  0.00  0.00    +0.000 A 
ATOM      5  C   UNL     1       6.587   1.174   0.162  0.00  0.00    +0.000 A 
ATOM      6  C   UNL     1       5.194   1.082   0.213  0.00  0.00    +0.000 A 
ENDROOT
BRANCH   1   7
ATOM      7  C   UNL     1       2.925   1.132  -0.893  0.00  0.00    +0.000 C 
BRANCH   7   8
ATOM      8  C   UNL     1       2.355  -0.280  -1.051  0.00  0.00    +0.000 C 
BRANCH   8   9
ATOM      9  N   UNL     1       0.892  -0.257  -1.004  0.00  0.00    +0.000 NA
ATOM     10  H   UNL     1       0.537  -1.204  -1.141  0.00  0.00    +0.000 HD
ATOM     11  H   UNL     1       0.531   0.297  -1.783  0.00  0.00    +0.000 HD
ENDBRANCH   8   9
ENDBRANCH   7   8
ENDBRANCH   1   7
BRANCH   4  12
ATOM     12  C   UNL     1       8.751   1.499  -1.099  0.00  0.00    +0.000 C 
BRANCH  12  13
ATOM     13  N   UNL     1       9.151   2.891  -0.951  0.00  0.00    +0.000 N 
ATOM     14  C   UNL     1       9.419   3.756  -1.989  0.00  0.00    +0.000 A 
ATOM     15  C   UNL     1       9.739   4.983  -1.446  0.00  0.00    +0.000 A 
ATOM     16  C   UNL     1       9.687   4.853  -0.034  0.00  0.00    +0.000 A 
ATOM     17  C   UNL     1       9.887   5.688   1.062  0.00  0.00    +0.000 A 
ATOM     18  N   UNL     1       9.757   5.195   2.315  0.00  0.00    +0.000 NA
ATOM     19  C   UNL     1       9.436   3.891   2.443  0.00  0.00    +0.000 A 
ATOM     20  N   UNL     1       9.218   2.989   1.470  0.00  0.00    +0.000 NA
ATOM     21  C   UNL     1       9.348   3.536   0.246  0.00  0.00    +0.000 A 
ENDBRANCH  12  13
ENDBRANCH   4  12
TORSDOF 5
