REMARK  Name = 
REMARK  6 active torsions:
REMARK  status: ('A' for Active; 'I' for Inactive)
REMARK    1  A    between atoms: C_1  and  C_2
REMARK    2  A    between atoms: C_2  and  C_3
REMARK    3  A    between atoms: C_7  and  C_8
REMARK    4  A    between atoms: C_8  and  N_9
REMARK    5  A    between atoms: N_9  and  C_10
REMARK    6  A    between atoms: C_13  and  C_14
REMARK                            x       y       z     vdW  Elec       q    Type
REMARK                         _______ _______ _______ _____ _____    ______ ____
ROOT
ATOM      1  C   UNL     1       4.286  -1.331   4.556  0.00  0.00    +0.000 C 
ATOM      2  C   UNL     1       5.674  -1.123   5.124  0.00  0.00    +0.000 C 
ATOM      3  C   UNL     1       5.493  -2.095   4.008  0.00  0.00    +0.000 C 
ENDROOT
BRANCH   1   8
ATOM      4  C   UNL     1       2.784   0.493   1.482  0.00  0.00    +0.000 A 
ATOM      5  C   UNL     1       2.608   1.777   2.011  0.00  0.00    +0.000 A 
ATOM      6  C   UNL     1       2.944   2.060   3.337  0.00  0.00    +0.000 A 
ATOM      7  C   UNL     1       3.476   1.065   4.158  0.00  0.00    +0.000 A 
ATOM      8  C   UNL     1       3.691  -0.232   3.678  0.00  0.00    +0.000 A 
ATOM      9  C   UNL     1       3.327  -0.488   2.341  0.00  0.00    +0.000 A 
BRANCH   4  11
ATOM     10  C   UNL     1       3.744  -0.276  -0.690  0.00  0.00    +0.000 C 
ATOM     11  C   UNL     1       2.428   0.124   0.025  0.00  0.00    +0.000 C 
ATOM     12  C   UNL     1       1.426  -1.060   0.030  0.00  0.00    +0.000 C 
ATOM     13  C   UNL     1       0.882  -1.381  -1.357  0.00  0.00    +0.000 C 
ATOM     14  O   UNL     1       0.285  -0.234  -1.954  0.00  0.00    +0.000 OA
ATOM     15  C   UNL     1       1.209   0.837  -2.117  0.00  0.00    +0.000 C 
ATOM     16  C   UNL     1       1.761   1.283  -0.766  0.00  0.00    +0.000 C 
ENDBRANCH   4  11
ENDBRANCH   1   8
BRANCH   1  17
ATOM     17  N   UNL     1       3.287  -2.215   5.174  0.00  0.00    +0.000 N 
ATOM     18  H   UNL     1       2.743  -2.765   4.516  0.00  0.00    +0.000 HD
BRANCH  17  19
ATOM     19  C   UNL     1       2.603  -2.002   6.385  0.00  0.00    +0.000 A 
ATOM     20  C   UNL     1       2.943  -1.027   7.325  0.00  0.00    +0.000 A 
ATOM     21  C   UNL     1       2.292  -0.976   8.569  0.00  0.00    +0.000 A 
ATOM     22  C   UNL     1       1.296  -1.906   8.898  0.00  0.00    +0.000 A 
ATOM     23  C   UNL     1       0.951  -2.884   7.963  0.00  0.00    +0.000 A 
ATOM     24  C   UNL     1       1.606  -2.930   6.731  0.00  0.00    +0.000 A 
BRANCH  22  25
ATOM     25  C   UNL     1       0.682  -1.868  10.251  0.00  0.00    +0.000 C 
ATOM     26  N   UNL     1      -0.552  -2.440  10.400  0.00  0.00    +0.000 N 
ATOM     27  O   UNL     1       1.248  -1.341  11.199  0.00  0.00    +0.000 OA
ATOM     28  H   UNL     1      -1.144  -2.686   9.621  0.00  0.00    +0.000 HD
ATOM     29  H   UNL     1      -0.982  -2.356  11.313  0.00  0.00    +0.000 HD
ENDBRANCH  22  25
ENDBRANCH  17  19
ENDBRANCH   1  17
TORSDOF 5
