REMARK  Name = 
REMARK  9 active torsions:
REMARK  status: ('A' for Active; 'I' for Inactive)
REMARK    1  A    between atoms: C_1  and  O_2
REMARK    2  A    between atoms: O_2  and  C_3
REMARK    3  A    between atoms: C_10  and  C_11
REMARK    4  A    between atoms: N_13  and  C_14
REMARK    5  A    between atoms: C_14  and  C_15
REMARK    6  A    between atoms: C_18  and  C_19
REMARK    7  A    between atoms: C_19  and  C_20
REMARK    8  A    between atoms: C_20  and  N_21
REMARK    9  A    between atoms: N_21  and  C_22
REMARK                            x       y       z     vdW  Elec       q    Type
REMARK                         _______ _______ _______ _____ _____    ______ ____
ROOT
ATOM      1  C   UNL     1       5.251  -4.431  -0.153  0.00  0.00    +0.000 C 
ENDROOT
BRANCH   1   2
ATOM      2  C   UNL     1       6.125  -5.580  -0.582  0.00  0.00    +0.000 A 
ATOM      3  C   UNL     1       7.293  -5.336  -1.304  0.00  0.00    +0.000 A 
ATOM      4  C   UNL     1       8.043  -6.394  -1.817  0.00  0.00    +0.000 A 
ATOM      5  C   UNL     1       7.640  -7.729  -1.639  0.00  0.00    +0.000 A 
ATOM      6  C   UNL     1       6.489  -7.970  -0.879  0.00  0.00    +0.000 A 
ATOM      7  C   UNL     1       5.740  -6.907  -0.356  0.00  0.00    +0.000 A 
BRANCH   5   8
ATOM      8  C   UNL     1       8.380  -8.907  -2.259  0.00  0.00    +0.000 C 
BRANCH   8   9
ATOM      9  C   UNL     1       9.592  -8.489  -3.097  0.00  0.00    +0.000 C 
BRANCH   9  10
ATOM     10  N   UNL     1      10.288  -9.607  -3.738  0.00  0.00    +0.000 N 
ATOM     11  H   UNL     1       9.653 -10.212  -4.256  0.00  0.00    +0.000 HD
BRANCH  10  12
ATOM     12  C   UNL     1      11.374  -9.210  -4.556  0.00  0.00    +0.000 A 
ATOM     13  C   UNL     1      12.191  -8.109  -4.267  0.00  0.00    +0.000 A 
ATOM     14  C   UNL     1      13.260  -7.773  -5.095  0.00  0.00    +0.000 A 
ATOM     15  C   UNL     1      13.520  -8.581  -6.183  0.00  0.00    +0.000 A 
ATOM     16  N   UNL     1      12.810  -9.686  -6.479  0.00  0.00    +0.000 NA
ATOM     17  C   UNL     1      11.775  -9.982  -5.650  0.00  0.00    +0.000 A 
ENDBRANCH  10  12
ENDBRANCH   9  10
ENDBRANCH   8   9
ENDBRANCH   5   8
ENDBRANCH   1   2
BRANCH   1  20
ATOM     18  C   UNL     1       3.437  -3.057  -1.076  0.00  0.00    +0.000 C 
ATOM     19  O   UNL     1       3.445  -2.313  -0.098  0.00  0.00    +0.000 OA
ATOM     20  N   UNL     1       4.345  -4.071  -1.217  0.00  0.00    +0.000 N 
ATOM     21  H   UNL     1       4.224  -4.734  -1.973  0.00  0.00    +0.000 HD
BRANCH  18  29
ATOM     22  C   UNL     1       2.116  -5.214  -3.330  0.00  0.00    +0.000 A 
ATOM     23  N   UNL     1       1.485  -5.883  -4.325  0.00  0.00    +0.000 NA
ATOM     24  C   UNL     1       0.672  -5.221  -5.159  0.00  0.00    +0.000 A 
ATOM     25  C   UNL     1       0.420  -3.872  -5.075  0.00  0.00    +0.000 A 
ATOM     26  C   UNL     1       1.073  -3.182  -4.046  0.00  0.00    +0.000 A 
ATOM     27  S   UNL     1       0.913  -1.504  -3.716  0.00  0.00    +0.000 S 
ATOM     28  C   UNL     1       1.965  -1.597  -2.392  0.00  0.00    +0.000 A 
ATOM     29  C   UNL     1       2.491  -2.862  -2.184  0.00  0.00    +0.000 A 
ATOM     30  C   UNL     1       1.947  -3.820  -3.152  0.00  0.00    +0.000 A 
BRANCH  22  32
ATOM     31  C   UNL     1       2.964  -7.327  -2.776  0.00  0.00    +0.000 C 
ATOM     32  O   UNL     1       2.949  -5.931  -2.492  0.00  0.00    +0.000 OA
ENDBRANCH  22  32
ENDBRANCH  18  29
ENDBRANCH   1  20
TORSDOF 8
