REMARK  Name = 
REMARK  6 active torsions:
REMARK  status: ('A' for Active; 'I' for Inactive)
REMARK    1  A    between atoms: O_1  and  C_2
REMARK    2  A    between atoms: N_5  and  C_6
REMARK    3  A    between atoms: C_10  and  C_11
REMARK    4  A    between atoms: C_11  and  N_12
REMARK    5  A    between atoms: N_12  and  C_13
REMARK    6  A    between atoms: C_17  and  C_18
REMARK                            x       y       z     vdW  Elec       q    Type
REMARK                         _______ _______ _______ _____ _____    ______ ____
ROOT
ATOM      1  C   UNL     1       3.044  -0.003  -0.275  0.00  0.00    +0.000 A 
ATOM      2  C   UNL     1       3.966   0.710   0.500  0.00  0.00    +0.000 A 
ATOM      3  C   UNL     1       5.327   0.724   0.187  0.00  0.00    +0.000 A 
ATOM      4  C   UNL     1       5.804   0.010  -0.913  0.00  0.00    +0.000 A 
ATOM      5  C   UNL     1       4.919  -0.743  -1.692  0.00  0.00    +0.000 A 
ATOM      6  C   UNL     1       3.551  -0.718  -1.373  0.00  0.00    +0.000 A 
ENDROOT
BRANCH   1  10
ATOM      7  C   UNL     1      -1.090   0.279  -0.490  0.00  0.00    +0.000 C 
ATOM      8  C   UNL     1      -0.187   1.493  -0.253  0.00  0.00    +0.000 C 
ATOM      9  C   UNL     1       1.022   1.140   0.615  0.00  0.00    +0.000 C 
ATOM     10  N   UNL     1       1.697  -0.001   0.008  0.00  0.00    +0.000 N 
ATOM     11  C   UNL     1       0.897  -1.223  -0.084  0.00  0.00    +0.000 C 
ATOM     12  C   UNL     1      -0.312  -0.946  -0.972  0.00  0.00    +0.000 C 
BRANCH   7  13
ATOM     13  O   UNL     1      -1.778  -0.053   0.717  0.00  0.00    +0.000 OA
ATOM     14  H   UNL     1      -2.341   0.706   0.948  0.00  0.00    +0.000 HD
ENDBRANCH   7  13
ENDBRANCH   1  10
BRANCH   5  15
ATOM     15  C   UNL     1       5.408  -1.604  -2.833  0.00  0.00    +0.000 C 
BRANCH  15  16
ATOM     16  N   UNL     1       5.412  -0.857  -4.088  0.00  0.00    +0.000 N 
ATOM     17  H   UNL     1       5.901   0.030  -3.978  0.00  0.00    +0.000 HD
BRANCH  16  18
ATOM     18  C   UNL     1       5.818  -1.535  -5.247  0.00  0.00    +0.000 A 
ATOM     19  C   UNL     1       6.418  -0.841  -6.301  0.00  0.00    +0.000 A 
ATOM     20  N   UNL     1       6.809  -1.385  -7.479  0.00  0.00    +0.000 NA
ATOM     21  C   UNL     1       6.550  -2.698  -7.653  0.00  0.00    +0.000 A 
ATOM     22  C   UNL     1       5.908  -3.483  -6.711  0.00  0.00    +0.000 A 
ATOM     23  C   UNL     1       5.532  -2.882  -5.500  0.00  0.00    +0.000 A 
BRANCH  22  24
ATOM     24  C   UNL     1       5.627  -4.925  -7.004  0.00  0.00    +0.000 C 
ATOM     25  F   UNL     1       6.049  -5.322  -8.237  0.00  0.00    +0.000 F 
ATOM     26  F   UNL     1       6.232  -5.765  -6.119  0.00  0.00    +0.000 F 
ATOM     27  F   UNL     1       4.300  -5.224  -6.953  0.00  0.00    +0.000 F 
ENDBRANCH  22  24
ENDBRANCH  16  18
ENDBRANCH  15  16
ENDBRANCH   5  15
TORSDOF 6
