REMARK  Name = 
REMARK  4 active torsions:
REMARK  status: ('A' for Active; 'I' for Inactive)
REMARK    1  A    between atoms: C_2  and  C_5
REMARK    2  A    between atoms: C_9  and  C_10
REMARK    3  A    between atoms: N_15  and  C_16
REMARK    4  A    between atoms: C_16  and  C_17
REMARK                            x       y       z     vdW  Elec       q    Type
REMARK                         _______ _______ _______ _____ _____    ______ ____
ROOT
ATOM      1  C   UNL     1       4.195  -1.141  -4.422  0.00  0.00    +0.000 A 
ATOM      2  C   UNL     1       5.452  -1.043  -5.019  0.00  0.00    +0.000 A 
ATOM      3  C   UNL     1       5.882  -2.063  -5.847  0.00  0.00    +0.000 A 
ATOM      4  N   UNL     1       5.151  -3.159  -6.141  0.00  0.00    +0.000 NA
ATOM      5  C   UNL     1       3.946  -3.275  -5.558  0.00  0.00    +0.000 A 
ATOM      6  N   UNL     1       3.109  -4.340  -5.872  0.00  0.00    +0.000 N 
ATOM      7  C   UNL     1       3.455  -2.303  -4.691  0.00  0.00    +0.000 A 
ATOM      8  H   UNL     1       2.805  -4.847  -5.049  0.00  0.00    +0.000 HD
ENDROOT
BRANCH   1  13
ATOM      9  C   UNL     1       2.268   0.421  -1.716  0.00  0.00    +0.000 A 
ATOM     10  C   UNL     1       2.576   1.777  -1.816  0.00  0.00    +0.000 A 
ATOM     11  C   UNL     1       3.427   2.202  -2.828  0.00  0.00    +0.000 A 
ATOM     12  C   UNL     1       3.961   1.267  -3.710  0.00  0.00    +0.000 A 
ATOM     13  C   UNL     1       3.645  -0.082  -3.553  0.00  0.00    +0.000 A 
ATOM     14  N   UNL     1       2.798  -0.498  -2.576  0.00  0.00    +0.000 NA
BRANCH   9  16
ATOM     15  F   UNL     1       0.868   0.949   0.180  0.00  0.00    +0.000 F 
ATOM     16  C   UNL     1       1.325  -0.061  -0.622  0.00  0.00    +0.000 C 
ATOM     17  F   UNL     1       1.903  -0.959   0.227  0.00  0.00    +0.000 F 
ATOM     18  F   UNL     1       0.205  -0.669  -1.108  0.00  0.00    +0.000 F 
ENDBRANCH   9  16
ENDBRANCH   1  13
BRANCH   6  19
ATOM     19  C   UNL     1       3.433  -5.171  -7.012  0.00  0.00    +0.000 C 
BRANCH  19  20
ATOM     20  C   UNL     1       2.156  -5.355  -7.786  0.00  0.00    +0.000 A 
ATOM     21  C   UNL     1       1.288  -6.423  -7.553  0.00  0.00    +0.000 A 
ATOM     22  C   UNL     1       0.076  -6.483  -8.237  0.00  0.00    +0.000 A 
ATOM     23  C   UNL     1      -0.226  -5.470  -9.133  0.00  0.00    +0.000 A 
ATOM     24  N   UNL     1       0.586  -4.423  -9.386  0.00  0.00    +0.000 NA
ATOM     25  C   UNL     1       1.750  -4.383  -8.698  0.00  0.00    +0.000 A 
ENDBRANCH  19  20
ENDBRANCH   6  19
TORSDOF 4
