REMARK  Name = 
REMARK  5 active torsions:
REMARK  status: ('A' for Active; 'I' for Inactive)
REMARK    1  A    between atoms: N_1  and  C_2
REMARK    2  A    between atoms: C_2  and  C_3
REMARK    3  A    between atoms: C_6  and  C_7
REMARK    4  A    between atoms: C_7  and  N_8
REMARK    5  A    between atoms: C_13  and  C_14
REMARK                            x       y       z     vdW  Elec       q    Type
REMARK                         _______ _______ _______ _____ _____    ______ ____
ROOT
ATOM      1  N   UNL     1      -0.225   4.115   3.134  0.00  0.00    +0.000 N 
ATOM      2  C   UNL     1       0.015   5.057   4.105  0.00  0.00    +0.000 A 
ATOM      3  C   UNL     1      -0.806   4.785   5.174  0.00  0.00    +0.000 A 
ATOM      4  C   UNL     1      -1.653   3.709   4.801  0.00  0.00    +0.000 A 
ATOM      5  C   UNL     1      -2.704   3.039   5.460  0.00  0.00    +0.000 A 
ATOM      6  C   UNL     1      -3.402   2.027   4.787  0.00  0.00    +0.000 A 
ATOM      7  C   UNL     1      -3.021   1.647   3.497  0.00  0.00    +0.000 A 
ATOM      8  C   UNL     1      -1.960   2.279   2.839  0.00  0.00    +0.000 A 
ATOM      9  C   UNL     1      -1.292   3.318   3.508  0.00  0.00    +0.000 A 
ENDROOT
BRANCH   6  10
ATOM     10  C   UNL     1      -4.555   1.333   5.418  0.00  0.00    +0.000 C 
ATOM     11  N   UNL     1      -5.258   2.020   6.369  0.00  0.00    +0.000 N 
ATOM     12  O   UNL     1      -4.902   0.210   5.072  0.00  0.00    +0.000 OA
ATOM     13  H   UNL     1      -5.163   3.017   6.498  0.00  0.00    +0.000 HD
ATOM     14  H   UNL     1      -6.109   1.583   6.700  0.00  0.00    +0.000 HD
ENDBRANCH   6  10
BRANCH   1  15
ATOM     15  C   UNL     1       0.567   3.987   1.914  0.00  0.00    +0.000 C 
BRANCH  15  19
ATOM     16  C   UNL     1       2.997   1.162   0.833  0.00  0.00    +0.000 C 
ATOM     17  C   UNL     1       2.142   1.147   2.112  0.00  0.00    +0.000 C 
ATOM     18  C   UNL     1       2.310   2.406   2.961  0.00  0.00    +0.000 C 
ATOM     19  C   UNL     1       2.066   3.709   2.180  0.00  0.00    +0.000 C 
ATOM     20  C   UNL     1       2.883   3.721   0.877  0.00  0.00    +0.000 C 
ATOM     21  C   UNL     1       2.722   2.451   0.041  0.00  0.00    +0.000 C 
BRANCH  16  22
ATOM     22  C   UNL     1       4.508   0.980   1.098  0.00  0.00    +0.000 C 
BRANCH  22  23
ATOM     23  N   UNL     1       4.807  -0.306   1.720  0.00  0.00    +0.000 NA
ATOM     24  H   UNL     1       5.813  -0.387   1.866  0.00  0.00    +0.000 HD
ATOM     25  H   UNL     1       4.552  -1.063   1.086  0.00  0.00    +0.000 HD
ENDBRANCH  22  23
ENDBRANCH  16  22
ENDBRANCH  15  19
ENDBRANCH   1  15
TORSDOF 5
