REMARK  Name = 
REMARK  6 active torsions:
REMARK  status: ('A' for Active; 'I' for Inactive)
REMARK    1  A    between atoms: C_2  and  C_20
REMARK    2  A    between atoms: N_3  and  C_4
REMARK    3  A    between atoms: C_4  and  C_5
REMARK    4  A    between atoms: C_8  and  C_9
REMARK    5  A    between atoms: C_9  and  N_10
REMARK    6  A    between atoms: C_11  and  C_13
REMARK                            x       y       z     vdW  Elec       q    Type
REMARK                         _______ _______ _______ _____ _____    ______ ____
ROOT
ATOM      1  C   UNL     1       3.134   2.918   2.335  0.00  0.00    +0.000 A 
ATOM      2  C   UNL     1       2.965   4.301   2.174  0.00  0.00    +0.000 A 
ATOM      3  C   UNL     1       3.760   5.208   2.885  0.00  0.00    +0.000 A 
ATOM      4  C   UNL     1       4.760   4.756   3.756  0.00  0.00    +0.000 A 
ATOM      5  C   UNL     1       4.939   3.373   3.906  0.00  0.00    +0.000 A 
ATOM      6  C   UNL     1       4.142   2.465   3.195  0.00  0.00    +0.000 A 
ENDROOT
BRANCH   1   7
ATOM      7  C   UNL     1       2.233   1.947   1.612  0.00  0.00    +0.000 C 
BRANCH   7  10
ATOM      8  O   UNL     1       1.051   0.077  -0.027  0.00  0.00    +0.000 OA
ATOM      9  C   UNL     1       2.027   0.682  -0.464  0.00  0.00    +0.000 C 
ATOM     10  N   UNL     1       2.724   1.586   0.305  0.00  0.00    +0.000 N 
ATOM     11  H   UNL     1       3.379   2.220  -0.143  0.00  0.00    +0.000 HD
BRANCH   9  12
ATOM     12  C   UNL     1       2.520   0.438  -1.825  0.00  0.00    +0.000 A 
ATOM     13  C   UNL     1       2.248  -0.772  -2.452  0.00  0.00    +0.000 A 
ATOM     14  S   UNL     1       2.889  -0.886  -4.028  0.00  0.00    +0.000 S 
ATOM     15  C   UNL     1       3.509   0.697  -3.948  0.00  0.00    +0.000 A 
ATOM     16  N   UNL     1       4.153   1.250  -5.010  0.00  0.00    +0.000 NA
ATOM     17  C   UNL     1       4.534   2.470  -4.825  0.00  0.00    +0.000 A 
ATOM     18  N   UNL     1       4.343   3.182  -3.669  0.00  0.00    +0.000 N 
ATOM     19  C   UNL     1       3.740   2.648  -2.555  0.00  0.00    +0.000 A 
ATOM     20  O   UNL     1       3.648   3.285  -1.510  0.00  0.00    +0.000 OA
ATOM     21  C   UNL     1       3.260   1.290  -2.723  0.00  0.00    +0.000 A 
ATOM     22  H   UNL     1       4.685   4.127  -3.582  0.00  0.00    +0.000 HD
ENDBRANCH   9  12
ENDBRANCH   7  10
ENDBRANCH   1   7
BRANCH   4  23
ATOM     23  C   UNL     1       5.610   5.733   4.533  0.00  0.00    +0.000 C 
BRANCH  23  24
ATOM     24  N   UNL     1       5.029   6.041   5.822  0.00  0.00    +0.000 N 
ATOM     25  C   UNL     1       5.665   6.889   6.710  0.00  0.00    +0.000 C 
ATOM     26  O   UNL     1       6.704   7.477   6.436  0.00  0.00    +0.000 OA
ATOM     27  H   UNL     1       4.178   5.566   6.086  0.00  0.00    +0.000 HD
BRANCH  25  28
ATOM     28  C   UNL     1       4.931   7.043   8.041  0.00  0.00    +0.000 C 
ATOM     29  C   UNL     1       5.597   7.998   9.030  0.00  0.00    +0.000 C 
ATOM     30  C   UNL     1       6.290   7.082  10.021  0.00  0.00    +0.000 C 
ATOM     31  N   UNL     1       5.380   5.939  10.142  0.00  0.00    +0.000 NA
ATOM     32  C   UNL     1       4.874   5.707   8.782  0.00  0.00    +0.000 C 
ATOM     33  H   UNL     1       4.602   6.203  10.748  0.00  0.00    +0.000 HD
ENDBRANCH  25  28
ENDBRANCH  23  24
ENDBRANCH   4  23
TORSDOF 6
