REMARK  Name = 
REMARK  6 active torsions:
REMARK  status: ('A' for Active; 'I' for Inactive)
REMARK    1  A    between atoms: C_2  and  C_25
REMARK    2  A    between atoms: N_3  and  C_4
REMARK    3  A    between atoms: C_4  and  C_5
REMARK    4  A    between atoms: C_8  and  C_9
REMARK    5  A    between atoms: C_9  and  N_10
REMARK    6  A    between atoms: C_11  and  C_13
REMARK                            x       y       z     vdW  Elec       q    Type
REMARK                         _______ _______ _______ _____ _____    ______ ____
ROOT
ATOM      1  C   UNL     1       3.320   3.774  -0.427  0.00  0.00    +0.000 C 
ATOM      2  C   UNL     1       4.358   3.424   0.644  0.00  0.00    +0.000 C 
ATOM      3  C   UNL     1       5.427   4.503   0.790  0.00  0.00    +0.000 C 
ATOM      4  C   UNL     1       4.832   5.885   1.100  0.00  0.00    +0.000 C 
ATOM      5  C   UNL     1       3.678   6.249   0.149  0.00  0.00    +0.000 C 
ATOM      6  C   UNL     1       2.670   5.119  -0.063  0.00  0.00    +0.000 C 
ENDROOT
BRANCH   1   7
ATOM      7  C   UNL     1       3.899   3.777  -1.857  0.00  0.00    +0.000 C 
BRANCH   7  10
ATOM      8  O   UNL     1       6.580   2.691  -1.767  0.00  0.00    +0.000 OA
ATOM      9  C   UNL     1       5.645   2.019  -2.186  0.00  0.00    +0.000 C 
ATOM     10  N   UNL     1       4.340   2.460  -2.274  0.00  0.00    +0.000 N 
ATOM     11  H   UNL     1       3.666   1.781  -2.618  0.00  0.00    +0.000 HD
BRANCH   9  12
ATOM     12  C   UNL     1       5.855   0.608  -2.647  0.00  0.00    +0.000 A 
ATOM     13  C   UNL     1       7.103   0.013  -2.501  0.00  0.00    +0.000 A 
ATOM     14  C   UNL     1       7.270  -1.285  -2.975  0.00  0.00    +0.000 A 
ATOM     15  C   UNL     1       6.195  -1.934  -3.575  0.00  0.00    +0.000 A 
ATOM     16  C   UNL     1       4.983  -1.265  -3.665  0.00  0.00    +0.000 A 
ATOM     17  N   UNL     1       4.778  -0.010  -3.209  0.00  0.00    +0.000 NA
ENDBRANCH   9  12
ENDBRANCH   7  10
ENDBRANCH   1   7
BRANCH   4  18
ATOM     18  C   UNL     1       5.904   6.990   1.038  0.00  0.00    +0.000 C 
BRANCH  18  19
ATOM     19  N   UNL     1       6.994   6.748   1.958  0.00  0.00    +0.000 N 
ATOM     20  C   UNL     1       7.710   7.769   2.531  0.00  0.00    +0.000 C 
ATOM     21  O   UNL     1       7.430   8.952   2.360  0.00  0.00    +0.000 OA
ATOM     22  H   UNL     1       7.460   5.849   1.871  0.00  0.00    +0.000 HD
BRANCH  20  23
ATOM     23  C   UNL     1       8.787   7.364   3.442  0.00  0.00    +0.000 A 
ATOM     24  C   UNL     1       9.178   8.216   4.463  0.00  0.00    +0.000 A 
ATOM     25  S   UNL     1      10.395   7.571   5.466  0.00  0.00    +0.000 S 
ATOM     26  C   UNL     1      10.480   6.145   4.538  0.00  0.00    +0.000 A 
ATOM     27  N   UNL     1      11.358   5.157   4.851  0.00  0.00    +0.000 NA
ATOM     28  C   UNL     1      11.335   4.147   4.049  0.00  0.00    +0.000 A 
ATOM     29  N   UNL     1      10.510   4.034   2.959  0.00  0.00    +0.000 N 
ATOM     30  C   UNL     1       9.590   4.998   2.618  0.00  0.00    +0.000 A 
ATOM     31  O   UNL     1       8.833   4.850   1.663  0.00  0.00    +0.000 OA
ATOM     32  C   UNL     1       9.581   6.158   3.487  0.00  0.00    +0.000 A 
ATOM     33  H   UNL     1      10.535   3.215   2.372  0.00  0.00    +0.000 HD
ENDBRANCH  20  23
ENDBRANCH  18  19
ENDBRANCH   4  18
TORSDOF 6
