REMARK  Name = 
REMARK  6 active torsions:
REMARK  status: ('A' for Active; 'I' for Inactive)
REMARK    1  A    between atoms: C_1  and  O_2
REMARK    2  A    between atoms: O_2  and  C_3
REMARK    3  A    between atoms: C_6  and  C_7
REMARK    4  A    between atoms: C_11  and  C_12
REMARK    5  A    between atoms: C_12  and  N_13
REMARK    6  A    between atoms: C_17  and  C_18
REMARK                            x       y       z     vdW  Elec       q    Type
REMARK                         _______ _______ _______ _____ _____    ______ ____
ROOT
ATOM      1  C   UNL     1       7.326  -6.285  -4.012  0.00  0.00    +0.000 C 
ATOM      2  C   UNL     1       6.455  -6.411  -5.249  0.00  0.00    +0.000 C 
ATOM      3  C   UNL     1       7.003  -7.649  -4.619  0.00  0.00    +0.000 C 
ENDROOT
BRANCH   1   4
ATOM      4  N   UNL     1       8.725  -5.845  -4.126  0.00  0.00    +0.000 N 
ATOM      5  C   UNL     1       9.165  -4.609  -4.604  0.00  0.00    +0.000 A 
ATOM      6  C   UNL     1       8.388  -3.458  -4.594  0.00  0.00    +0.000 A 
ATOM      7  C   UNL     1       8.911  -2.248  -5.050  0.00  0.00    +0.000 A 
ATOM      8  C   UNL     1      10.219  -2.211  -5.517  0.00  0.00    +0.000 A 
ATOM      9  C   UNL     1      10.932  -3.399  -5.512  0.00  0.00    +0.000 A 
ATOM     10  N   UNL     1      10.436  -4.582  -5.058  0.00  0.00    +0.000 NA
ATOM     11  H   UNL     1       9.448  -6.529  -4.332  0.00  0.00    +0.000 HD
BRANCH   8  12
ATOM     12  C   UNL     1      10.850  -0.981  -6.040  0.00  0.00    +0.000 C 
ATOM     13  N   UNL     1      10.352   0.216  -5.610  0.00  0.00    +0.000 N 
ATOM     14  O   UNL     1      11.796  -1.032  -6.817  0.00  0.00    +0.000 OA
ATOM     15  H   UNL     1       9.740   0.305  -4.810  0.00  0.00    +0.000 HD
ATOM     16  H   UNL     1      10.838   1.048  -5.918  0.00  0.00    +0.000 HD
ENDBRANCH   8  12
ENDBRANCH   1   4
BRANCH   1  21
ATOM     17  C   UNL     1       5.250  -4.533  -1.245  0.00  0.00    +0.000 A 
ATOM     18  C   UNL     1       5.451  -5.483  -0.245  0.00  0.00    +0.000 A 
ATOM     19  N   UNL     1       6.207  -6.600  -0.367  0.00  0.00    +0.000 NA
ATOM     20  C   UNL     1       6.804  -6.796  -1.565  0.00  0.00    +0.000 A 
ATOM     21  C   UNL     1       6.658  -5.971  -2.677  0.00  0.00    +0.000 A 
ATOM     22  C   UNL     1       5.846  -4.840  -2.479  0.00  0.00    +0.000 A 
BRANCH  17  26
ATOM     23  C   UNL     1       3.157  -0.799  -0.576  0.00  0.00    +0.000 A 
ATOM     24  C   UNL     1       3.774  -1.465   0.477  0.00  0.00    +0.000 A 
ATOM     25  C   UNL     1       4.442  -2.677   0.254  0.00  0.00    +0.000 A 
ATOM     26  C   UNL     1       4.502  -3.271  -1.021  0.00  0.00    +0.000 A 
ATOM     27  C   UNL     1       3.862  -2.582  -2.067  0.00  0.00    +0.000 A 
ATOM     28  C   UNL     1       3.209  -1.362  -1.848  0.00  0.00    +0.000 A 
BRANCH  23  30
ATOM     29  C   UNL     1       2.368   0.963   0.803  0.00  0.00    +0.000 C 
ATOM     30  O   UNL     1       2.489   0.390  -0.493  0.00  0.00    +0.000 OA
ENDBRANCH  23  30
ENDBRANCH  17  26
ENDBRANCH   1  21
TORSDOF 5
