REMARK  Name = 
REMARK  4 active torsions:
REMARK  status: ('A' for Active; 'I' for Inactive)
REMARK    1  A    between atoms: N_1  and  C_2
REMARK    2  A    between atoms: C_2  and  C_3
REMARK    3  A    between atoms: C_6  and  C_7
REMARK    4  A    between atoms: C_7  and  N_8
REMARK                            x       y       z     vdW  Elec       q    Type
REMARK                         _______ _______ _______ _____ _____    ______ ____
ROOT
ATOM      1  C   UNL     1       3.397   1.841   0.411  0.00  0.00    +0.000 A 
ATOM      2  C   UNL     1       4.377   1.446   1.324  0.00  0.00    +0.000 A 
ATOM      3  C   UNL     1       4.431   2.039   2.582  0.00  0.00    +0.000 A 
ATOM      4  C   UNL     1       3.497   3.022   2.906  0.00  0.00    +0.000 A 
ATOM      5  N   UNL     1       2.524   3.409   2.044  0.00  0.00    +0.000 NA
ATOM      6  C   UNL     1       2.500   2.818   0.827  0.00  0.00    +0.000 A 
ENDROOT
BRANCH   1   7
ATOM      7  C   UNL     1       3.346   1.276  -0.979  0.00  0.00    +0.000 C 
BRANCH   7   8
ATOM      8  N   UNL     1       3.209  -0.175  -0.982  0.00  0.00    +0.000 NA
ATOM      9  H   UNL     1       3.127  -0.496  -1.943  0.00  0.00    +0.000 HD
ATOM     10  H   UNL     1       2.335  -0.428  -0.522  0.00  0.00    +0.000 HD
ENDBRANCH   7   8
ENDBRANCH   1   7
BRANCH   4  11
ATOM     11  C   UNL     1       3.492   3.643   4.273  0.00  0.00    +0.000 C 
BRANCH  11  12
ATOM     12  N   UNL     1       4.279   4.870   4.369  0.00  0.00    +0.000 N 
ATOM     13  C   UNL     1       5.635   4.894   4.605  0.00  0.00    +0.000 A 
ATOM     14  C   UNL     1       5.925   6.074   5.245  0.00  0.00    +0.000 A 
ATOM     15  C   UNL     1       4.728   6.846   5.298  0.00  0.00    +0.000 A 
ATOM     16  C   UNL     1       4.386   8.086   5.850  0.00  0.00    +0.000 A 
ATOM     17  N   UNL     1       3.149   8.609   5.661  0.00  0.00    +0.000 NA
ATOM     18  C   UNL     1       2.258   7.918   4.916  0.00  0.00    +0.000 A 
ATOM     19  C   UNL     1       2.481   6.661   4.372  0.00  0.00    +0.000 A 
ATOM     20  C   UNL     1       3.746   6.122   4.617  0.00  0.00    +0.000 A 
ENDBRANCH  11  12
ENDBRANCH   4  11
TORSDOF 4
