REMARK  Name = 
REMARK  12 active torsions:
REMARK  status: ('A' for Active; 'I' for Inactive)
REMARK    1  A    between atoms: C_1  and  C_2
REMARK    2  A    between atoms: C_2  and  N_3
REMARK    3  A    between atoms: N_3  and  C_4
REMARK    4  A    between atoms: C_4  and  C_5
REMARK    5  A    between atoms: C_6  and  C_8
REMARK    6  A    between atoms: C_11  and  O_12
REMARK    7  A    between atoms: O_12  and  C_13
REMARK    8  A    between atoms: C_13  and  C_14
REMARK    9  A    between atoms: C_14  and  O_15
REMARK   10  A    between atoms: C_14  and  C_16
REMARK   11  A    between atoms: C_20  and  C_21
REMARK   12  A    between atoms: C_21  and  O_22
REMARK                            x       y       z     vdW  Elec       q    Type
REMARK                         _______ _______ _______ _____ _____    ______ ____
ROOT
ATOM      1  O   UNL     1       7.174   8.516  -3.024  0.00  0.00    +0.000 OA
ENDROOT
BRANCH   1   5
ATOM      2  C   UNL     1       7.429   8.773  -7.118  0.00  0.00    +0.000 A 
ATOM      3  C   UNL     1       6.316   9.361  -6.517  0.00  0.00    +0.000 A 
ATOM      4  C   UNL     1       6.193   9.305  -5.128  0.00  0.00    +0.000 A 
ATOM      5  C   UNL     1       7.172   8.663  -4.380  0.00  0.00    +0.000 A 
ATOM      6  C   UNL     1       8.264   8.139  -5.060  0.00  0.00    +0.000 A 
ATOM      7  N   UNL     1       8.415   8.176  -6.405  0.00  0.00    +0.000 NA
BRANCH   2   9
ATOM      8  N   UNL     1       8.195   7.816  -9.334  0.00  0.00    +0.000 N 
ATOM      9  C   UNL     1       7.567   8.853  -8.611  0.00  0.00    +0.000 C 
ATOM     10  O   UNL     1       7.096   9.847  -9.169  0.00  0.00    +0.000 OA
BRANCH   8  12
ATOM     11  C   UNL     1       7.240   7.873 -11.627  0.00  0.00    +0.000 C 
ATOM     12  C   UNL     1       8.468   8.073 -10.750  0.00  0.00    +0.000 C 
ENDBRANCH   8  12
BRANCH   8  13
ATOM     13  C   UNL     1       8.674   6.585  -8.689  0.00  0.00    +0.000 C 
ATOM     14  C   UNL     1       9.017   5.395  -9.572  0.00  0.00    +0.000 C 
ENDBRANCH   8  13
ENDBRANCH   2   9
ENDBRANCH   1   5
BRANCH   1  15
ATOM     15  C   UNL     1       5.886   8.519  -2.388  0.00  0.00    +0.000 C 
BRANCH  15  16
ATOM     16  C   UNL     1       5.968   7.685  -1.092  0.00  0.00    +0.000 C 
BRANCH  16  17
ATOM     17  C   UNL     1       6.342   6.219  -1.270  0.00  0.00    +0.000 A 
ATOM     18  C   UNL     1       7.008   5.524  -0.247  0.00  0.00    +0.000 A 
ATOM     19  C   UNL     1       7.311   4.167  -0.376  0.00  0.00    +0.000 A 
ATOM     20  C   UNL     1       6.938   3.470  -1.524  0.00  0.00    +0.000 A 
ATOM     21  C   UNL     1       6.257   4.126  -2.553  0.00  0.00    +0.000 A 
ATOM     22  C   UNL     1       5.968   5.494  -2.415  0.00  0.00    +0.000 A 
BRANCH  21  23
ATOM     23  C   UNL     1       5.835   3.394  -3.799  0.00  0.00    +0.000 C 
BRANCH  23  24
ATOM     24  O   UNL     1       4.426   3.489  -3.969  0.00  0.00    +0.000 OA
ATOM     25  H   UNL     1       4.027   3.273  -3.108  0.00  0.00    +0.000 HD
ENDBRANCH  23  24
ENDBRANCH  21  23
ENDBRANCH  16  17
BRANCH  16  26
ATOM     26  O   UNL     1       6.892   8.328  -0.205  0.00  0.00    +0.000 OA
ATOM     27  H   UNL     1       7.737   8.365  -0.690  0.00  0.00    +0.000 HD
ENDBRANCH  16  26
ENDBRANCH  15  16
ENDBRANCH   1  15
TORSDOF 10
