REMARK  Name = 
REMARK  10 active torsions:
REMARK  status: ('A' for Active; 'I' for Inactive)
REMARK    1  A    between atoms: C_1  and  C_2
REMARK    2  A    between atoms: C_2  and  O_3
REMARK    3  A    between atoms: O_3  and  C_4
REMARK    4  A    between atoms: C_6  and  C_7
REMARK    5  A    between atoms: C_7  and  C_8
REMARK    6  A    between atoms: C_8  and  N_9
REMARK    7  A    between atoms: N_9  and  C_10
REMARK    8  A    between atoms: C_13  and  C_14
REMARK    9  A    between atoms: C_20  and  C_21
REMARK   10  A    between atoms: C_27  and  O_28
REMARK                            x       y       z     vdW  Elec       q    Type
REMARK                         _______ _______ _______ _____ _____    ______ ____
ROOT
ATOM      1  C   UNL     1       3.903  -0.008  -1.972  0.00  0.00    +0.000 A 
ATOM      2  C   UNL     1       4.753  -1.091  -1.746  0.00  0.00    +0.000 A 
ATOM      3  C   UNL     1       6.009  -1.169  -2.365  0.00  0.00    +0.000 A 
ATOM      4  C   UNL     1       6.363  -0.163  -3.275  0.00  0.00    +0.000 A 
ATOM      5  C   UNL     1       5.495   0.900  -3.569  0.00  0.00    +0.000 A 
ATOM      6  C   UNL     1       4.270   0.976  -2.893  0.00  0.00    +0.000 A 
ENDROOT
BRANCH   5   7
ATOM      7  C   UNL     1       5.879   1.930  -4.603  0.00  0.00    +0.000 C 
ATOM      8  F   UNL     1       7.084   1.683  -5.189  0.00  0.00    +0.000 F 
ATOM      9  F   UNL     1       4.981   2.003  -5.623  0.00  0.00    +0.000 F 
ATOM     10  F   UNL     1       5.969   3.187  -4.087  0.00  0.00    +0.000 F 
ENDBRANCH   5   7
BRANCH   1  11
ATOM     11  O   UNL     1       2.696   0.200  -1.346  0.00  0.00    +0.000 OA
BRANCH  11  13
ATOM     12  C   UNL     1       1.666  -1.920  -0.675  0.00  0.00    +0.000 C 
ATOM     13  C   UNL     1       2.294  -0.606  -0.202  0.00  0.00    +0.000 C 
ATOM     14  C   UNL     1       3.267  -0.688   1.010  0.00  0.00    +0.000 C 
ATOM     15  C   UNL     1       2.453   0.400   1.722  0.00  0.00    +0.000 C 
ATOM     16  C   UNL     1       1.301   0.142   0.740  0.00  0.00    +0.000 C 
BRANCH  15  17
ATOM     17  O   UNL     1       3.012   1.728   1.721  0.00  0.00    +0.000 OA
ATOM     18  H   UNL     1       2.977   2.030   0.796  0.00  0.00    +0.000 HD
ENDBRANCH  15  17
ENDBRANCH  11  13
ENDBRANCH   1  11
BRANCH   3  19
ATOM     19  C   UNL     1       6.917  -2.336  -2.018  0.00  0.00    +0.000 C 
BRANCH  19  20
ATOM     20  C   UNL     1       8.320  -2.241  -2.622  0.00  0.00    +0.000 C 
BRANCH  20  21
ATOM     21  N   UNL     1       9.154  -3.393  -2.302  0.00  0.00    +0.000 N 
ATOM     22  H   UNL     1       9.087  -3.714  -1.337  0.00  0.00    +0.000 HD
BRANCH  21  23
ATOM     23  C   UNL     1      10.478  -3.385  -2.768  0.00  0.00    +0.000 A 
ATOM     24  C   UNL     1      10.993  -2.420  -3.641  0.00  0.00    +0.000 A 
ATOM     25  C   UNL     1      12.297  -2.512  -4.126  0.00  0.00    +0.000 A 
ATOM     26  C   UNL     1      13.057  -3.603  -3.742  0.00  0.00    +0.000 A 
ATOM     27  N   UNL     1      12.607  -4.588  -2.919  0.00  0.00    +0.000 NA
ATOM     28  C   UNL     1      11.334  -4.451  -2.469  0.00  0.00    +0.000 A 
BRANCH  26  29
ATOM     29  C   UNL     1      14.454  -3.744  -4.264  0.00  0.00    +0.000 C 
ATOM     30  N   UNL     1      15.113  -4.873  -3.859  0.00  0.00    +0.000 N 
ATOM     31  O   UNL     1      14.974  -2.922  -5.003  0.00  0.00    +0.000 OA
ATOM     32  H   UNL     1      14.633  -5.542  -3.269  0.00  0.00    +0.000 HD
ATOM     33  H   UNL     1      16.049  -5.048  -4.190  0.00  0.00    +0.000 HD
ENDBRANCH  26  29
ENDBRANCH  21  23
ENDBRANCH  20  21
ENDBRANCH  19  20
ENDBRANCH   3  19
TORSDOF 9
