REMARK  Name = 
REMARK  5 active torsions:
REMARK  status: ('A' for Active; 'I' for Inactive)
REMARK    1  A    between atoms: C_2  and  C_5
REMARK    2  A    between atoms: C_7  and  N_8
REMARK    3  A    between atoms: N_8  and  C_9
REMARK    4  A    between atoms: C_9  and  C_10
REMARK    5  A    between atoms: C_14  and  N_15
REMARK                            x       y       z     vdW  Elec       q    Type
REMARK                         _______ _______ _______ _____ _____    ______ ____
ROOT
ATOM      1  C   UNL     1       2.145   5.071  -1.498  0.00  0.00    +0.000 C 
ENDROOT
BRANCH   1   2
ATOM      2  C   UNL     1       2.065   6.535  -1.848  0.00  0.00    +0.000 A 
ATOM      3  C   UNL     1       2.673   7.488  -1.043  0.00  0.00    +0.000 A 
ATOM      4  N   UNL     1       2.657   8.815  -1.299  0.00  0.00    +0.000 NA
ATOM      5  C   UNL     1       2.002   9.201  -2.415  0.00  0.00    +0.000 A 
ATOM      6  C   UNL     1       1.334   8.357  -3.306  0.00  0.00    +0.000 A 
ATOM      7  C   UNL     1       1.385   6.993  -2.982  0.00  0.00    +0.000 A 
BRANCH   6   8
ATOM      8  N   UNL     1       0.687   8.826  -4.423  0.00  0.00    +0.000 N 
ATOM      9  C   UNL     1      -0.492   8.163  -4.990  0.00  0.00    +0.000 C 
ATOM     10  C   UNL     1      -0.278   7.859  -6.485  0.00  0.00    +0.000 C 
ATOM     11  N   UNL     1       0.150   9.034  -7.276  0.00  0.00    +0.000 NA
ATOM     12  C   UNL     1       1.368   9.608  -6.662  0.00  0.00    +0.000 C 
ATOM     13  C   UNL     1       1.200   9.978  -5.170  0.00  0.00    +0.000 C 
ATOM     14  H   UNL     1      -0.589   9.736  -7.221  0.00  0.00    +0.000 HD
ENDBRANCH   6   8
ENDBRANCH   1   2
BRANCH   1  15
ATOM     15  N   UNL     1       3.326   4.452  -2.096  0.00  0.00    +0.000 N 
ATOM     16  H   UNL     1       4.152   5.042  -2.075  0.00  0.00    +0.000 HD
BRANCH  15  19
ATOM     17  C   UNL     1       2.927   0.777  -1.610  0.00  0.00    +0.000 A 
ATOM     18  C   UNL     1       2.605   2.140  -1.670  0.00  0.00    +0.000 A 
ATOM     19  C   UNL     1       3.592   3.094  -1.881  0.00  0.00    +0.000 A 
ATOM     20  C   UNL     1       4.902   2.629  -2.032  0.00  0.00    +0.000 A 
ATOM     21  C   UNL     1       5.160   1.272  -1.935  0.00  0.00    +0.000 A 
ATOM     22  N   UNL     1       4.210   0.336  -1.724  0.00  0.00    +0.000 NA
BRANCH  17  24
ATOM     23  F   UNL     1       0.564   0.366  -1.383  0.00  0.00    +0.000 F 
ATOM     24  C   UNL     1       1.798  -0.230  -1.423  0.00  0.00    +0.000 C 
ATOM     25  F   UNL     1       1.889  -0.936  -0.267  0.00  0.00    +0.000 F 
ATOM     26  F   UNL     1       1.712  -1.149  -2.428  0.00  0.00    +0.000 F 
ENDBRANCH  17  24
ENDBRANCH  15  19
ENDBRANCH   1  15
TORSDOF 5
