REMARK  Name = 
REMARK  6 active torsions:
REMARK  status: ('A' for Active; 'I' for Inactive)
REMARK    1  A    between atoms: N_1  and  C_2
REMARK    2  A    between atoms: C_5  and  C_6
REMARK    3  A    between atoms: C_6  and  C_7
REMARK    4  A    between atoms: C_10  and  C_11
REMARK    5  A    between atoms: C_11  and  N_12
REMARK    6  A    between atoms: C_13  and  C_15
REMARK                            x       y       z     vdW  Elec       q    Type
REMARK                         _______ _______ _______ _____ _____    ______ ____
ROOT
ATOM      1  C   UNL     1       2.467   1.389   2.385  0.00  0.00    +0.000 A 
ATOM      2  C   UNL     1       1.798   2.590   2.161  0.00  0.00    +0.000 A 
ATOM      3  C   UNL     1       2.351   3.775   2.634  0.00  0.00    +0.000 A 
ATOM      4  C   UNL     1       3.536   3.739   3.360  0.00  0.00    +0.000 A 
ATOM      5  C   UNL     1       4.128   2.497   3.552  0.00  0.00    +0.000 A 
ATOM      6  N   UNL     1       3.628   1.329   3.078  0.00  0.00    +0.000 NA
ENDROOT
BRANCH   1   7
ATOM      7  C   UNL     1       1.908   0.093   1.844  0.00  0.00    +0.000 C 
BRANCH   7  11
ATOM      8  C   UNL     1      -0.059  -0.398  -1.301  0.00  0.00    +0.000 C 
ATOM      9  C   UNL     1       0.587   0.932  -0.906  0.00  0.00    +0.000 C 
ATOM     10  C   UNL     1       2.086   0.775  -0.655  0.00  0.00    +0.000 C 
ATOM     11  C   UNL     1       2.392  -0.280   0.421  0.00  0.00    +0.000 C 
ATOM     12  C   UNL     1       1.781  -1.622  -0.031  0.00  0.00    +0.000 C 
ATOM     13  C   UNL     1       0.279  -1.526  -0.317  0.00  0.00    +0.000 C 
BRANCH   8  14
ATOM     14  N   UNL     1      -1.512  -0.241  -1.389  0.00  0.00    +0.000 NA
ATOM     15  H   UNL     1      -1.735   0.554  -1.989  0.00  0.00    +0.000 HD
ATOM     16  H   UNL     1      -1.891  -0.009  -0.471  0.00  0.00    +0.000 HD
ENDBRANCH   8  14
ENDBRANCH   7  11
ENDBRANCH   1   7
BRANCH   4  17
ATOM     17  C   UNL     1       4.153   4.998   3.886  0.00  0.00    +0.000 C 
BRANCH  17  18
ATOM     18  N   UNL     1       5.094   5.568   2.952  0.00  0.00    +0.000 N 
ATOM     19  C   UNL     1       4.757   6.582   2.089  0.00  0.00    +0.000 C 
ATOM     20  O   UNL     1       3.624   7.053   2.048  0.00  0.00    +0.000 OA
ATOM     21  H   UNL     1       5.975   5.081   2.829  0.00  0.00    +0.000 HD
BRANCH  19  22
ATOM     22  C   UNL     1       5.841   7.121   1.256  0.00  0.00    +0.000 A 
ATOM     23  C   UNL     1       5.710   8.392   0.711  0.00  0.00    +0.000 A 
ATOM     24  S   UNL     1       7.063   8.894  -0.196  0.00  0.00    +0.000 S 
ATOM     25  C   UNL     1       7.856   7.413   0.068  0.00  0.00    +0.000 A 
ATOM     26  N   UNL     1       9.080   7.172  -0.475  0.00  0.00    +0.000 NA
ATOM     27  C   UNL     1       9.548   5.993  -0.234  0.00  0.00    +0.000 A 
ATOM     28  N   UNL     1       8.911   5.039   0.515  0.00  0.00    +0.000 N 
ATOM     29  C   UNL     1       7.710   5.266   1.146  0.00  0.00    +0.000 A 
ATOM     30  O   UNL     1       7.225   4.439   1.911  0.00  0.00    +0.000 OA
ATOM     31  C   UNL     1       7.112   6.557   0.861  0.00  0.00    +0.000 A 
ATOM     32  H   UNL     1       9.345   4.145   0.690  0.00  0.00    +0.000 HD
ENDBRANCH  19  22
ENDBRANCH  17  18
ENDBRANCH   4  17
TORSDOF 6
