REMARK  Name = 
REMARK  7 active torsions:
REMARK  status: ('A' for Active; 'I' for Inactive)
REMARK    1  A    between atoms: C_1  and  O_2
REMARK    2  A    between atoms: O_2  and  C_3
REMARK    3  A    between atoms: C_6  and  C_7
REMARK    4  A    between atoms: C_7  and  C_8
REMARK    5  A    between atoms: C_7  and  N_9
REMARK    6  A    between atoms: N_9  and  C_10
REMARK    7  A    between atoms: C_13  and  C_14
REMARK                            x       y       z     vdW  Elec       q    Type
REMARK                         _______ _______ _______ _____ _____    ______ ____
ROOT
ATOM      1  N   UNL     1       5.189   3.250  -4.817  0.00  0.00    +0.000 N 
ATOM      2  H   UNL     1       4.283   3.195  -5.284  0.00  0.00    +0.000 HD
ENDROOT
BRANCH   1   3
ATOM      3  C   UNL     1       6.071   4.092  -5.492  0.00  0.00    +0.000 A 
ATOM      4  C   UNL     1       7.452   3.894  -5.558  0.00  0.00    +0.000 A 
ATOM      5  C   UNL     1       8.303   4.847  -6.140  0.00  0.00    +0.000 A 
ATOM      6  C   UNL     1       7.791   6.046  -6.646  0.00  0.00    +0.000 A 
ATOM      7  C   UNL     1       6.409   6.256  -6.587  0.00  0.00    +0.000 A 
ATOM      8  C   UNL     1       5.568   5.294  -6.015  0.00  0.00    +0.000 A 
BRANCH   6   9
ATOM      9  C   UNL     1       8.706   7.104  -7.209  0.00  0.00    +0.000 C 
ATOM     10  F   UNL     1      10.024   6.756  -7.177  0.00  0.00    +0.000 F 
ATOM     11  F   UNL     1       8.431   7.403  -8.508  0.00  0.00    +0.000 F 
ATOM     12  F   UNL     1       8.619   8.281  -6.528  0.00  0.00    +0.000 F 
ENDBRANCH   6   9
ENDBRANCH   1   3
BRANCH   1  13
ATOM     13  C   UNL     1       5.591   1.952  -4.260  0.00  0.00    +0.000 C 
ATOM     14  C   UNL     1       4.617   1.583  -3.140  0.00  0.00    +0.000 C 
BRANCH  13  18
ATOM     15  C   UNL     1       5.562  -0.943  -7.342  0.00  0.00    +0.000 A 
ATOM     16  C   UNL     1       6.740  -0.770  -6.645  0.00  0.00    +0.000 A 
ATOM     17  C   UNL     1       6.764   0.159  -5.612  0.00  0.00    +0.000 A 
ATOM     18  C   UNL     1       5.605   0.874  -5.329  0.00  0.00    +0.000 A 
ATOM     19  N   UNL     1       4.460   0.656  -6.022  0.00  0.00    +0.000 NA
ATOM     20  N   UNL     1       4.438  -0.264  -7.032  0.00  0.00    +0.000 NA
BRANCH  15  22
ATOM     21  C   UNL     1       4.339  -1.903  -9.086  0.00  0.00    +0.000 C 
ATOM     22  O   UNL     1       5.584  -1.830  -8.398  0.00  0.00    +0.000 OA
ENDBRANCH  15  22
ENDBRANCH  13  18
ENDBRANCH   1  13
TORSDOF 5
