REMARK  Name = 
REMARK  10 active torsions:
REMARK  status: ('A' for Active; 'I' for Inactive)
REMARK    1  A    between atoms: N_1  and  C_2
REMARK    2  A    between atoms: C_2  and  C_3
REMARK    3  A    between atoms: C_3  and  N_4
REMARK    4  A    between atoms: C_3  and  C_21
REMARK    5  A    between atoms: N_4  and  C_5
REMARK    6  A    between atoms: C_5  and  C_6
REMARK    7  A    between atoms: C_9  and  C_10
REMARK    8  A    between atoms: C_10  and  O_11
REMARK    9  A    between atoms: O_11  and  C_12
REMARK   10  A    between atoms: C_12  and  C_13
REMARK                            x       y       z     vdW  Elec       q    Type
REMARK                         _______ _______ _______ _____ _____    ______ ____
ROOT
ATOM      1  N   UNL     1       2.356   0.142   0.294  0.00  0.00    +0.000 NA
ATOM      2  H   UNL     1       1.405  -0.153   0.065  0.00  0.00    +0.000 HD
ENDROOT
BRANCH   1   3
ATOM      3  C   UNL     1       3.118  -1.106   0.429  0.00  0.00    +0.000 C 
BRANCH   3   4
ATOM      4  C   UNL     1       2.001  -2.132   0.656  0.00  0.00    +0.000 A 
ATOM      5  C   UNL     1       1.886  -3.333  -0.020  0.00  0.00    +0.000 A 
ATOM      6  S   UNL     1       0.284  -3.938   0.032  0.00  0.00    +0.000 S 
ATOM      7  C   UNL     1      -0.227  -2.687   1.074  0.00  0.00    +0.000 A 
ATOM      8  N   UNL     1      -1.536  -2.498   1.390  0.00  0.00    +0.000 NA
ATOM      9  C   UNL     1      -1.753  -1.497   2.179  0.00  0.00    +0.000 A 
ATOM     10  N   UNL     1      -0.777  -0.701   2.732  0.00  0.00    +0.000 N 
ATOM     11  C   UNL     1       0.568  -0.901   2.516  0.00  0.00    +0.000 A 
ATOM     12  O   UNL     1       1.415  -0.279   3.154  0.00  0.00    +0.000 OA
ATOM     13  C   UNL     1       0.837  -1.924   1.507  0.00  0.00    +0.000 A 
ATOM     14  H   UNL     1      -1.013   0.012   3.404  0.00  0.00    +0.000 HD
ENDBRANCH   3   4
BRANCH   3  15
ATOM     15  C   UNL     1       4.138  -1.185   1.608  0.00  0.00    +0.000 C 
BRANCH  15  16
ATOM     16  N   UNL     1       4.800  -2.507   1.709  0.00  0.00    +0.000 NA
ATOM     17  H   UNL     1       4.081  -3.234   1.731  0.00  0.00    +0.000 HD
ATOM     18  H   UNL     1       5.255  -2.573   2.620  0.00  0.00    +0.000 HD
ENDBRANCH  15  16
ENDBRANCH   3  15
ENDBRANCH   1   3
BRANCH   1  19
ATOM     19  C   UNL     1       2.581   1.116  -0.769  0.00  0.00    +0.000 C 
BRANCH  19  20
ATOM     20  C   UNL     1       1.299   1.977  -0.861  0.00  0.00    +0.000 A 
ATOM     21  C   UNL     1       0.487   2.164   0.279  0.00  0.00    +0.000 A 
ATOM     22  C   UNL     1      -0.761   2.780   0.204  0.00  0.00    +0.000 A 
ATOM     23  C   UNL     1      -1.207   3.310  -1.007  0.00  0.00    +0.000 A 
ATOM     24  C   UNL     1      -0.383   3.200  -2.136  0.00  0.00    +0.000 A 
ATOM     25  C   UNL     1       0.860   2.532  -2.067  0.00  0.00    +0.000 A 
BRANCH  23  26
ATOM     26  C   UNL     1      -2.534   4.031  -1.053  0.00  0.00    +0.000 C 
BRANCH  26  27
ATOM     27  O   UNL     1      -2.606   5.068  -0.068  0.00  0.00    +0.000 OA
BRANCH  27  28
ATOM     28  C   UNL     1      -1.674   6.121  -0.309  0.00  0.00    +0.000 C 
BRANCH  28  29
ATOM     29  C   UNL     1      -1.834   7.157   0.748  0.00  0.00    +0.000 A 
ATOM     30  C   UNL     1      -0.822   7.478   1.630  0.00  0.00    +0.000 A 
ATOM     31  N   UNL     1      -0.916   8.437   2.576  0.00  0.00    +0.000 NA
ATOM     32  C   UNL     1      -2.095   9.079   2.621  0.00  0.00    +0.000 A 
ATOM     33  N   UNL     1      -3.153   8.858   1.827  0.00  0.00    +0.000 NA
ATOM     34  C   UNL     1      -2.998   7.885   0.908  0.00  0.00    +0.000 A 
ENDBRANCH  28  29
ENDBRANCH  27  28
ENDBRANCH  26  27
ENDBRANCH  23  26
ENDBRANCH  19  20
ENDBRANCH   1  19
TORSDOF 10
