REMARK  Name = 
REMARK  7 active torsions:
REMARK  status: ('A' for Active; 'I' for Inactive)
REMARK    1  A    between atoms: C_1  and  C_2
REMARK    2  A    between atoms: C_2  and  C_3
REMARK    3  A    between atoms: C_2  and  C_14
REMARK    4  A    between atoms: C_3  and  N_4
REMARK    5  A    between atoms: C_9  and  C_10
REMARK    6  A    between atoms: C_18  and  O_19
REMARK    7  A    between atoms: O_19  and  C_20
REMARK                            x       y       z     vdW  Elec       q    Type
REMARK                         _______ _______ _______ _____ _____    ______ ____
ROOT
ATOM      1  C   UNL     1       0.932  -0.025   0.163  0.00  0.00    +0.000 C 
ENDROOT
BRANCH   1   2
ATOM      2  N   UNL     1       0.520   0.108   1.554  0.00  0.00    +0.000 N 
ATOM      3  C   UNL     1      -0.801  -0.014   1.935  0.00  0.00    +0.000 A 
ATOM      4  C   UNL     1      -1.894   0.408   1.173  0.00  0.00    +0.000 A 
ATOM      5  N   UNL     1      -3.186   0.336   1.594  0.00  0.00    +0.000 NA
ATOM      6  C   UNL     1      -3.354  -0.159   2.842  0.00  0.00    +0.000 A 
ATOM      7  C   UNL     1      -2.280  -0.573   3.613  0.00  0.00    +0.000 A 
ATOM      8  N   UNL     1      -0.987  -0.516   3.177  0.00  0.00    +0.000 NA
ATOM      9  H   UNL     1       1.094  -0.382   2.234  0.00  0.00    +0.000 HD
BRANCH   7  10
ATOM     10  C   UNL     1      -2.516  -1.092   4.987  0.00  0.00    +0.000 C 
ATOM     11  N   UNL     1      -1.402  -1.482   5.678  0.00  0.00    +0.000 N 
ATOM     12  O   UNL     1      -3.638  -1.162   5.477  0.00  0.00    +0.000 OA
ATOM     13  H   UNL     1      -0.484  -1.383   5.263  0.00  0.00    +0.000 HD
ATOM     14  H   UNL     1      -1.501  -1.814   6.628  0.00  0.00    +0.000 HD
ENDBRANCH   7  10
ENDBRANCH   1   2
BRANCH   1  16
ATOM     15  C   UNL     1       2.944  -0.310  -1.366  0.00  0.00    +0.000 C 
ATOM     16  C   UNL     1       2.476   0.035   0.055  0.00  0.00    +0.000 C 
BRANCH  16  17
ATOM     17  C   UNL     1       3.083   1.367   0.475  0.00  0.00    +0.000 A 
ATOM     18  C   UNL     1       4.030   1.407   1.507  0.00  0.00    +0.000 A 
ATOM     19  C   UNL     1       4.695   2.596   1.816  0.00  0.00    +0.000 A 
ATOM     20  C   UNL     1       4.411   3.766   1.111  0.00  0.00    +0.000 A 
ATOM     21  C   UNL     1       3.427   3.759   0.123  0.00  0.00    +0.000 A 
ATOM     22  C   UNL     1       2.778   2.561  -0.197  0.00  0.00    +0.000 A 
BRANCH  21  23
ATOM     23  O   UNL     1       3.047   4.835  -0.629  0.00  0.00    +0.000 OA
BRANCH  23  24
ATOM     24  C   UNL     1       3.264   6.104  -0.039  0.00  0.00    +0.000 C 
ATOM     25  F   UNL     1       4.535   6.497  -0.300  0.00  0.00    +0.000 F 
ATOM     26  F   UNL     1       2.447   6.986  -0.669  0.00  0.00    +0.000 F 
ENDBRANCH  23  24
ENDBRANCH  21  23
ENDBRANCH  16  17
ENDBRANCH   1  16
TORSDOF 6
