REMARK  Name = 
REMARK  6 active torsions:
REMARK  status: ('A' for Active; 'I' for Inactive)
REMARK    1  A    between atoms: C_1  and  C_2
REMARK    2  A    between atoms: C_4  and  C_5
REMARK    3  A    between atoms: C_10  and  C_11
REMARK    4  A    between atoms: C_11  and  N_12
REMARK    5  A    between atoms: N_12  and  C_13
REMARK    6  A    between atoms: C_16  and  C_17
REMARK                            x       y       z     vdW  Elec       q    Type
REMARK                         _______ _______ _______ _____ _____    ______ ____
ROOT
ATOM      1  C   UNL     1       0.906  -2.550  -0.033  0.00  0.00    +0.000 C 
ENDROOT
BRANCH   1   8
ATOM      2  C   UNL     1      -0.665  -1.220  -2.277  0.00  0.00    +0.000 C 
ATOM      3  C   UNL     1      -0.421  -0.552  -0.955  0.00  0.00    +0.000 A 
ATOM      4  N   UNL     1      -0.965   0.687  -0.840  0.00  0.00    +0.000 NA
ATOM      5  C   UNL     1      -0.793   1.346   0.338  0.00  0.00    +0.000 A 
ATOM      6  C   UNL     1      -0.103   0.825   1.417  0.00  0.00    +0.000 A 
ATOM      7  C   UNL     1       0.447  -0.446   1.281  0.00  0.00    +0.000 A 
ATOM      8  C   UNL     1       0.304  -1.163   0.079  0.00  0.00    +0.000 A 
BRANCH   5   9
ATOM      9  C   UNL     1      -1.407   2.710   0.425  0.00  0.00    +0.000 C 
ATOM     10  N   UNL     1      -2.062   3.126  -0.705  0.00  0.00    +0.000 N 
ATOM     11  O   UNL     1      -1.336   3.410   1.426  0.00  0.00    +0.000 OA
ATOM     12  H   UNL     1      -2.102   2.510  -1.509  0.00  0.00    +0.000 HD
ATOM     13  H   UNL     1      -2.507   4.032  -0.726  0.00  0.00    +0.000 HD
ENDBRANCH   5   9
ENDBRANCH   1   8
BRANCH   1  14
ATOM     14  N   UNL     1       2.340  -2.482   0.233  0.00  0.00    +0.000 N 
ATOM     15  H   UNL     1       2.790  -1.778  -0.352  0.00  0.00    +0.000 HD
BRANCH  14  16
ATOM     16  C   UNL     1       3.121  -3.643   0.229  0.00  0.00    +0.000 A 
ATOM     17  C   UNL     1       2.785  -4.826  -0.436  0.00  0.00    +0.000 A 
ATOM     18  C   UNL     1       3.675  -5.910  -0.475  0.00  0.00    +0.000 A 
ATOM     19  C   UNL     1       4.924  -5.839   0.155  0.00  0.00    +0.000 A 
ATOM     20  C   UNL     1       5.263  -4.659   0.828  0.00  0.00    +0.000 A 
ATOM     21  C   UNL     1       4.375  -3.578   0.851  0.00  0.00    +0.000 A 
BRANCH  19  22
ATOM     22  C   UNL     1       5.900  -6.990   0.108  0.00  0.00    +0.000 C 
ATOM     23  F   UNL     1       5.435  -8.072  -0.576  0.00  0.00    +0.000 F 
ATOM     24  F   UNL     1       7.076  -6.650  -0.490  0.00  0.00    +0.000 F 
ATOM     25  F   UNL     1       6.231  -7.447   1.347  0.00  0.00    +0.000 F 
ENDBRANCH  19  22
ENDBRANCH  14  16
ENDBRANCH   1  14
TORSDOF 5
