REMARK  Name = 
REMARK  4 active torsions:
REMARK  status: ('A' for Active; 'I' for Inactive)
REMARK    1  A    between atoms: N_1  and  S_2
REMARK    2  A    between atoms: S_2  and  C_5
REMARK    3  A    between atoms: C_8  and  C_9
REMARK    4  A    between atoms: C_9  and  N_10
REMARK                            x       y       z     vdW  Elec       q    Type
REMARK                         _______ _______ _______ _____ _____    ______ ____
ROOT
ATOM      1  C   UNL     1       3.387   1.320   0.856  0.00  0.00    +0.000 A 
ATOM      2  C   UNL     1       4.675   1.778   1.132  0.00  0.00    +0.000 A 
ATOM      3  C   UNL     1       4.878   2.642   2.210  0.00  0.00    +0.000 A 
ATOM      4  C   UNL     1       3.801   3.060   3.007  0.00  0.00    +0.000 A 
ATOM      5  C   UNL     1       2.517   2.560   2.733  0.00  0.00    +0.000 A 
ATOM      6  C   UNL     1       2.309   1.690   1.662  0.00  0.00    +0.000 A 
ENDROOT
BRANCH   1   7
ATOM      7  S   UNL     1       3.122   0.255  -0.531  0.00  0.00    +0.000 S 
ATOM      8  O   UNL     1       3.691   0.861  -1.704  0.00  0.00    +0.000 OA
ATOM      9  O   UNL     1       1.766  -0.250  -0.486  0.00  0.00    +0.000 OA
BRANCH   7  10
ATOM     10  N   UNL     1       4.093  -1.063  -0.148  0.00  0.00    +0.000 NA
ATOM     11  H   UNL     1       4.581  -1.366  -0.993  0.00  0.00    +0.000 HD
ATOM     12  H   UNL     1       3.532  -1.802   0.283  0.00  0.00    +0.000 HD
ENDBRANCH   7  10
ENDBRANCH   1   7
BRANCH   4  13
ATOM     13  C   UNL     1       4.007   4.054   4.125  0.00  0.00    +0.000 C 
BRANCH  13  14
ATOM     14  N   UNL     1       3.829   5.434   3.678  0.00  0.00    +0.000 N 
ATOM     15  C   UNL     1       2.627   6.101   3.698  0.00  0.00    +0.000 A 
ATOM     16  C   UNL     1       2.855   7.408   3.335  0.00  0.00    +0.000 A 
ATOM     17  C   UNL     1       4.248   7.554   3.095  0.00  0.00    +0.000 A 
ATOM     18  C   UNL     1       5.062   8.635   2.731  0.00  0.00    +0.000 A 
ATOM     19  N   UNL     1       6.400   8.477   2.586  0.00  0.00    +0.000 NA
ATOM     20  C   UNL     1       6.932   7.254   2.787  0.00  0.00    +0.000 A 
ATOM     21  C   UNL     1       6.215   6.121   3.143  0.00  0.00    +0.000 A 
ATOM     22  C   UNL     1       4.838   6.303   3.304  0.00  0.00    +0.000 A 
ENDBRANCH  13  14
ENDBRANCH   4  13
TORSDOF 4
