REMARK  Name = 
REMARK  10 active torsions:
REMARK  status: ('A' for Active; 'I' for Inactive)
REMARK    1  A    between atoms: C_1  and  N_2
REMARK    2  A    between atoms: N_2  and  C_3
REMARK    3  A    between atoms: N_2  and  C_4
REMARK    4  A    between atoms: C_4  and  C_5
REMARK    5  A    between atoms: C_7  and  C_8
REMARK    6  A    between atoms: C_8  and  N_9
REMARK    7  A    between atoms: C_10  and  C_12
REMARK    8  A    between atoms: C_24  and  C_25
REMARK    9  A    between atoms: C_25  and  N_26
REMARK   10  A    between atoms: C_27  and  C_29
REMARK                            x       y       z     vdW  Elec       q    Type
REMARK                         _______ _______ _______ _____ _____    ______ ____
ROOT
ATOM      1  C   UNL     1       4.313   0.968  -1.255  0.00  0.00    +0.000 A 
ATOM      2  C   UNL     1       5.050  -0.211  -1.500  0.00  0.00    +0.000 A 
ATOM      3  C   UNL     1       6.449  -0.238  -1.463  0.00  0.00    +0.000 A 
ATOM      4  C   UNL     1       7.129   0.952  -1.201  0.00  0.00    +0.000 A 
ATOM      5  C   UNL     1       6.418   2.133  -0.956  0.00  0.00    +0.000 A 
ATOM      6  C   UNL     1       5.008   2.161  -0.964  0.00  0.00    +0.000 A 
ENDROOT
BRANCH   1   7
ATOM      7  C   UNL     1       2.799   0.850  -1.306  0.00  0.00    +0.000 C 
BRANCH   7   9
ATOM      8  C   UNL     1       2.652   1.369  -3.691  0.00  0.00    +0.000 C 
ATOM      9  N   UNL     1       2.131   1.646  -2.352  0.00  0.00    +0.000 NA
ATOM     10  C   UNL     1       0.692   1.362  -2.319  0.00  0.00    +0.000 C 
ENDBRANCH   7   9
ENDBRANCH   1   7
BRANCH   3  11
ATOM     11  C   UNL     1       7.173  -1.548  -1.641  0.00  0.00    +0.000 C 
BRANCH  11  12
ATOM     12  N   UNL     1       7.352  -2.216  -0.374  0.00  0.00    +0.000 N 
ATOM     13  C   UNL     1       6.488  -3.159   0.120  0.00  0.00    +0.000 C 
ATOM     14  O   UNL     1       5.484  -3.507  -0.497  0.00  0.00    +0.000 OA
ATOM     15  H   UNL     1       8.125  -1.890   0.194  0.00  0.00    +0.000 HD
BRANCH  13  16
ATOM     16  C   UNL     1       6.827  -3.752   1.428  0.00  0.00    +0.000 A 
ATOM     17  C   UNL     1       5.962  -4.679   2.000  0.00  0.00    +0.000 A 
ATOM     18  S   UNL     1       6.502  -5.304   3.490  0.00  0.00    +0.000 S 
ATOM     19  C   UNL     1       7.910  -4.351   3.441  0.00  0.00    +0.000 A 
ATOM     20  N   UNL     1       8.824  -4.412   4.447  0.00  0.00    +0.000 NA
ATOM     21  C   UNL     1       9.850  -3.644   4.288  0.00  0.00    +0.000 A 
ATOM     22  N   UNL     1      10.042  -2.820   3.210  0.00  0.00    +0.000 N 
ATOM     23  C   UNL     1       9.144  -2.717   2.176  0.00  0.00    +0.000 A 
ATOM     24  O   UNL     1       9.349  -1.948   1.241  0.00  0.00    +0.000 OA
ATOM     25  C   UNL     1       7.970  -3.566   2.300  0.00  0.00    +0.000 A 
ATOM     26  H   UNL     1      10.863  -2.236   3.147  0.00  0.00    +0.000 HD
ENDBRANCH  13  16
ENDBRANCH  11  12
ENDBRANCH   3  11
BRANCH   6  27
ATOM     27  C   UNL     1       4.321   3.469  -0.640  0.00  0.00    +0.000 C 
BRANCH  27  28
ATOM     28  N   UNL     1       4.170   3.678   0.782  0.00  0.00    +0.000 N 
ATOM     29  C   UNL     1       3.616   4.844   1.274  0.00  0.00    +0.000 C 
ATOM     30  O   UNL     1       3.239   5.748   0.536  0.00  0.00    +0.000 OA
ATOM     31  H   UNL     1       4.461   2.966   1.441  0.00  0.00    +0.000 HD
BRANCH  29  32
ATOM     32  C   UNL     1       3.529   4.915   2.721  0.00  0.00    +0.000 A 
ATOM     33  C   UNL     1       3.027   5.904   3.550  0.00  0.00    +0.000 A 
ATOM     34  C   UNL     1       3.208   5.457   4.880  0.00  0.00    +0.000 A 
ATOM     35  C   UNL     1       3.809   4.223   4.790  0.00  0.00    +0.000 A 
ATOM     36  O   UNL     1       4.009   3.884   3.486  0.00  0.00    +0.000 OA
ENDBRANCH  29  32
ENDBRANCH  27  28
ENDBRANCH   6  27
TORSDOF 8
