REMARK  Name = 
REMARK  8 active torsions:
REMARK  status: ('A' for Active; 'I' for Inactive)
REMARK    1  A    between atoms: C_1  and  C_2
REMARK    2  A    between atoms: C_5  and  C_6
REMARK    3  A    between atoms: C_6  and  O_7
REMARK    4  A    between atoms: O_7  and  C_8
REMARK    5  A    between atoms: C_8  and  C_9
REMARK    6  A    between atoms: C_12  and  C_13
REMARK    7  A    between atoms: C_13  and  N_14
REMARK    8  A    between atoms: C_15  and  C_17
REMARK                            x       y       z     vdW  Elec       q    Type
REMARK                         _______ _______ _______ _____ _____    ______ ____
ROOT
ATOM      1  C   UNL     1      -5.577   2.957  -0.068  0.00  0.00    +0.000 A 
ATOM      2  C   UNL     1      -6.940   3.230  -0.173  0.00  0.00    +0.000 A 
ATOM      3  C   UNL     1      -7.368   4.556  -0.216  0.00  0.00    +0.000 A 
ATOM      4  C   UNL     1      -6.428   5.586  -0.169  0.00  0.00    +0.000 A 
ATOM      5  C   UNL     1      -5.092   5.220  -0.038  0.00  0.00    +0.000 A 
ATOM      6  N   UNL     1      -4.648   3.944   0.015  0.00  0.00    +0.000 NA
ENDROOT
BRANCH   1   7
ATOM      7  C   UNL     1      -5.091   1.526  -0.039  0.00  0.00    +0.000 C 
BRANCH   7   8
ATOM      8  O   UNL     1      -5.525   0.863  -1.226  0.00  0.00    +0.000 OA
BRANCH   8   9
ATOM      9  C   UNL     1      -5.094  -0.499  -1.268  0.00  0.00    +0.000 C 
BRANCH   9  14
ATOM     10  C   UNL     1      -6.865  -3.159  -6.069  0.00  0.00    +0.000 C 
ATOM     11  C   UNL     1      -6.392  -2.427  -4.855  0.00  0.00    +0.000 A 
ATOM     12  C   UNL     1      -6.092  -1.068  -4.889  0.00  0.00    +0.000 A 
ATOM     13  C   UNL     1      -5.663  -0.428  -3.729  0.00  0.00    +0.000 A 
ATOM     14  C   UNL     1      -5.557  -1.160  -2.547  0.00  0.00    +0.000 A 
ATOM     15  N   UNL     1      -5.825  -2.490  -2.496  0.00  0.00    +0.000 NA
ATOM     16  C   UNL     1      -6.236  -3.085  -3.640  0.00  0.00    +0.000 A 
ENDBRANCH   9  14
ENDBRANCH   8   9
ENDBRANCH   7   8
ENDBRANCH   1   7
BRANCH   4  17
ATOM     17  C   UNL     1      -6.830   7.031  -0.216  0.00  0.00    +0.000 C 
BRANCH  17  18
ATOM     18  N   UNL     1      -7.065   7.553   1.106  0.00  0.00    +0.000 N 
ATOM     19  C   UNL     1      -7.488   8.843   1.300  0.00  0.00    +0.000 C 
ATOM     20  O   UNL     1      -7.734   9.598   0.363  0.00  0.00    +0.000 OA
ATOM     21  H   UNL     1      -6.652   7.048   1.883  0.00  0.00    +0.000 HD
BRANCH  19  22
ATOM     22  C   UNL     1      -7.691   9.257   2.694  0.00  0.00    +0.000 A 
ATOM     23  C   UNL     1      -8.577  10.284   2.990  0.00  0.00    +0.000 A 
ATOM     24  S   UNL     1      -8.721  10.602   4.660  0.00  0.00    +0.000 S 
ATOM     25  C   UNL     1      -7.567   9.411   5.043  0.00  0.00    +0.000 A 
ATOM     26  N   UNL     1      -7.198   9.182   6.332  0.00  0.00    +0.000 NA
ATOM     27  C   UNL     1      -6.296   8.267   6.474  0.00  0.00    +0.000 A 
ATOM     28  N   UNL     1      -5.734   7.558   5.444  0.00  0.00    +0.000 N 
ATOM     29  C   UNL     1      -6.096   7.736   4.131  0.00  0.00    +0.000 A 
ATOM     30  O   UNL     1      -5.613   7.049   3.236  0.00  0.00    +0.000 OA
ATOM     31  C   UNL     1      -7.096   8.764   3.914  0.00  0.00    +0.000 A 
ATOM     32  H   UNL     1      -5.042   6.845   5.623  0.00  0.00    +0.000 HD
ENDBRANCH  19  22
ENDBRANCH  17  18
ENDBRANCH   4  17
TORSDOF 7
