REMARK  Name = 
REMARK  9 active torsions:
REMARK  status: ('A' for Active; 'I' for Inactive)
REMARK    1  A    between atoms: C_2  and  C_22
REMARK    2  A    between atoms: N_3  and  C_4
REMARK    3  A    between atoms: C_4  and  C_5
REMARK    4  A    between atoms: C_8  and  C_9
REMARK    5  A    between atoms: C_9  and  O_10
REMARK    6  A    between atoms: O_10  and  C_11
REMARK    7  A    between atoms: C_11  and  C_12
REMARK    8  A    between atoms: C_17  and  C_18
REMARK    9  A    between atoms: C_18  and  O_19
REMARK                            x       y       z     vdW  Elec       q    Type
REMARK                         _______ _______ _______ _____ _____    ______ ____
ROOT
ATOM      1  C   UNL     1       3.193  -2.726  -2.295  0.00  0.00    +0.000 A 
ATOM      2  C   UNL     1       4.302  -2.218  -2.982  0.00  0.00    +0.000 A 
ATOM      3  C   UNL     1       5.163  -3.073  -3.673  0.00  0.00    +0.000 A 
ATOM      4  C   UNL     1       4.928  -4.455  -3.692  0.00  0.00    +0.000 A 
ATOM      5  C   UNL     1       3.804  -4.960  -3.028  0.00  0.00    +0.000 A 
ATOM      6  C   UNL     1       2.940  -4.103  -2.341  0.00  0.00    +0.000 A 
ENDROOT
BRANCH   1   7
ATOM      7  C   UNL     1       2.266  -1.795  -1.560  0.00  0.00    +0.000 C 
BRANCH   7  10
ATOM      8  O   UNL     1       2.142   0.635  -2.970  0.00  0.00    +0.000 OA
ATOM      9  C   UNL     1       1.242  -0.186  -3.119  0.00  0.00    +0.000 C 
ATOM     10  N   UNL     1       1.192  -1.361  -2.416  0.00  0.00    +0.000 N 
ATOM     11  H   UNL     1       0.544  -2.083  -2.708  0.00  0.00    +0.000 HD
BRANCH   9  12
ATOM     12  C   UNL     1       0.119   0.070  -4.031  0.00  0.00    +0.000 A 
ATOM     13  C   UNL     1      -0.173   1.373  -4.412  0.00  0.00    +0.000 A 
ATOM     14  S   UNL     1      -1.520   1.497  -5.450  0.00  0.00    +0.000 S 
ATOM     15  C   UNL     1      -1.732  -0.191  -5.466  0.00  0.00    +0.000 A 
ATOM     16  N   UNL     1      -2.722  -0.764  -6.202  0.00  0.00    +0.000 NA
ATOM     17  C   UNL     1      -2.742  -2.054  -6.159  0.00  0.00    +0.000 A 
ATOM     18  N   UNL     1      -1.867  -2.824  -5.438  0.00  0.00    +0.000 N 
ATOM     19  C   UNL     1      -0.898  -2.287  -4.624  0.00  0.00    +0.000 A 
ATOM     20  O   UNL     1      -0.214  -3.003  -3.900  0.00  0.00    +0.000 OA
ATOM     21  C   UNL     1      -0.804  -0.840  -4.670  0.00  0.00    +0.000 A 
ATOM     22  H   UNL     1      -1.952  -3.829  -5.425  0.00  0.00    +0.000 HD
ENDBRANCH   9  12
ENDBRANCH   7  10
ENDBRANCH   1   7
BRANCH   4  23
ATOM     23  C   UNL     1       5.855  -5.376  -4.441  0.00  0.00    +0.000 C 
BRANCH  23  24
ATOM     24  O   UNL     1       7.172  -5.253  -3.906  0.00  0.00    +0.000 OA
BRANCH  24  25
ATOM     25  C   UNL     1       8.069  -6.162  -4.552  0.00  0.00    +0.000 C 
BRANCH  25  26
ATOM     26  C   UNL     1       9.466  -6.012  -3.993  0.00  0.00    +0.000 A 
ATOM     27  N   UNL     1      10.030  -7.148  -3.498  0.00  0.00    +0.000 NA
ATOM     28  C   UNL     1      11.271  -7.059  -2.974  0.00  0.00    +0.000 A 
ATOM     29  C   UNL     1      12.000  -5.887  -2.923  0.00  0.00    +0.000 A 
ATOM     30  C   UNL     1      11.423  -4.735  -3.444  0.00  0.00    +0.000 A 
ATOM     31  C   UNL     1      10.139  -4.781  -4.005  0.00  0.00    +0.000 A 
BRANCH  31  32
ATOM     32  C   UNL     1       9.523  -3.523  -4.547  0.00  0.00    +0.000 C 
BRANCH  32  33
ATOM     33  O   UNL     1       8.756  -2.878  -3.543  0.00  0.00    +0.000 OA
ATOM     34  H   UNL     1       8.137  -3.553  -3.196  0.00  0.00    +0.000 HD
ENDBRANCH  32  33
ENDBRANCH  31  32
ENDBRANCH  25  26
ENDBRANCH  24  25
ENDBRANCH  23  24
ENDBRANCH   4  23
TORSDOF 9
