REMARK  Name = 
REMARK  6 active torsions:
REMARK  status: ('A' for Active; 'I' for Inactive)
REMARK    1  A    between atoms: C_1  and  N_2
REMARK    2  A    between atoms: N_2  and  C_3
REMARK    3  A    between atoms: C_3  and  C_4
REMARK    4  A    between atoms: C_7  and  C_8
REMARK    5  A    between atoms: C_8  and  C_9
REMARK    6  A    between atoms: C_18  and  C_20
REMARK                            x       y       z     vdW  Elec       q    Type
REMARK                         _______ _______ _______ _____ _____    ______ ____
ROOT
ATOM      1  C   UNL     1       4.969  -0.092  -3.064  0.00  0.00    +0.000 C 
ATOM      2  N   UNL     1       4.536  -0.041  -1.673  0.00  0.00    +0.000 N 
ATOM      3  C   UNL     1       5.562   0.027  -0.712  0.00  0.00    +0.000 C 
ATOM      4  O   UNL     1       6.747   0.018  -1.040  0.00  0.00    +0.000 OA
ENDROOT
BRANCH   3   5
ATOM      5  C   UNL     1       5.214   0.065   0.715  0.00  0.00    +0.000 A 
ATOM      6  C   UNL     1       4.273  -0.760   1.313  0.00  0.00    +0.000 A 
ATOM      7  S   UNL     1       4.153  -0.544   3.006  0.00  0.00    +0.000 S 
ATOM      8  C   UNL     1       5.450   0.553   3.009  0.00  0.00    +0.000 A 
ATOM      9  N   UNL     1       5.947   1.044   4.175  0.00  0.00    +0.000 NA
ATOM     10  C   UNL     1       6.979   1.808   4.028  0.00  0.00    +0.000 A 
ATOM     11  N   UNL     1       7.531   2.157   2.822  0.00  0.00    +0.000 N 
ATOM     12  C   UNL     1       6.979   1.800   1.607  0.00  0.00    +0.000 A 
ATOM     13  O   UNL     1       7.332   2.329   0.563  0.00  0.00    +0.000 OA
ATOM     14  C   UNL     1       5.894   0.830   1.731  0.00  0.00    +0.000 A 
ATOM     15  H   UNL     1       8.289   2.818   2.770  0.00  0.00    +0.000 HD
ENDBRANCH   3   5
BRANCH   2  16
ATOM     16  C   UNL     1       3.132   0.238  -1.352  0.00  0.00    +0.000 C 
BRANCH  16  17
ATOM     17  C   UNL     1       2.182   0.490  -2.494  0.00  0.00    +0.000 A 
ATOM     18  C   UNL     1       1.514  -0.579  -3.109  0.00  0.00    +0.000 A 
ATOM     19  C   UNL     1       0.590  -0.347  -4.127  0.00  0.00    +0.000 A 
ATOM     20  C   UNL     1       0.306   0.959  -4.543  0.00  0.00    +0.000 A 
ATOM     21  C   UNL     1       0.985   2.027  -3.938  0.00  0.00    +0.000 A 
ATOM     22  C   UNL     1       1.919   1.793  -2.926  0.00  0.00    +0.000 A 
BRANCH  20  23
ATOM     23  C   UNL     1      -0.703   1.207  -5.638  0.00  0.00    +0.000 C 
BRANCH  23  24
ATOM     24  C   UNL     1      -2.139   0.818  -5.294  0.00  0.00    +0.000 C 
ATOM     25  O   UNL     1      -2.479   0.371  -4.200  0.00  0.00    +0.000 OA
ATOM     26  N   UNL     1      -3.067   1.063  -6.283  0.00  0.00    +0.000 N 
ATOM     27  C   UNL     1      -4.472   0.871  -6.074  0.00  0.00    +0.000 C 
ATOM     28  C   UNL     1      -5.049   1.524  -7.306  0.00  0.00    +0.000 C 
ATOM     29  O   UNL     1      -4.053   1.361  -8.335  0.00  0.00    +0.000 OA
ATOM     30  C   UNL     1      -2.805   1.078  -7.692  0.00  0.00    +0.000 C 
ENDBRANCH  23  24
ENDBRANCH  20  23
ENDBRANCH  16  17
ENDBRANCH   2  16
TORSDOF 5
