REMARK  Name = 
REMARK  8 active torsions:
REMARK  status: ('A' for Active; 'I' for Inactive)
REMARK    1  A    between atoms: C_1  and  O_2
REMARK    2  A    between atoms: O_2  and  C_3
REMARK    3  A    between atoms: C_5  and  C_6
REMARK    4  A    between atoms: C_6  and  O_8
REMARK    5  A    between atoms: C_11  and  C_12
REMARK    6  A    between atoms: C_12  and  O_13
REMARK    7  A    between atoms: O_13  and  C_14
REMARK    8  A    between atoms: C_17  and  C_18
REMARK                            x       y       z     vdW  Elec       q    Type
REMARK                         _______ _______ _______ _____ _____    ______ ____
ROOT
ATOM      1  C   UNL     1       2.989   1.096   0.514  0.00  0.00    +0.000 A 
ATOM      2  C   UNL     1       2.622   1.695   1.725  0.00  0.00    +0.000 A 
ATOM      3  C   UNL     1       3.345   2.789   2.206  0.00  0.00    +0.000 A 
ATOM      4  C   UNL     1       4.438   3.223   1.474  0.00  0.00    +0.000 A 
ATOM      5  N   UNL     1       4.823   2.666   0.302  0.00  0.00    +0.000 NA
ATOM      6  C   UNL     1       4.100   1.610  -0.172  0.00  0.00    +0.000 A 
ENDROOT
BRANCH   1   8
ATOM      7  C   UNL     1       1.018  -0.223   0.402  0.00  0.00    +0.000 C 
ATOM      8  O   UNL     1       2.365  -0.003  -0.011  0.00  0.00    +0.000 OA
ENDBRANCH   1   8
BRANCH   3   9
ATOM      9  C   UNL     1       3.046   3.458   3.489  0.00  0.00    +0.000 C 
ATOM     10  O   UNL     1       3.907   4.009   4.152  0.00  0.00    +0.000 OA
BRANCH   9  11
ATOM     11  O   UNL     1       1.747   3.429   3.845  0.00  0.00    +0.000 OA
ATOM     12  H   UNL     1       1.115   3.135   3.164  0.00  0.00    +0.000 HD
ENDBRANCH   9  11
ENDBRANCH   3   9
BRANCH   6  13
ATOM     13  C   UNL     1       4.599   0.992  -1.465  0.00  0.00    +0.000 C 
BRANCH  13  14
ATOM     14  O   UNL     1       3.616   1.101  -2.499  0.00  0.00    +0.000 OA
BRANCH  14  15
ATOM     15  C   UNL     1       3.938   0.570  -3.716  0.00  0.00    +0.000 A 
ATOM     16  C   UNL     1       5.162   0.020  -4.090  0.00  0.00    +0.000 A 
ATOM     17  C   UNL     1       5.329  -0.481  -5.386  0.00  0.00    +0.000 A 
ATOM     18  C   UNL     1       4.260  -0.418  -6.272  0.00  0.00    +0.000 A 
ATOM     19  N   UNL     1       3.060   0.113  -5.942  0.00  0.00    +0.000 NA
ATOM     20  C   UNL     1       2.934   0.593  -4.679  0.00  0.00    +0.000 A 
BRANCH  18  21
ATOM     21  C   UNL     1       4.384  -0.929  -7.611  0.00  0.00    +0.000 C 
ATOM     22  N   UNL     1       4.527  -1.359  -8.682  0.00  0.00    +0.000 NA
ENDBRANCH  18  21
ENDBRANCH  14  15
ENDBRANCH  13  14
ENDBRANCH   6  13
TORSDOF 7
