REMARK  Name = 
REMARK  6 active torsions:
REMARK  status: ('A' for Active; 'I' for Inactive)
REMARK    1  A    between atoms: C_1  and  C_2
REMARK    2  A    between atoms: C_2  and  O_3
REMARK    3  A    between atoms: C_2  and  C_13
REMARK    4  A    between atoms: O_3  and  C_4
REMARK    5  A    between atoms: C_7  and  C_8
REMARK    6  A    between atoms: C_16  and  O_17
REMARK                            x       y       z     vdW  Elec       q    Type
REMARK                         _______ _______ _______ _____ _____    ______ ____
ROOT
ATOM      1  O   UNL     1       2.805  -1.210   0.748  0.00  0.00    +0.000 OA
ENDROOT
BRANCH   1   2
ATOM      2  C   UNL     1       2.964  -1.111   2.112  0.00  0.00    +0.000 A 
ATOM      3  C   UNL     1       3.189  -2.296   2.795  0.00  0.00    +0.000 A 
ATOM      4  C   UNL     1       3.378  -2.244   4.176  0.00  0.00    +0.000 A 
ATOM      5  C   UNL     1       3.345  -1.012   4.835  0.00  0.00    +0.000 A 
ATOM      6  C   UNL     1       3.106   0.114   4.060  0.00  0.00    +0.000 A 
ATOM      7  N   UNL     1       2.910   0.093   2.716  0.00  0.00    +0.000 NA
BRANCH   5   8
ATOM      8  C   UNL     1       3.563  -0.969   6.301  0.00  0.00    +0.000 C 
ATOM      9  N   UNL     1       3.566   0.240   6.941  0.00  0.00    +0.000 N 
ATOM     10  O   UNL     1       3.745  -1.999   6.943  0.00  0.00    +0.000 OA
ATOM     11  H   UNL     1       3.447   1.144   6.515  0.00  0.00    +0.000 HD
ATOM     12  H   UNL     1       3.729   0.217   7.941  0.00  0.00    +0.000 HD
ENDBRANCH   5   8
ENDBRANCH   1   2
BRANCH   1  14
ATOM     13  C   UNL     1       1.053   0.243  -0.081  0.00  0.00    +0.000 C 
ATOM     14  C   UNL     1       2.560   0.023   0.061  0.00  0.00    +0.000 C 
BRANCH  14  15
ATOM     15  C   UNL     1       3.226  -0.079  -1.304  0.00  0.00    +0.000 A 
ATOM     16  C   UNL     1       4.187   0.873  -1.686  0.00  0.00    +0.000 A 
ATOM     17  C   UNL     1       4.817   0.795  -2.931  0.00  0.00    +0.000 A 
ATOM     18  C   UNL     1       4.491  -0.239  -3.808  0.00  0.00    +0.000 A 
ATOM     19  C   UNL     1       3.535  -1.191  -3.446  0.00  0.00    +0.000 A 
ATOM     20 CL   UNL     1       3.102  -2.481  -4.507  0.00  0.00    +0.000 Cl
ATOM     21  C   UNL     1       2.907  -1.112  -2.200  0.00  0.00    +0.000 A 
BRANCH  18  22
ATOM     22  O   UNL     1       5.114  -0.319  -5.023  0.00  0.00    +0.000 OA
ATOM     23  H   UNL     1       5.777   0.387  -5.091  0.00  0.00    +0.000 HD
ENDBRANCH  18  22
ENDBRANCH  14  15
ENDBRANCH   1  14
TORSDOF 5
