REMARK  Name = 
REMARK  4 active torsions:
REMARK  status: ('A' for Active; 'I' for Inactive)
REMARK    1  A    between atoms: C_2  and  C_4
REMARK    2  A    between atoms: N_8  and  C_9
REMARK    3  A    between atoms: C_9  and  C_10
REMARK    4  A    between atoms: C_14  and  C_15
REMARK                            x       y       z     vdW  Elec       q    Type
REMARK                         _______ _______ _______ _____ _____    ______ ____
ROOT
ATOM      1  C   UNL     1       7.801   1.421   1.347  0.00  0.00    +0.000 A 
ATOM      2  C   UNL     1       7.675   2.079   2.564  0.00  0.00    +0.000 A 
ATOM      3  C   UNL     1       6.849   3.200   2.648  0.00  0.00    +0.000 A 
ATOM      4  C   UNL     1       6.165   3.644   1.523  0.00  0.00    +0.000 A 
ATOM      5  N   UNL     1       5.289   4.691   1.530  0.00  0.00    +0.000 N 
ATOM      6  N   UNL     1       6.308   3.032   0.330  0.00  0.00    +0.000 NA
ATOM      7  C   UNL     1       7.123   1.946   0.259  0.00  0.00    +0.000 A 
ATOM      8  H   UNL     1       4.912   4.904   0.615  0.00  0.00    +0.000 HD
ENDROOT
BRANCH   1  10
ATOM      9  N   UNL     1       8.829  -0.567   2.285  0.00  0.00    +0.000 N 
ATOM     10  C   UNL     1       8.630   0.210   1.176  0.00  0.00    +0.000 C 
ATOM     11  O   UNL     1       9.090  -0.105   0.088  0.00  0.00    +0.000 OA
ATOM     12  H   UNL     1       9.320  -1.441   2.144  0.00  0.00    +0.000 HD
ATOM     13  H   UNL     1       8.274  -0.477   3.124  0.00  0.00    +0.000 HD
ENDBRANCH   1  10
BRANCH   5  14
ATOM     14  C   UNL     1       4.977   5.552   2.645  0.00  0.00    +0.000 C 
BRANCH  14  15
ATOM     15  C   UNL     1       5.965   6.677   2.799  0.00  0.00    +0.000 A 
ATOM     16  C   UNL     1       6.322   7.131   4.061  0.00  0.00    +0.000 A 
ATOM     17  N   UNL     1       7.156   8.169   4.282  0.00  0.00    +0.000 NA
ATOM     18  C   UNL     1       7.657   8.794   3.188  0.00  0.00    +0.000 A 
ATOM     19  C   UNL     1       7.371   8.452   1.865  0.00  0.00    +0.000 A 
ATOM     20  C   UNL     1       6.496   7.366   1.699  0.00  0.00    +0.000 A 
BRANCH  19  21
ATOM     21  C   UNL     1       7.934   9.181   0.718  0.00  0.00    +0.000 A 
ATOM     22  C   UNL     1       8.228   8.582  -0.500  0.00  0.00    +0.000 A 
ATOM     23  N   UNL     1       8.732   9.223  -1.578  0.00  0.00    +0.000 NA
ATOM     24  C   UNL     1       8.961  10.532  -1.421  0.00  0.00    +0.000 A 
ATOM     25  N   UNL     1       8.731  11.237  -0.305  0.00  0.00    +0.000 NA
ATOM     26  C   UNL     1       8.219  10.539   0.734  0.00  0.00    +0.000 A 
ENDBRANCH  19  21
ENDBRANCH  14  15
ENDBRANCH   5  14
TORSDOF 4
