REMARK  Name = 
REMARK  6 active torsions:
REMARK  status: ('A' for Active; 'I' for Inactive)
REMARK    1  A    between atoms: N_1  and  C_2
REMARK    2  A    between atoms: C_2  and  C_3
REMARK    3  A    between atoms: C_3  and  C_4
REMARK    4  A    between atoms: C_7  and  C_8
REMARK    5  A    between atoms: C_8  and  N_9
REMARK    6  A    between atoms: C_14  and  C_15
REMARK                            x       y       z     vdW  Elec       q    Type
REMARK                         _______ _______ _______ _____ _____    ______ ____
ROOT
ATOM      1  N   UNL     1       9.886  -0.699  -1.523  0.00  0.00    +0.000 N 
ATOM      2  C   UNL     1       9.765  -0.743  -2.887  0.00  0.00    +0.000 A 
ATOM      3  N   UNL     1      10.931  -0.658  -3.485  0.00  0.00    +0.000 NA
ATOM      4  C   UNL     1      11.846  -0.544  -2.472  0.00  0.00    +0.000 A 
ATOM      5  C   UNL     1      13.245  -0.580  -2.533  0.00  0.00    +0.000 A 
ATOM      6  C   UNL     1      13.984  -0.510  -1.341  0.00  0.00    +0.000 A 
ATOM      7  C   UNL     1      13.327  -0.271  -0.124  0.00  0.00    +0.000 A 
ATOM      8  C   UNL     1      11.924  -0.229  -0.047  0.00  0.00    +0.000 A 
ATOM      9  C   UNL     1      11.215  -0.441  -1.235  0.00  0.00    +0.000 A 
ENDROOT
BRANCH   6  10
ATOM     10  C   UNL     1      15.444  -0.806  -1.439  0.00  0.00    +0.000 C 
ATOM     11  N   UNL     1      16.214  -0.747  -0.312  0.00  0.00    +0.000 N 
ATOM     12  O   UNL     1      15.957  -1.154  -2.498  0.00  0.00    +0.000 OA
ATOM     13  H   UNL     1      15.901  -0.464   0.601  0.00  0.00    +0.000 HD
ATOM     14  H   UNL     1      17.181  -1.030  -0.419  0.00  0.00    +0.000 HD
ENDBRANCH   6  10
BRANCH   1  15
ATOM     15  C   UNL     1       8.941  -1.286  -0.576  0.00  0.00    +0.000 C 
BRANCH  15  19
ATOM     16  C   UNL     1       4.752  -0.393  -1.235  0.00  0.00    +0.000 A 
ATOM     17  C   UNL     1       5.344  -1.503  -1.846  0.00  0.00    +0.000 A 
ATOM     18  C   UNL     1       6.698  -1.787  -1.642  0.00  0.00    +0.000 A 
ATOM     19  C   UNL     1       7.489  -0.964  -0.823  0.00  0.00    +0.000 A 
ATOM     20  C   UNL     1       6.894   0.145  -0.206  0.00  0.00    +0.000 A 
ATOM     21  C   UNL     1       5.536   0.417  -0.403  0.00  0.00    +0.000 A 
BRANCH  16  22
ATOM     22  C   UNL     1       3.297  -0.060  -1.474  0.00  0.00    +0.000 C 
BRANCH  22  23
ATOM     23  C   UNL     1       2.361  -0.664  -0.420  0.00  0.00    +0.000 C 
BRANCH  23  24
ATOM     24  N   UNL     1       0.976  -0.257  -0.659  0.00  0.00    +0.000 NA
ATOM     25  H   UNL     1       0.372  -0.681   0.045  0.00  0.00    +0.000 HD
ATOM     26  H   UNL     1       0.660  -0.617  -1.559  0.00  0.00    +0.000 HD
ENDBRANCH  23  24
ENDBRANCH  22  23
ENDBRANCH  16  22
ENDBRANCH  15  19
ENDBRANCH   1  15
TORSDOF 6
