REMARK  Name = 
REMARK  7 active torsions:
REMARK  status: ('A' for Active; 'I' for Inactive)
REMARK    1  A    between atoms: C_1  and  C_2
REMARK    2  A    between atoms: C_2  and  N_3
REMARK    3  A    between atoms: C_2  and  C_16
REMARK    4  A    between atoms: C_4  and  C_6
REMARK    5  A    between atoms: C_19  and  C_20
REMARK    6  A    between atoms: C_20  and  N_21
REMARK    7  A    between atoms: C_22  and  C_24
REMARK                            x       y       z     vdW  Elec       q    Type
REMARK                         _______ _______ _______ _____ _____    ______ ____
ROOT
ATOM      1  C   UNL     1       0.842  -0.034   0.119  0.00  0.00    +0.000 C 
ATOM      2  C   UNL     1       2.370   0.063  -0.001  0.00  0.00    +0.000 C 
ENDROOT
BRANCH   2   3
ATOM      3  C   UNL     1       2.836   1.364   0.658  0.00  0.00    +0.000 A 
ATOM      4  C   UNL     1       2.426   2.599   0.151  0.00  0.00    +0.000 A 
ATOM      5  C   UNL     1       2.773   3.766   0.829  0.00  0.00    +0.000 A 
ATOM      6  C   UNL     1       3.525   3.688   2.000  0.00  0.00    +0.000 A 
ATOM      7  C   UNL     1       3.938   2.422   2.403  0.00  0.00    +0.000 A 
ATOM      8  N   UNL     1       3.611   1.271   1.766  0.00  0.00    +0.000 NA
BRANCH   6   9
ATOM      9  C   UNL     1       3.880   4.913   2.788  0.00  0.00    +0.000 C 
BRANCH   9  10
ATOM     10  N   UNL     1       5.136   5.481   2.364  0.00  0.00    +0.000 N 
ATOM     11  C   UNL     1       5.619   6.633   2.933  0.00  0.00    +0.000 C 
ATOM     12  O   UNL     1       4.999   7.257   3.789  0.00  0.00    +0.000 OA
ATOM     13  H   UNL     1       5.704   4.959   1.713  0.00  0.00    +0.000 HD
BRANCH  11  14
ATOM     14  C   UNL     1       6.915   7.056   2.465  0.00  0.00    +0.000 A 
ATOM     15  C   UNL     1       7.778   6.560   1.507  0.00  0.00    +0.000 A 
ATOM     16  N   UNL     1       8.922   7.311   1.424  0.00  0.00    +0.000 NA
ATOM     17  C   UNL     1       8.772   8.264   2.314  0.00  0.00    +0.000 A 
ATOM     18  N   UNL     1       7.576   8.158   2.960  0.00  0.00    +0.000 N 
ATOM     19  H   UNL     1       7.224   8.770   3.685  0.00  0.00    +0.000 HD
ENDBRANCH  11  14
ENDBRANCH   9  10
ENDBRANCH   6   9
ENDBRANCH   2   3
BRANCH   2  20
ATOM     20  N   UNL     1       2.833  -0.008  -1.385  0.00  0.00    +0.000 N 
ATOM     21  C   UNL     1       2.568  -1.077  -2.206  0.00  0.00    +0.000 C 
ATOM     22  O   UNL     1       1.874  -2.027  -1.861  0.00  0.00    +0.000 OA
ATOM     23  H   UNL     1       3.673   0.528  -1.587  0.00  0.00    +0.000 HD
BRANCH  21  24
ATOM     24  C   UNL     1       3.094  -0.990  -3.573  0.00  0.00    +0.000 A 
ATOM     25  C   UNL     1       2.428  -1.633  -4.608  0.00  0.00    +0.000 A 
ATOM     26  S   UNL     1       3.164  -1.422  -6.131  0.00  0.00    +0.000 S 
ATOM     27  C   UNL     1       4.424  -0.501  -5.454  0.00  0.00    +0.000 A 
ATOM     28  N   UNL     1       5.441  -0.031  -6.225  0.00  0.00    +0.000 NA
ATOM     29  C   UNL     1       6.349   0.616  -5.573  0.00  0.00    +0.000 A 
ATOM     30  N   UNL     1       6.322   0.853  -4.222  0.00  0.00    +0.000 N 
ATOM     31  C   UNL     1       5.286   0.449  -3.415  0.00  0.00    +0.000 A 
ATOM     32  O   UNL     1       5.236   0.757  -2.229  0.00  0.00    +0.000 OA
ATOM     33  C   UNL     1       4.264  -0.326  -4.091  0.00  0.00    +0.000 A 
ATOM     34  H   UNL     1       7.052   1.389  -3.778  0.00  0.00    +0.000 HD
ENDBRANCH  21  24
ENDBRANCH   2  20
TORSDOF 6
