REMARK  Name = 
REMARK  6 active torsions:
REMARK  status: ('A' for Active; 'I' for Inactive)
REMARK    1  A    between atoms: C_2  and  C_25
REMARK    2  A    between atoms: N_3  and  C_4
REMARK    3  A    between atoms: C_4  and  C_5
REMARK    4  A    between atoms: C_8  and  C_9
REMARK    5  A    between atoms: C_9  and  N_10
REMARK    6  A    between atoms: C_11  and  C_13
REMARK                            x       y       z     vdW  Elec       q    Type
REMARK                         _______ _______ _______ _____ _____    ______ ____
ROOT
ATOM      1  C   UNL     1       3.329   0.056  -3.618  0.00  0.00    +0.000 A 
ATOM      2  C   UNL     1       3.726   1.281  -4.159  0.00  0.00    +0.000 A 
ATOM      3  C   UNL     1       4.637   1.311  -5.212  0.00  0.00    +0.000 A 
ATOM      4  C   UNL     1       5.141   0.109  -5.699  0.00  0.00    +0.000 A 
ATOM      5  N   UNL     1       4.745  -1.095  -5.213  0.00  0.00    +0.000 NA
ATOM      6  C   UNL     1       3.853  -1.094  -4.196  0.00  0.00    +0.000 A 
ENDROOT
BRANCH   1   7
ATOM      7  C   UNL     1       2.387  -0.019  -2.458  0.00  0.00    +0.000 C 
BRANCH   7  10
ATOM      8  O   UNL     1       0.216  -0.186  -0.720  0.00  0.00    +0.000 OA
ATOM      9  C   UNL     1       0.003  -0.096  -1.923  0.00  0.00    +0.000 C 
ATOM     10  N   UNL     1       1.007  -0.012  -2.861  0.00  0.00    +0.000 N 
ATOM     11  H   UNL     1       0.738   0.108  -3.834  0.00  0.00    +0.000 HD
BRANCH   9  12
ATOM     12  C   UNL     1      -1.334  -0.064  -2.489  0.00  0.00    +0.000 A 
ATOM     13  C   UNL     1      -2.512  -0.099  -1.777  0.00  0.00    +0.000 A 
ATOM     14  O   UNL     1      -3.546  -0.065  -2.662  0.00  0.00    +0.000 OA
ATOM     15  C   UNL     1      -2.934  -0.009  -3.877  0.00  0.00    +0.000 A 
ATOM     16  N   UNL     1      -1.619  -0.001  -3.845  0.00  0.00    +0.000 NA
ENDBRANCH   9  12
ENDBRANCH   7  10
ENDBRANCH   1   7
BRANCH   4  17
ATOM     17  C   UNL     1       6.150   0.107  -6.822  0.00  0.00    +0.000 C 
BRANCH  17  18
ATOM     18  N   UNL     1       5.519   0.010  -8.117  0.00  0.00    +0.000 N 
ATOM     19  C   UNL     1       5.297   1.095  -8.920  0.00  0.00    +0.000 C 
ATOM     20  O   UNL     1       5.626   2.231  -8.590  0.00  0.00    +0.000 OA
ATOM     21  H   UNL     1       5.024  -0.859  -8.292  0.00  0.00    +0.000 HD
BRANCH  19  22
ATOM     22  C   UNL     1       4.712   0.816 -10.239  0.00  0.00    +0.000 A 
ATOM     23  C   UNL     1       4.896   1.718 -11.279  0.00  0.00    +0.000 A 
ATOM     24  S   UNL     1       4.216   1.204 -12.758  0.00  0.00    +0.000 S 
ATOM     25  C   UNL     1       3.610  -0.219 -12.049  0.00  0.00    +0.000 A 
ATOM     26  N   UNL     1       2.898  -1.117 -12.781  0.00  0.00    +0.000 NA
ATOM     27  C   UNL     1       2.470  -2.134 -12.109  0.00  0.00    +0.000 A 
ATOM     28  N   UNL     1       2.693  -2.335 -10.772  0.00  0.00    +0.000 N 
ATOM     29  C   UNL     1       3.444  -1.479 -10.005  0.00  0.00    +0.000 A 
ATOM     30  O   UNL     1       3.682  -1.726  -8.828  0.00  0.00    +0.000 OA
ATOM     31  C   UNL     1       3.933  -0.307 -10.707  0.00  0.00    +0.000 A 
ATOM     32  H   UNL     1       2.343  -3.158 -10.304  0.00  0.00    +0.000 HD
ENDBRANCH  19  22
ENDBRANCH  17  18
ENDBRANCH   4  17
TORSDOF 6
