REMARK  Name = 
REMARK  5 active torsions:
REMARK  status: ('A' for Active; 'I' for Inactive)
REMARK    1  A    between atoms: C_2  and  C_4
REMARK    2  A    between atoms: C_7  and  N_8
REMARK    3  A    between atoms: N_8  and  C_9
REMARK    4  A    between atoms: C_9  and  C_10
REMARK    5  A    between atoms: C_15  and  C_16
REMARK                            x       y       z     vdW  Elec       q    Type
REMARK                         _______ _______ _______ _____ _____    ______ ____
ROOT
ATOM      1  C   UNL     1       6.682   2.408  -4.344  0.00  0.00    +0.000 C 
ATOM      2  C   UNL     1       6.996   1.212  -5.227  0.00  0.00    +0.000 C 
ATOM      3  C   UNL     1       7.626   1.311  -3.878  0.00  0.00    +0.000 C 
ENDROOT
BRANCH   1   4
ATOM      4  C   UNL     1       7.297   3.778  -4.625  0.00  0.00    +0.000 A 
ATOM      5  C   UNL     1       7.258   4.346  -5.902  0.00  0.00    +0.000 A 
ATOM      6  C   UNL     1       7.739   5.632  -6.133  0.00  0.00    +0.000 A 
ATOM      7  C   UNL     1       8.292   6.389  -5.093  0.00  0.00    +0.000 A 
ATOM      8 CL   UNL     1       8.927   7.930  -5.569  0.00  0.00    +0.000 Cl
ATOM      9  C   UNL     1       8.353   5.884  -3.775  0.00  0.00    +0.000 A 
ATOM     10  C   UNL     1       7.850   4.567  -3.588  0.00  0.00    +0.000 A 
BRANCH   9  11
ATOM     11  C   UNL     1       8.883   6.638  -2.604  0.00  0.00    +0.000 A 
ATOM     12  C   UNL     1       8.658   8.009  -2.402  0.00  0.00    +0.000 A 
ATOM     13  C   UNL     1       9.199   8.681  -1.305  0.00  0.00    +0.000 A 
ATOM     14  C   UNL     1       9.924   7.955  -0.383  0.00  0.00    +0.000 A 
ATOM     15  N   UNL     1      10.144   6.630  -0.495  0.00  0.00    +0.000 NA
ATOM     16  C   UNL     1       9.633   6.017  -1.596  0.00  0.00    +0.000 A 
ENDBRANCH   9  11
ENDBRANCH   1   4
BRANCH   1  17
ATOM     17  N   UNL     1       5.341   2.496  -3.749  0.00  0.00    +0.000 N 
ATOM     18  H   UNL     1       5.229   2.332  -2.753  0.00  0.00    +0.000 HD
BRANCH  17  22
ATOM     19  C   UNL     1       1.848   3.100  -5.862  0.00  0.00    +0.000 A 
ATOM     20  N   UNL     1       2.948   2.803  -6.589  0.00  0.00    +0.000 NA
ATOM     21  C   UNL     1       4.077   2.621  -5.870  0.00  0.00    +0.000 A 
ATOM     22  C   UNL     1       4.170   2.684  -4.487  0.00  0.00    +0.000 A 
ATOM     23  C   UNL     1       2.974   3.046  -3.882  0.00  0.00    +0.000 A 
ATOM     24  N   UNL     1       1.806   3.247  -4.525  0.00  0.00    +0.000 NA
BRANCH  19  26
ATOM     25  N   UNL     1       0.646   3.013  -7.988  0.00  0.00    +0.000 N 
ATOM     26  C   UNL     1       0.552   3.231  -6.636  0.00  0.00    +0.000 C 
ATOM     27  O   UNL     1      -0.530   3.493  -6.120  0.00  0.00    +0.000 OA
ATOM     28  H   UNL     1      -0.197   3.065  -8.547  0.00  0.00    +0.000 HD
ATOM     29  H   UNL     1       1.539   2.770  -8.407  0.00  0.00    +0.000 HD
ENDBRANCH  19  26
ENDBRANCH  17  22
ENDBRANCH   1  17
TORSDOF 5
