REMARK  Name = 
REMARK  5 active torsions:
REMARK  status: ('A' for Active; 'I' for Inactive)
REMARK    1  A    between atoms: C_2  and  C_18
REMARK    2  A    between atoms: N_3  and  C_4
REMARK    3  A    between atoms: C_4  and  C_5
REMARK    4  A    between atoms: C_8  and  C_9
REMARK    5  A    between atoms: C_9  and  C_10
REMARK                            x       y       z     vdW  Elec       q    Type
REMARK                         _______ _______ _______ _____ _____    ______ ____
ROOT
ATOM      1  O   UNL     1       0.089  -0.244  -0.639  0.00  0.00    +0.000 OA
ATOM      2  C   UNL     1      -0.035  -0.831  -1.709  0.00  0.00    +0.000 C 
ATOM      3  N   UNL     1       0.984  -1.479  -2.365  0.00  0.00    +0.000 N 
ATOM      4  H   UNL     1       0.733  -2.086  -3.132  0.00  0.00    +0.000 HD
ENDROOT
BRANCH   2   5
ATOM      5  C   UNL     1      -1.326  -1.127  -2.318  0.00  0.00    +0.000 A 
ATOM      6  C   UNL     1      -2.438  -1.490  -1.579  0.00  0.00    +0.000 A 
ATOM      7  S   UNL     1      -3.600  -2.304  -2.547  0.00  0.00    +0.000 S 
ATOM      8  C   UNL     1      -2.679  -2.057  -3.962  0.00  0.00    +0.000 A 
ATOM      9  N   UNL     1      -2.990  -2.635  -5.152  0.00  0.00    +0.000 NA
ATOM     10  C   UNL     1      -2.202  -2.301  -6.124  0.00  0.00    +0.000 A 
ATOM     11  N   UNL     1      -1.171  -1.397  -6.030  0.00  0.00    +0.000 N 
ATOM     12  C   UNL     1      -0.837  -0.771  -4.855  0.00  0.00    +0.000 A 
ATOM     13  O   UNL     1       0.030   0.093  -4.797  0.00  0.00    +0.000 OA
ATOM     14  C   UNL     1      -1.603  -1.232  -3.718  0.00  0.00    +0.000 A 
ATOM     15  H   UNL     1      -0.648  -1.117  -6.847  0.00  0.00    +0.000 HD
ENDBRANCH   2   5
BRANCH   3  16
ATOM     16  C   UNL     1       2.259  -1.732  -1.754  0.00  0.00    +0.000 C 
BRANCH  16  17
ATOM     17  C   UNL     1       3.170  -2.423  -2.727  0.00  0.00    +0.000 A 
ATOM     18  C   UNL     1       4.011  -1.705  -3.577  0.00  0.00    +0.000 A 
ATOM     19  C   UNL     1       4.858  -2.384  -4.453  0.00  0.00    +0.000 A 
ATOM     20  C   UNL     1       4.837  -3.777  -4.465  0.00  0.00    +0.000 A 
ATOM     21  N   UNL     1       3.979  -4.494  -3.698  0.00  0.00    +0.000 NA
ATOM     22  C   UNL     1       3.173  -3.808  -2.853  0.00  0.00    +0.000 A 
BRANCH  20  23
ATOM     23  C   UNL     1       5.796  -4.558  -5.334  0.00  0.00    +0.000 C 
BRANCH  23  24
ATOM     24  C   UNL     1       5.301  -4.828  -6.721  0.00  0.00    +0.000 A 
ATOM     25  C   UNL     1       6.000  -4.440  -7.847  0.00  0.00    +0.000 A 
ATOM     26  N   UNL     1       5.594  -4.685  -9.107  0.00  0.00    +0.000 NA
ATOM     27  C   UNL     1       4.440  -5.359  -9.224  0.00  0.00    +0.000 A 
ATOM     28  N   UNL     1       3.677  -5.799  -8.213  0.00  0.00    +0.000 NA
ATOM     29  C   UNL     1       4.135  -5.526  -6.974  0.00  0.00    +0.000 A 
ENDBRANCH  23  24
ENDBRANCH  20  23
ENDBRANCH  16  17
ENDBRANCH   3  16
TORSDOF 5
