REMARK  Name = 
REMARK  9 active torsions:
REMARK  status: ('A' for Active; 'I' for Inactive)
REMARK    1  A    between atoms: C_1  and  C_2
REMARK    2  A    between atoms: C_2  and  C_3
REMARK    3  A    between atoms: C_2  and  C_26
REMARK    4  A    between atoms: C_3  and  N_4
REMARK    5  A    between atoms: N_4  and  C_5
REMARK    6  A    between atoms: C_5  and  C_6
REMARK    7  A    between atoms: C_10  and  C_11
REMARK    8  A    between atoms: C_11  and  N_12
REMARK    9  A    between atoms: C_13  and  C_15
REMARK                            x       y       z     vdW  Elec       q    Type
REMARK                         _______ _______ _______ _____ _____    ______ ____
ROOT
ATOM      1  C   UNL     1       2.578   4.814  -1.260  0.00  0.00    +0.000 A 
ATOM      2  C   UNL     1       2.830   6.168  -1.056  0.00  0.00    +0.000 A 
ATOM      3  N   UNL     1       2.478   7.152  -1.916  0.00  0.00    +0.000 NA
ATOM      4  C   UNL     1       1.848   6.771  -3.049  0.00  0.00    +0.000 A 
ATOM      5  C   UNL     1       1.540   5.455  -3.367  0.00  0.00    +0.000 A 
ATOM      6  C   UNL     1       1.891   4.472  -2.434  0.00  0.00    +0.000 A 
ENDROOT
BRANCH   1   7
ATOM      7  C   UNL     1       2.990   3.808  -0.209  0.00  0.00    +0.000 C 
BRANCH   7   8
ATOM      8  N   UNL     1       3.375   2.527  -0.788  0.00  0.00    +0.000 NA
ATOM      9  H   UNL     1       2.575   2.127  -1.297  0.00  0.00    +0.000 HD
BRANCH   8  10
ATOM     10  C   UNL     1       3.727   1.518   0.216  0.00  0.00    +0.000 C 
BRANCH  10  12
ATOM     11  C   UNL     1       5.116   0.189  -1.465  0.00  0.00    +0.000 C 
ATOM     12  C   UNL     1       3.986   0.128  -0.431  0.00  0.00    +0.000 C 
BRANCH  12  13
ATOM     13  C   UNL     1       2.729  -0.485  -1.040  0.00  0.00    +0.000 A 
ATOM     14  C   UNL     1       2.541  -1.866  -1.019  0.00  0.00    +0.000 A 
ATOM     15  C   UNL     1       1.385  -2.400  -1.586  0.00  0.00    +0.000 A 
ATOM     16  C   UNL     1       0.455  -1.551  -2.172  0.00  0.00    +0.000 A 
ATOM     17  C   UNL     1       0.721  -0.195  -2.172  0.00  0.00    +0.000 A 
ATOM     18  N   UNL     1       1.827   0.350  -1.622  0.00  0.00    +0.000 NA
ENDBRANCH  12  13
ENDBRANCH  10  12
ENDBRANCH   8  10
ENDBRANCH   7   8
ENDBRANCH   1   7
BRANCH   5  19
ATOM     19  C   UNL     1       0.839   5.111  -4.647  0.00  0.00    +0.000 C 
BRANCH  19  20
ATOM     20  N   UNL     1      -0.594   5.130  -4.492  0.00  0.00    +0.000 N 
ATOM     21  C   UNL     1      -1.424   4.778  -5.526  0.00  0.00    +0.000 C 
ATOM     22  O   UNL     1      -0.989   4.385  -6.605  0.00  0.00    +0.000 OA
ATOM     23  H   UNL     1      -0.970   5.663  -3.711  0.00  0.00    +0.000 HD
BRANCH  21  24
ATOM     24  C   UNL     1      -2.866   4.834  -5.257  0.00  0.00    +0.000 A 
ATOM     25  C   UNL     1      -3.736   4.042  -5.995  0.00  0.00    +0.000 A 
ATOM     26  S   UNL     1      -5.369   4.201  -5.529  0.00  0.00    +0.000 S 
ATOM     27  C   UNL     1      -4.978   5.375  -4.360  0.00  0.00    +0.000 A 
ATOM     28  N   UNL     1      -5.943   5.967  -3.613  0.00  0.00    +0.000 NA
ATOM     29  C   UNL     1      -5.511   6.861  -2.789  0.00  0.00    +0.000 A 
ATOM     30  N   UNL     1      -4.194   7.218  -2.645  0.00  0.00    +0.000 N 
ATOM     31  C   UNL     1      -3.179   6.621  -3.354  0.00  0.00    +0.000 A 
ATOM     32  O   UNL     1      -2.004   6.914  -3.160  0.00  0.00    +0.000 OA
ATOM     33  C   UNL     1      -3.617   5.622  -4.309  0.00  0.00    +0.000 A 
ATOM     34  H   UNL     1      -3.916   7.916  -1.970  0.00  0.00    +0.000 HD
ENDBRANCH  21  24
ENDBRANCH  19  20
ENDBRANCH   5  19
TORSDOF 8
