REMARK  Name = 
REMARK  7 active torsions:
REMARK  status: ('A' for Active; 'I' for Inactive)
REMARK    1  A    between atoms: C_2  and  C_4
REMARK    2  A    between atoms: N_8  and  C_9
REMARK    3  A    between atoms: C_9  and  C_10
REMARK    4  A    between atoms: C_10  and  C_13
REMARK    5  A    between atoms: C_17  and  C_18
REMARK    6  A    between atoms: C_19  and  C_20
REMARK    7  A    between atoms: C_22  and  O_23
REMARK                            x       y       z     vdW  Elec       q    Type
REMARK                         _______ _______ _______ _____ _____    ______ ____
ROOT
ATOM      1  C   UNL     1      -3.718   9.288  -1.541  0.00  0.00    +0.000 C 
ATOM      2  F   UNL     1      -4.643   9.919  -2.334  0.00  0.00    +0.000 F 
ATOM      3  F   UNL     1      -2.706  10.199  -1.400  0.00  0.00    +0.000 F 
ENDROOT
BRANCH   1   4
ATOM      4  C   UNL     1      -3.206   8.020  -2.210  0.00  0.00    +0.000 A 
ATOM      5  C   UNL     1      -3.349   6.745  -1.650  0.00  0.00    +0.000 A 
ATOM      6  C   UNL     1      -2.812   5.657  -2.314  0.00  0.00    +0.000 A 
ATOM      7  N   UNL     1      -2.160   5.746  -3.486  0.00  0.00    +0.000 NA
ATOM      8  C   UNL     1      -2.024   6.971  -4.043  0.00  0.00    +0.000 A 
ATOM      9  C   UNL     1      -2.534   8.120  -3.442  0.00  0.00    +0.000 A 
BRANCH   8  10
ATOM     10  C   UNL     1      -1.307   7.030  -5.327  0.00  0.00    +0.000 C 
ATOM     11  C   UNL     1      -0.756   5.951  -5.910  0.00  0.00    +0.000 C 
BRANCH  11  12
ATOM     12  C   UNL     1      -0.069   6.073  -7.222  0.00  0.00    +0.000 C 
ATOM     13  C   UNL     1       0.562   4.769  -7.772  0.00  0.00    +0.000 C 
ATOM     14  C   UNL     1      -0.680   4.574  -8.666  0.00  0.00    +0.000 C 
ATOM     15  C   UNL     1      -1.009   6.066  -8.451  0.00  0.00    +0.000 C 
BRANCH  14  16
ATOM     16  O   UNL     1      -0.436   4.165 -10.024  0.00  0.00    +0.000 OA
ATOM     17  H   UNL     1       0.190   4.815 -10.385  0.00  0.00    +0.000 HD
ENDBRANCH  14  16
ENDBRANCH  11  12
ENDBRANCH   8  10
ENDBRANCH   1   4
BRANCH   1  18
ATOM     18  C   UNL     1      -4.378   9.066  -0.152  0.00  0.00    +0.000 C 
BRANCH  18  23
ATOM     19  C   UNL     1      -6.804   9.784   4.134  0.00  0.00    +0.000 A 
ATOM     20  C   UNL     1      -6.602  11.067   3.635  0.00  0.00    +0.000 A 
ATOM     21  C   UNL     1      -5.917  11.228   2.429  0.00  0.00    +0.000 A 
ATOM     22  C   UNL     1      -5.458  10.109   1.734  0.00  0.00    +0.000 A 
ATOM     23  N   UNL     1      -4.724  10.315   0.556  0.00  0.00    +0.000 N 
ATOM     24  N   UNL     1      -5.633   8.862   2.223  0.00  0.00    +0.000 NA
ATOM     25  C   UNL     1      -6.287   8.723   3.406  0.00  0.00    +0.000 A 
ATOM     26  H   UNL     1      -5.180  10.992  -0.050  0.00  0.00    +0.000 HD
BRANCH  19  28
ATOM     27  N   UNL     1      -8.438  10.425   5.810  0.00  0.00    +0.000 N 
ATOM     28  C   UNL     1      -7.503   9.512   5.406  0.00  0.00    +0.000 C 
ATOM     29  O   UNL     1      -7.285   8.498   6.055  0.00  0.00    +0.000 OA
ATOM     30  H   UNL     1      -8.981  10.183   6.630  0.00  0.00    +0.000 HD
ATOM     31  H   UNL     1      -8.815  11.132   5.195  0.00  0.00    +0.000 HD
ENDBRANCH  19  28
ENDBRANCH  18  23
ENDBRANCH   1  18
TORSDOF 7
