REMARK  Name = 
REMARK  7 active torsions:
REMARK  status: ('A' for Active; 'I' for Inactive)
REMARK    1  A    between atoms: C_2  and  C_4
REMARK    2  A    between atoms: C_7  and  N_8
REMARK    3  A    between atoms: N_8  and  C_9
REMARK    4  A    between atoms: C_9  and  C_10
REMARK    5  A    between atoms: C_14  and  C_15
REMARK    6  A    between atoms: C_19  and  O_20
REMARK    7  A    between atoms: O_20  and  C_21
REMARK                            x       y       z     vdW  Elec       q    Type
REMARK                         _______ _______ _______ _____ _____    ______ ____
ROOT
ATOM      1  C   UNL     1       4.893  -2.156  -5.473  0.00  0.00    +0.000 C 
ATOM      2  C   UNL     1       3.878  -2.329  -4.344  0.00  0.00    +0.000 C 
ATOM      3  C   UNL     1       5.197  -1.703  -4.051  0.00  0.00    +0.000 C 
ENDROOT
BRANCH   1   4
ATOM      4  C   UNL     1       5.623  -3.409  -5.957  0.00  0.00    +0.000 A 
ATOM      5  C   UNL     1       7.004  -3.402  -6.208  0.00  0.00    +0.000 A 
ATOM      6  C   UNL     1       7.687  -4.577  -6.519  0.00  0.00    +0.000 A 
ATOM      7  C   UNL     1       7.000  -5.790  -6.573  0.00  0.00    +0.000 A 
ATOM      8  C   UNL     1       5.616  -5.851  -6.348  0.00  0.00    +0.000 A 
ATOM      9  C   UNL     1       4.950  -4.640  -6.086  0.00  0.00    +0.000 A 
BRANCH   8  10
ATOM     10  C   UNL     1       4.893  -7.137  -6.293  0.00  0.00    +0.000 A 
ATOM     11  C   UNL     1       5.462  -8.263  -5.689  0.00  0.00    +0.000 A 
ATOM     12  N   UNL     1       4.861  -9.470  -5.568  0.00  0.00    +0.000 NA
ATOM     13  C   UNL     1       3.608  -9.564  -6.058  0.00  0.00    +0.000 A 
ATOM     14  C   UNL     1       2.917  -8.513  -6.646  0.00  0.00    +0.000 A 
ATOM     15  C   UNL     1       3.584  -7.295  -6.785  0.00  0.00    +0.000 A 
BRANCH  14  16
ATOM     16  O   UNL     1       1.647  -8.786  -7.059  0.00  0.00    +0.000 OA
BRANCH  16  17
ATOM     17  C   UNL     1       0.755  -7.684  -7.066  0.00  0.00    +0.000 C 
ATOM     18  F   UNL     1       0.901  -7.013  -8.233  0.00  0.00    +0.000 F 
ATOM     19  F   UNL     1      -0.505  -8.187  -7.056  0.00  0.00    +0.000 F 
ENDBRANCH  16  17
ENDBRANCH  14  16
ENDBRANCH   8  10
ENDBRANCH   1   4
BRANCH   1  20
ATOM     20  N   UNL     1       4.529  -1.203  -6.531  0.00  0.00    +0.000 N 
ATOM     21  H   UNL     1       3.989  -1.562  -7.319  0.00  0.00    +0.000 HD
BRANCH  20  25
ATOM     22  C   UNL     1       7.166   1.519  -8.120  0.00  0.00    +0.000 A 
ATOM     23  C   UNL     1       6.159   0.953  -8.881  0.00  0.00    +0.000 A 
ATOM     24  N   UNL     1       5.279   0.047  -8.367  0.00  0.00    +0.000 NA
ATOM     25  C   UNL     1       5.438  -0.276  -7.065  0.00  0.00    +0.000 A 
ATOM     26  C   UNL     1       6.446   0.333  -6.310  0.00  0.00    +0.000 A 
ATOM     27  N   UNL     1       7.339   1.227  -6.803  0.00  0.00    +0.000 NA
BRANCH  22  29
ATOM     28  N   UNL     1       9.129   2.901  -7.887  0.00  0.00    +0.000 N 
ATOM     29  C   UNL     1       8.140   2.468  -8.729  0.00  0.00    +0.000 C 
ATOM     30  O   UNL     1       8.065   2.828  -9.896  0.00  0.00    +0.000 OA
ATOM     31  H   UNL     1       9.846   3.523  -8.231  0.00  0.00    +0.000 HD
ATOM     32  H   UNL     1       9.163   2.562  -6.929  0.00  0.00    +0.000 HD
ENDBRANCH  22  29
ENDBRANCH  20  25
ENDBRANCH   1  20
TORSDOF 7
