REMARK  Name = 
REMARK  8 active torsions:
REMARK  status: ('A' for Active; 'I' for Inactive)
REMARK    1  A    between atoms: C_1  and  O_2
REMARK    2  A    between atoms: O_2  and  C_3
REMARK    3  A    between atoms: C_7  and  N_8
REMARK    4  A    between atoms: N_8  and  C_9
REMARK    5  A    between atoms: C_9  and  C_10
REMARK    6  A    between atoms: C_14  and  C_15
REMARK    7  A    between atoms: C_19  and  O_20
REMARK    8  A    between atoms: O_20  and  C_21
REMARK                            x       y       z     vdW  Elec       q    Type
REMARK                         _______ _______ _______ _____ _____    ______ ____
ROOT
ATOM      1  C   UNL     1       2.201  -4.422  -5.195  0.00  0.00    +0.000 A 
ATOM      2  C   UNL     1       3.167  -5.421  -5.347  0.00  0.00    +0.000 A 
ATOM      3  C   UNL     1       3.038  -6.374  -6.356  0.00  0.00    +0.000 A 
ATOM      4  C   UNL     1       1.945  -6.335  -7.226  0.00  0.00    +0.000 A 
ATOM      5  C   UNL     1       0.954  -5.346  -7.112  0.00  0.00    +0.000 A 
ATOM      6  C   UNL     1       1.117  -4.385  -6.092  0.00  0.00    +0.000 A 
ENDROOT
BRANCH   5   7
ATOM      7  C   UNL     1      -0.232  -5.327  -7.997  0.00  0.00    +0.000 A 
ATOM      8  C   UNL     1      -0.862  -6.501  -8.422  0.00  0.00    +0.000 A 
ATOM      9  N   UNL     1      -1.970  -6.555  -9.200  0.00  0.00    +0.000 NA
ATOM     10  C   UNL     1      -2.498  -5.368  -9.572  0.00  0.00    +0.000 A 
ATOM     11  C   UNL     1      -1.973  -4.132  -9.218  0.00  0.00    +0.000 A 
ATOM     12  C   UNL     1      -0.819  -4.126  -8.433  0.00  0.00    +0.000 A 
BRANCH  11  13
ATOM     13  O   UNL     1      -2.649  -3.036  -9.672  0.00  0.00    +0.000 OA
ATOM     14  C   UNL     1      -2.147  -1.766  -9.273  0.00  0.00    +0.000 C 
ENDBRANCH  11  13
ENDBRANCH   5   7
BRANCH   1  15
ATOM     15  C   UNL     1       2.299  -3.412  -4.075  0.00  0.00    +0.000 C 
BRANCH  15  16
ATOM     16  N   UNL     1       3.052  -2.246  -4.506  0.00  0.00    +0.000 N 
ATOM     17  H   UNL     1       3.868  -2.473  -5.070  0.00  0.00    +0.000 HD
BRANCH  16  22
ATOM     18  C   UNL     1       2.809   0.134  -1.633  0.00  0.00    +0.000 A 
ATOM     19  C   UNL     1       3.633   1.127  -2.145  0.00  0.00    +0.000 A 
ATOM     20  N   UNL     1       4.283   1.035  -3.325  0.00  0.00    +0.000 NA
ATOM     21  C   UNL     1       4.075  -0.101  -4.033  0.00  0.00    +0.000 A 
ATOM     22  C   UNL     1       3.270  -1.176  -3.633  0.00  0.00    +0.000 A 
ATOM     23  C   UNL     1       2.611  -1.013  -2.407  0.00  0.00    +0.000 A 
BRANCH  18  25
ATOM     24  C   UNL     1       1.973  -0.744   0.387  0.00  0.00    +0.000 C 
ATOM     25  O   UNL     1       2.208   0.394  -0.436  0.00  0.00    +0.000 OA
ENDBRANCH  18  25
ENDBRANCH  16  22
ENDBRANCH  15  16
ENDBRANCH   1  15
TORSDOF 6
