REMARK  Name = 
REMARK  5 active torsions:
REMARK  status: ('A' for Active; 'I' for Inactive)
REMARK    1  A    between atoms: N_1  and  C_2
REMARK    2  A    between atoms: C_2  and  C_3
REMARK    3  A    between atoms: C_6  and  O_7
REMARK    4  A    between atoms: O_7  and  C_8
REMARK    5  A    between atoms: C_8  and  C_9
REMARK                            x       y       z     vdW  Elec       q    Type
REMARK                         _______ _______ _______ _____ _____    ______ ____
ROOT
ATOM      1  C   UNL     1       3.051   0.982  -0.985  0.00  0.00    +0.000 A 
ATOM      2  C   UNL     1       3.675   0.653  -2.189  0.00  0.00    +0.000 A 
ATOM      3  N   UNL     1       3.983   1.568  -3.145  0.00  0.00    +0.000 NA
ATOM      4  C   UNL     1       3.642   2.841  -2.843  0.00  0.00    +0.000 A 
ATOM      5  C   UNL     1       3.037   3.177  -1.641  0.00  0.00    +0.000 A 
ATOM      6  N   UNL     1       2.727   2.265  -0.687  0.00  0.00    +0.000 NA
ENDROOT
BRANCH   1   7
ATOM      7  C   UNL     1       2.683  -0.089   0.014  0.00  0.00    +0.000 C 
BRANCH   7   8
ATOM      8  N   UNL     1       3.834  -0.858   0.491  0.00  0.00    +0.000 NA
ATOM      9  H   UNL     1       3.519  -1.486   1.231  0.00  0.00    +0.000 HD
ATOM     10  H   UNL     1       4.485  -0.213   0.941  0.00  0.00    +0.000 HD
ENDBRANCH   7   8
ENDBRANCH   1   7
BRANCH   4  11
ATOM     11  O   UNL     1       3.881   3.869  -3.728  0.00  0.00    +0.000 OA
BRANCH  11  12
ATOM     12  C   UNL     1       4.452   3.457  -4.972  0.00  0.00    +0.000 C 
BRANCH  12  13
ATOM     13  C   UNL     1       4.585   4.707  -5.857  0.00  0.00    +0.000 C 
ATOM     14  C   UNL     1       3.216   5.352  -6.127  0.00  0.00    +0.000 C 
ATOM     15  C   UNL     1       3.333   6.497  -7.125  0.00  0.00    +0.000 C 
ATOM     16  O   UNL     1       3.952   6.053  -8.330  0.00  0.00    +0.000 OA
ATOM     17  C   UNL     1       5.283   5.591  -8.109  0.00  0.00    +0.000 C 
ATOM     18  C   UNL     1       5.287   4.384  -7.181  0.00  0.00    +0.000 C 
ENDBRANCH  12  13
ENDBRANCH  11  12
ENDBRANCH   4  11
TORSDOF 5
