REMARK  Name = 
REMARK  11 active torsions:
REMARK  status: ('A' for Active; 'I' for Inactive)
REMARK    1  A    between atoms: C_1  and  C_2
REMARK    2  A    between atoms: C_2  and  N_3
REMARK    3  A    between atoms: C_2  and  C_20
REMARK    4  A    between atoms: N_3  and  C_4
REMARK    5  A    between atoms: C_4  and  C_5
REMARK    6  A    between atoms: C_8  and  C_9
REMARK    7  A    between atoms: C_9  and  O_10
REMARK    8  A    between atoms: C_9  and  C_11
REMARK    9  A    between atoms: C_11  and  N_12
REMARK   10  A    between atoms: C_15  and  O_16
REMARK   11  A    between atoms: C_20  and  C_22
REMARK                            x       y       z     vdW  Elec       q    Type
REMARK                         _______ _______ _______ _____ _____    ______ ____
ROOT
ATOM      1  C   UNL     1       0.547   0.250   1.390  0.00  0.00    +0.000 C 
ENDROOT
BRANCH   1   2
ATOM      2  C   UNL     1      -0.947   0.344   1.462  0.00  0.00    +0.000 A 
ATOM      3  C   UNL     1      -1.661  -0.231   2.518  0.00  0.00    +0.000 A 
ATOM      4  C   UNL     1      -3.043  -0.049   2.613  0.00  0.00    +0.000 A 
ATOM      5  C   UNL     1      -3.731   0.700   1.647  0.00  0.00    +0.000 A 
ATOM      6  C   UNL     1      -3.003   1.271   0.593  0.00  0.00    +0.000 A 
ATOM      7  C   UNL     1      -1.631   1.086   0.494  0.00  0.00    +0.000 A 
BRANCH   5   8
ATOM      8  C   UNL     1      -5.225   0.912   1.783  0.00  0.00    +0.000 C 
BRANCH   8   9
ATOM      9  O   UNL     1      -5.442   2.104   2.551  0.00  0.00    +0.000 OA
ATOM     10  H   UNL     1      -4.705   2.708   2.349  0.00  0.00    +0.000 HD
ENDBRANCH   8   9
BRANCH   8  11
ATOM     11  C   UNL     1      -6.010   1.057   0.445  0.00  0.00    +0.000 C 
BRANCH  11  12
ATOM     12  N   UNL     1      -5.821  -0.026  -0.538  0.00  0.00    +0.000 NA
ATOM     13  C   UNL     1      -6.358  -1.316  -0.081  0.00  0.00    +0.000 C 
ATOM     14  C   UNL     1      -7.679  -1.559  -0.801  0.00  0.00    +0.000 C 
ATOM     15  C   UNL     1      -7.899  -0.332  -1.669  0.00  0.00    +0.000 C 
ATOM     16  C   UNL     1      -6.505   0.268  -1.805  0.00  0.00    +0.000 C 
BRANCH  15  17
ATOM     17  O   UNL     1      -8.471  -0.680  -2.920  0.00  0.00    +0.000 OA
ATOM     18  H   UNL     1      -7.878  -1.318  -3.354  0.00  0.00    +0.000 HD
ENDBRANCH  15  17
ENDBRANCH  11  12
ENDBRANCH   8  11
ENDBRANCH   5   8
ENDBRANCH   1   2
BRANCH   1  19
ATOM     19  N   UNL     1       1.015  -1.134   1.315  0.00  0.00    +0.000 NA
ATOM     20  H   UNL     1       0.637  -1.552   0.458  0.00  0.00    +0.000 HD
BRANCH  19  22
ATOM     21  C   UNL     1       2.979  -2.592   1.314  0.00  0.00    +0.000 C 
ATOM     22  C   UNL     1       2.492  -1.150   1.238  0.00  0.00    +0.000 C 
BRANCH  22  23
ATOM     23  C   UNL     1       2.983  -0.454  -0.065  0.00  0.00    +0.000 C 
ATOM     24  O   UNL     1       2.434  -0.662  -1.142  0.00  0.00    +0.000 OA
BRANCH  23  25
ATOM     25  C   UNL     1       4.129   0.465   0.040  0.00  0.00    +0.000 A 
ATOM     26  C   UNL     1       5.147   0.292   0.965  0.00  0.00    +0.000 A 
ATOM     27  S   UNL     1       6.424   1.406   0.777  0.00  0.00    +0.000 S 
ATOM     28  C   UNL     1       5.653   2.154  -0.542  0.00  0.00    +0.000 A 
ATOM     29  N   UNL     1       6.257   3.157  -1.231  0.00  0.00    +0.000 NA
ATOM     30  C   UNL     1       5.570   3.599  -2.232  0.00  0.00    +0.000 A 
ATOM     31  N   UNL     1       4.312   3.163  -2.574  0.00  0.00    +0.000 N 
ATOM     32  C   UNL     1       3.597   2.283  -1.790  0.00  0.00    +0.000 A 
ATOM     33  O   UNL     1       2.378   2.182  -1.890  0.00  0.00    +0.000 OA
ATOM     34  C   UNL     1       4.399   1.620  -0.777  0.00  0.00    +0.000 A 
ATOM     35  H   UNL     1       3.793   3.636  -3.298  0.00  0.00    +0.000 HD
ENDBRANCH  23  25
ENDBRANCH  22  23
ENDBRANCH  19  22
ENDBRANCH   1  19
TORSDOF 10
