REMARK  Name = 
REMARK  5 active torsions:
REMARK  status: ('A' for Active; 'I' for Inactive)
REMARK    1  A    between atoms: N_1  and  C_2
REMARK    2  A    between atoms: C_2  and  C_3
REMARK    3  A    between atoms: C_3  and  C_4
REMARK    4  A    between atoms: C_7  and  C_8
REMARK    5  A    between atoms: C_8  and  N_9
REMARK                            x       y       z     vdW  Elec       q    Type
REMARK                         _______ _______ _______ _____ _____    ______ ____
ROOT
ATOM      1  C   UNL     1       4.489   0.967   1.070  0.00  0.00    +0.000 A 
ATOM      2  C   UNL     1       5.144   2.197   1.222  0.00  0.00    +0.000 A 
ATOM      3  C   UNL     1       6.537   2.253   1.321  0.00  0.00    +0.000 A 
ATOM      4  C   UNL     1       7.306   1.082   1.257  0.00  0.00    +0.000 A 
ATOM      5  C   UNL     1       6.648  -0.143   1.078  0.00  0.00    +0.000 A 
ATOM      6  C   UNL     1       5.256  -0.199   0.980  0.00  0.00    +0.000 A 
ENDROOT
BRANCH   1   7
ATOM      7  C   UNL     1       2.981   0.896   1.036  0.00  0.00    +0.000 C 
BRANCH   7   8
ATOM      8  C   UNL     1       2.403   1.066  -0.372  0.00  0.00    +0.000 C 
BRANCH   8   9
ATOM      9  N   UNL     1       0.940   1.019  -0.341  0.00  0.00    +0.000 NA
ATOM     10  H   UNL     1       0.578   1.166  -1.282  0.00  0.00    +0.000 HD
ATOM     11  H   UNL     1       0.587   1.791   0.223  0.00  0.00    +0.000 HD
ENDBRANCH   8   9
ENDBRANCH   7   8
ENDBRANCH   1   7
BRANCH   4  12
ATOM     12  C   UNL     1       8.806   1.124   1.423  0.00  0.00    +0.000 C 
BRANCH  12  13
ATOM     13  N   UNL     1       9.195   0.976   2.820  0.00  0.00    +0.000 N 
ATOM     14  C   UNL     1       9.446   2.012   3.689  0.00  0.00    +0.000 A 
ATOM     15  C   UNL     1       9.759   1.468   4.918  0.00  0.00    +0.000 A 
ATOM     16  C   UNL     1       9.716   0.054   4.786  0.00  0.00    +0.000 A 
ATOM     17  C   UNL     1       9.915  -1.036   5.649  0.00  0.00    +0.000 A 
ATOM     18  C   UNL     1       9.782  -2.317   5.116  0.00  0.00    +0.000 A 
ATOM     19  C   UNL     1       9.476  -2.456   3.769  0.00  0.00    +0.000 A 
ATOM     20  N   UNL     1       9.277  -1.445   2.894  0.00  0.00    +0.000 NA
ATOM     21  C   UNL     1       9.394  -0.225   3.459  0.00  0.00    +0.000 A 
ENDBRANCH  12  13
ENDBRANCH   4  12
TORSDOF 5
