REMARK  Name = 
REMARK  6 active torsions:
REMARK  status: ('A' for Active; 'I' for Inactive)
REMARK    1  A    between atoms: C_1  and  C_2
REMARK    2  A    between atoms: C_2  and  C_3
REMARK    3  A    between atoms: C_2  and  C_4
REMARK    4  A    between atoms: C_2  and  C_15
REMARK    5  A    between atoms: C_5  and  C_6
REMARK    6  A    between atoms: C_9  and  C_10
REMARK                            x       y       z     vdW  Elec       q    Type
REMARK                         _______ _______ _______ _____ _____    ______ ____
ROOT
ATOM      1  C   UNL     1       3.043  -1.352   0.136  0.00  0.00    +0.000 C 
ATOM      2  C   UNL     1       3.354  -2.298  -0.770  0.00  0.00    +0.000 C 
ENDROOT
BRANCH   2   3
ATOM      3  C   UNL     1       3.843  -3.635  -0.392  0.00  0.00    +0.000 A 
ATOM      4  C   UNL     1       4.109  -4.598  -1.356  0.00  0.00    +0.000 A 
ATOM      5  C   UNL     1       4.571  -5.852  -0.947  0.00  0.00    +0.000 A 
ATOM      6  C   UNL     1       4.760  -6.119   0.412  0.00  0.00    +0.000 A 
ATOM      7  C   UNL     1       4.473  -5.096   1.299  0.00  0.00    +0.000 A 
ATOM      8  N   UNL     1       4.022  -3.872   0.931  0.00  0.00    +0.000 NA
BRANCH   6   9
ATOM      9  C   UNL     1       5.250  -7.453   0.833  0.00  0.00    +0.000 C 
ATOM     10  N   UNL     1       5.421  -7.711   2.165  0.00  0.00    +0.000 N 
ATOM     11  O   UNL     1       5.500  -8.322   0.005  0.00  0.00    +0.000 OA
ATOM     12  H   UNL     1       5.235  -7.078   2.927  0.00  0.00    +0.000 HD
ATOM     13  H   UNL     1       5.749  -8.639   2.404  0.00  0.00    +0.000 HD
ENDBRANCH   6   9
ENDBRANCH   2   3
BRANCH   1  15
ATOM     14  C   UNL     1       1.000   0.012   0.006  0.00  0.00    +0.000 C 
ATOM     15  C   UNL     1       2.540   0.067  -0.114  0.00  0.00    +0.000 C 
ATOM     16  C   UNL     1       3.053   0.957   1.046  0.00  0.00    +0.000 C 
BRANCH  15  17
ATOM     17  C   UNL     1       3.030   0.667  -1.439  0.00  0.00    +0.000 A 
ATOM     18  C   UNL     1       4.402   0.773  -1.724  0.00  0.00    +0.000 A 
ATOM     19  C   UNL     1       4.838   1.328  -2.925  0.00  0.00    +0.000 A 
ATOM     20  C   UNL     1       3.887   1.772  -3.823  0.00  0.00    +0.000 A 
ATOM     21  N   UNL     1       2.561   1.697  -3.601  0.00  0.00    +0.000 NA
ATOM     22  C   UNL     1       2.168   1.153  -2.423  0.00  0.00    +0.000 A 
ENDBRANCH  15  17
ENDBRANCH   1  15
TORSDOF 4
