REMARK  Name = 
REMARK  6 active torsions:
REMARK  status: ('A' for Active; 'I' for Inactive)
REMARK    1  A    between atoms: C_2  and  C_19
REMARK    2  A    between atoms: N_3  and  C_4
REMARK    3  A    between atoms: C_4  and  C_5
REMARK    4  A    between atoms: C_8  and  C_9
REMARK    5  A    between atoms: C_9  and  O_10
REMARK    6  A    between atoms: O_10  and  C_11
REMARK                            x       y       z     vdW  Elec       q    Type
REMARK                         _______ _______ _______ _____ _____    ______ ____
ROOT
ATOM      1  O   UNL     1       0.531  -0.532  -3.735  0.00  0.00    +0.000 OA
ATOM      2  C   UNL     1       0.412  -1.632  -4.268  0.00  0.00    +0.000 C 
ATOM      3  N   UNL     1       1.483  -2.441  -4.536  0.00  0.00    +0.000 N 
ATOM      4  H   UNL     1       1.347  -3.297  -5.064  0.00  0.00    +0.000 HD
ENDROOT
BRANCH   2   5
ATOM      5  C   UNL     1      -0.899  -2.182  -4.619  0.00  0.00    +0.000 A 
ATOM      6  C   UNL     1      -2.041  -1.712  -3.981  0.00  0.00    +0.000 A 
ATOM      7  S   UNL     1      -3.471  -2.481  -4.499  0.00  0.00    +0.000 S 
ATOM      8  C   UNL     1      -2.622  -3.436  -5.620  0.00  0.00    +0.000 A 
ATOM      9  N   UNL     1      -3.273  -4.319  -6.424  0.00  0.00    +0.000 NA
ATOM     10  C   UNL     1      -2.511  -4.945  -7.258  0.00  0.00    +0.000 A 
ATOM     11  N   UNL     1      -1.156  -4.771  -7.359  0.00  0.00    +0.000 N 
ATOM     12  C   UNL     1      -0.447  -3.935  -6.533  0.00  0.00    +0.000 A 
ATOM     13  O   UNL     1       0.777  -3.882  -6.589  0.00  0.00    +0.000 OA
ATOM     14  C   UNL     1      -1.261  -3.184  -5.593  0.00  0.00    +0.000 A 
ATOM     15  H   UNL     1      -0.614  -5.307  -8.021  0.00  0.00    +0.000 HD
ENDBRANCH   2   5
BRANCH   3  16
ATOM     16  C   UNL     1       2.846  -2.039  -4.314  0.00  0.00    +0.000 C 
BRANCH  16  17
ATOM     17  C   UNL     1       3.320  -2.320  -2.877  0.00  0.00    +0.000 C 
ATOM     18  C   UNL     1       3.267  -3.816  -2.514  0.00  0.00    +0.000 C 
ATOM     19  C   UNL     1       4.324  -4.639  -3.250  0.00  0.00    +0.000 C 
ATOM     20  C   UNL     1       5.744  -4.082  -3.048  0.00  0.00    +0.000 C 
ATOM     21  C   UNL     1       5.801  -2.592  -3.415  0.00  0.00    +0.000 C 
ATOM     22  C   UNL     1       4.740  -1.765  -2.683  0.00  0.00    +0.000 C 
BRANCH  20  23
ATOM     23  C   UNL     1       6.262  -4.306  -1.617  0.00  0.00    +0.000 C 
BRANCH  23  24
ATOM     24  O   UNL     1       6.269  -5.705  -1.337  0.00  0.00    +0.000 OA
BRANCH  24  25
ATOM     25  C   UNL     1       6.638  -6.073  -0.073  0.00  0.00    +0.000 A 
ATOM     26  C   UNL     1       7.068  -5.214   0.940  0.00  0.00    +0.000 A 
ATOM     27  C   UNL     1       7.429  -5.726   2.189  0.00  0.00    +0.000 A 
ATOM     28  C   UNL     1       7.359  -7.097   2.431  0.00  0.00    +0.000 A 
ATOM     29  C   UNL     1       6.925  -7.958   1.425  0.00  0.00    +0.000 A 
ATOM     30  C   UNL     1       6.567  -7.445   0.178  0.00  0.00    +0.000 A 
ENDBRANCH  24  25
ENDBRANCH  23  24
ENDBRANCH  20  23
ENDBRANCH  16  17
ENDBRANCH   3  16
TORSDOF 6
