REMARK  Name = 
REMARK  8 active torsions:
REMARK  status: ('A' for Active; 'I' for Inactive)
REMARK    1  A    between atoms: C_2  and  C_3
REMARK    2  A    between atoms: C_3  and  N_4
REMARK    3  A    between atoms: C_3  and  C_26
REMARK    4  A    between atoms: N_4  and  C_5
REMARK    5  A    between atoms: C_5  and  C_6
REMARK    6  A    between atoms: C_9  and  C_10
REMARK    7  A    between atoms: C_10  and  N_11
REMARK    8  A    between atoms: C_12  and  C_14
REMARK                            x       y       z     vdW  Elec       q    Type
REMARK                         _______ _______ _______ _____ _____    ______ ____
ROOT
ATOM      1  C   UNL     1       0.267  -1.197   0.454  0.00  0.00    +0.000 A 
ATOM      2  C   UNL     1      -0.378  -2.427   0.354  0.00  0.00    +0.000 A 
ATOM      3  C   UNL     1      -1.772  -2.459   0.331  0.00  0.00    +0.000 A 
ATOM      4  C   UNL     1      -2.497  -1.269   0.414  0.00  0.00    +0.000 A 
ATOM      5  C   UNL     1      -1.771  -0.093   0.546  0.00  0.00    +0.000 A 
ATOM      6  N   UNL     1      -0.418  -0.032   0.547  0.00  0.00    +0.000 NA
ENDROOT
BRANCH   1   7
ATOM      7  C   UNL     1       1.782  -1.109   0.442  0.00  0.00    +0.000 C 
BRANCH   7   8
ATOM      8  N   UNL     1       2.440  -1.579  -0.792  0.00  0.00    +0.000 NA
ATOM      9  H   UNL     1       2.194  -2.553  -0.954  0.00  0.00    +0.000 HD
BRANCH   8  10
ATOM     10  C   UNL     1       2.049  -0.805  -2.000  0.00  0.00    +0.000 C 
BRANCH  10  11
ATOM     11  C   UNL     1       2.729  -1.363  -3.256  0.00  0.00    +0.000 A 
ATOM     12  C   UNL     1       2.082  -1.242  -4.500  0.00  0.00    +0.000 A 
ATOM     13  C   UNL     1       2.673  -1.729  -5.668  0.00  0.00    +0.000 A 
ATOM     14  C   UNL     1       3.921  -2.344  -5.614  0.00  0.00    +0.000 A 
ATOM     15  C   UNL     1       4.591  -2.448  -4.398  0.00  0.00    +0.000 A 
ATOM     16  C   UNL     1       4.007  -1.949  -3.228  0.00  0.00    +0.000 A 
ENDBRANCH  10  11
BRANCH  10  18
ATOM     17  N   UNL     1       2.480   1.803  -1.828  0.00  0.00    +0.000 NA
ATOM     18  C   UNL     1       2.305   0.657  -1.905  0.00  0.00    +0.000 C 
ENDBRANCH  10  18
ENDBRANCH   8  10
ENDBRANCH   7   8
ENDBRANCH   1   7
BRANCH   4  19
ATOM     19  C   UNL     1      -3.996  -1.252   0.377  0.00  0.00    +0.000 C 
BRANCH  19  20
ATOM     20  N   UNL     1      -4.573  -1.409   1.687  0.00  0.00    +0.000 N 
ATOM     21  C   UNL     1      -5.933  -1.524   1.836  0.00  0.00    +0.000 C 
ATOM     22  O   UNL     1      -6.687  -1.554   0.866  0.00  0.00    +0.000 OA
ATOM     23  H   UNL     1      -4.003  -1.165   2.492  0.00  0.00    +0.000 HD
BRANCH  21  24
ATOM     24  C   UNL     1      -6.445  -1.669   3.203  0.00  0.00    +0.000 A 
ATOM     25  C   UNL     1      -7.686  -2.257   3.409  0.00  0.00    +0.000 A 
ATOM     26  S   UNL     1      -8.126  -2.370   5.052  0.00  0.00    +0.000 S 
ATOM     27  C   UNL     1      -6.694  -1.596   5.545  0.00  0.00    +0.000 A 
ATOM     28  N   UNL     1      -6.455  -1.342   6.859  0.00  0.00    +0.000 NA
ATOM     29  C   UNL     1      -5.345  -0.723   7.089  0.00  0.00    +0.000 A 
ATOM     30  N   UNL     1      -4.447  -0.345   6.124  0.00  0.00    +0.000 N 
ATOM     31  C   UNL     1      -4.630  -0.612   4.788  0.00  0.00    +0.000 A 
ATOM     32  O   UNL     1      -3.781  -0.317   3.953  0.00  0.00    +0.000 OA
ATOM     33  C   UNL     1      -5.877  -1.282   4.473  0.00  0.00    +0.000 A 
ATOM     34  H   UNL     1      -3.588   0.123   6.374  0.00  0.00    +0.000 HD
ENDBRANCH  21  24
ENDBRANCH  19  20
ENDBRANCH   4  19
TORSDOF 8
