REMARK  Name = 
REMARK  6 active torsions:
REMARK  status: ('A' for Active; 'I' for Inactive)
REMARK    1  A    between atoms: C_2  and  C_4
REMARK    2  A    between atoms: N_8  and  C_9
REMARK    3  A    between atoms: C_9  and  C_10
REMARK    4  A    between atoms: C_10  and  C_13
REMARK    5  A    between atoms: C_18  and  O_19
REMARK    6  A    between atoms: O_19  and  C_20
REMARK                            x       y       z     vdW  Elec       q    Type
REMARK                         _______ _______ _______ _____ _____    ______ ____
ROOT
ATOM      1  C   UNL     1       6.529  -6.585   1.929  0.00  0.00    +0.000 C 
ATOM      2  F   UNL     1       7.743  -6.123   1.501  0.00  0.00    +0.000 F 
ATOM      3  F   UNL     1       6.553  -6.447   3.289  0.00  0.00    +0.000 F 
ENDROOT
BRANCH   1   4
ATOM      4  C   UNL     1       6.307  -8.035   1.533  0.00  0.00    +0.000 A 
ATOM      5  C   UNL     1       6.845  -8.545   0.344  0.00  0.00    +0.000 A 
ATOM      6  C   UNL     1       6.653  -9.884   0.014  0.00  0.00    +0.000 A 
ATOM      7  F   UNL     1       7.173 -10.359  -1.125  0.00  0.00    +0.000 F 
ATOM      8  C   UNL     1       5.940 -10.736   0.848  0.00  0.00    +0.000 A 
ATOM      9  C   UNL     1       5.410 -10.246   2.041  0.00  0.00    +0.000 A 
ATOM     10  C   UNL     1       5.574  -8.899   2.372  0.00  0.00    +0.000 A 
BRANCH   9  11
ATOM     11  O   UNL     1       4.728 -11.158   2.809  0.00  0.00    +0.000 OA
BRANCH  11  12
ATOM     12  C   UNL     1       4.638 -10.931   4.237  0.00  0.00    +0.000 C 
ATOM     13  C   UNL     1       5.940 -10.997   5.063  0.00  0.00    +0.000 C 
ATOM     14  N   UNL     1       5.317 -11.946   5.997  0.00  0.00    +0.000 NA
ATOM     15  C   UNL     1       4.190 -12.147   5.074  0.00  0.00    +0.000 C 
ATOM     16  H   UNL     1       5.056 -11.539   6.894  0.00  0.00    +0.000 HD
ENDBRANCH  11  12
ENDBRANCH   9  11
ENDBRANCH   1   4
BRANCH   1  17
ATOM     17  C   UNL     1       5.427  -5.653   1.351  0.00  0.00    +0.000 C 
BRANCH  17  22
ATOM     18  C   UNL     1       3.019  -1.185   0.686  0.00  0.00    +0.000 A 
ATOM     19  C   UNL     1       2.499  -2.474   0.721  0.00  0.00    +0.000 A 
ATOM     20  C   UNL     1       3.334  -3.533   1.083  0.00  0.00    +0.000 A 
ATOM     21  C   UNL     1       4.671  -3.293   1.388  0.00  0.00    +0.000 A 
ATOM     22  N   UNL     1       5.532  -4.272   1.842  0.00  0.00    +0.000 N 
ATOM     23  N   UNL     1       5.189  -2.050   1.328  0.00  0.00    +0.000 NA
ATOM     24  C   UNL     1       4.362  -1.027   0.976  0.00  0.00    +0.000 A 
ATOM     25  H   UNL     1       6.473  -3.883   1.875  0.00  0.00    +0.000 HD
BRANCH  18  27
ATOM     26  N   UNL     1       0.861  -0.067   0.623  0.00  0.00    +0.000 N 
ATOM     27  C   UNL     1       2.202   0.004   0.357  0.00  0.00    +0.000 C 
ATOM     28  O   UNL     1       2.705   1.021  -0.097  0.00  0.00    +0.000 OA
ATOM     29  H   UNL     1       0.335   0.791   0.499  0.00  0.00    +0.000 HD
ATOM     30  H   UNL     1       0.462  -0.770   1.228  0.00  0.00    +0.000 HD
ENDBRANCH  18  27
ENDBRANCH  17  22
ENDBRANCH   1  17
TORSDOF 6
