REMARK  Name = 
REMARK  9 active torsions:
REMARK  status: ('A' for Active; 'I' for Inactive)
REMARK    1  A    between atoms: C_1  and  O_2
REMARK    2  A    between atoms: O_2  and  C_3
REMARK    3  A    between atoms: C_3  and  C_4
REMARK    4  A    between atoms: C_4  and  N_5
REMARK    5  A    between atoms: N_5  and  C_6
REMARK    6  A    between atoms: C_6  and  C_7
REMARK    7  A    between atoms: C_10  and  C_11
REMARK    8  A    between atoms: C_11  and  C_12
REMARK    9  A    between atoms: C_20  and  C_22
REMARK                            x       y       z     vdW  Elec       q    Type
REMARK                         _______ _______ _______ _____ _____    ______ ____
ROOT
ATOM      1  N   UNL     1       4.839   1.786  -2.167  0.00  0.00    +0.000 N 
ATOM      2  C   UNL     1       6.208   2.084  -2.366  0.00  0.00    +0.000 C 
ATOM      3  O   UNL     1       7.067   1.622  -1.617  0.00  0.00    +0.000 OA
ENDROOT
BRANCH   2   4
ATOM      4  C   UNL     1       6.631   3.000  -3.443  0.00  0.00    +0.000 A 
ATOM      5  C   UNL     1       6.041   4.216  -3.754  0.00  0.00    +0.000 A 
ATOM      6  S   UNL     1       6.830   5.072  -5.005  0.00  0.00    +0.000 S 
ATOM      7  C   UNL     1       8.089   3.932  -5.053  0.00  0.00    +0.000 A 
ATOM      8  N   UNL     1       9.186   4.132  -5.833  0.00  0.00    +0.000 NA
ATOM      9  C   UNL     1      10.094   3.224  -5.707  0.00  0.00    +0.000 A 
ATOM     10  N   UNL     1       9.984   2.113  -4.910  0.00  0.00    +0.000 N 
ATOM     11  C   UNL     1       8.833   1.795  -4.224  0.00  0.00    +0.000 A 
ATOM     12  O   UNL     1       8.675   0.682  -3.737  0.00  0.00    +0.000 OA
ATOM     13  C   UNL     1       7.844   2.858  -4.221  0.00  0.00    +0.000 A 
ATOM     14  H   UNL     1      10.701   1.404  -4.914  0.00  0.00    +0.000 HD
ENDBRANCH   2   4
BRANCH   1  15
ATOM     15  C   UNL     1       4.514   0.957  -0.992  0.00  0.00    +0.000 C 
BRANCH  15  16
ATOM     16  C   UNL     1       4.807   1.643   0.355  0.00  0.00    +0.000 C 
BRANCH  16  18
ATOM     17  C   UNL     1       4.920   1.318   2.684  0.00  0.00    +0.000 C 
ATOM     18  O   UNL     1       4.551   0.740   1.436  0.00  0.00    +0.000 OA
ENDBRANCH  16  18
ENDBRANCH  15  16
ENDBRANCH   1  15
BRANCH   1  19
ATOM     19  C   UNL     1       3.795   2.311  -3.041  0.00  0.00    +0.000 C 
BRANCH  19  20
ATOM     20  C   UNL     1       2.369   1.843  -2.981  0.00  0.00    +0.000 A 
ATOM     21  C   UNL     1       1.391   2.611  -2.336  0.00  0.00    +0.000 A 
ATOM     22  C   UNL     1       0.041   2.350  -2.559  0.00  0.00    +0.000 A 
ATOM     23  C   UNL     1      -0.311   1.301  -3.404  0.00  0.00    +0.000 A 
ATOM     24  N   UNL     1       0.621   0.489  -3.971  0.00  0.00    +0.000 NA
ATOM     25  C   UNL     1       1.926   0.775  -3.750  0.00  0.00    +0.000 A 
BRANCH  23  26
ATOM     26  C   UNL     1      -1.754   1.104  -3.818  0.00  0.00    +0.000 C 
BRANCH  26  27
ATOM     27  C   UNL     1      -2.141   1.944  -5.019  0.00  0.00    +0.000 A 
ATOM     28  C   UNL     1      -1.517   1.745  -6.251  0.00  0.00    +0.000 A 
ATOM     29  C   UNL     1      -1.835   2.582  -7.317  0.00  0.00    +0.000 A 
ATOM     30  C   UNL     1      -2.787   3.576  -7.139  0.00  0.00    +0.000 A 
ATOM     31  C   UNL     1      -3.392   3.684  -5.898  0.00  0.00    +0.000 A 
ATOM     32  N   UNL     1      -3.087   2.901  -4.837  0.00  0.00    +0.000 NA
ENDBRANCH  26  27
ENDBRANCH  23  26
ENDBRANCH  19  20
ENDBRANCH   1  19
TORSDOF 8
