REMARK  Name = 
REMARK  7 active torsions:
REMARK  status: ('A' for Active; 'I' for Inactive)
REMARK    1  A    between atoms: C_2  and  C_19
REMARK    2  A    between atoms: N_3  and  C_4
REMARK    3  A    between atoms: C_4  and  C_5
REMARK    4  A    between atoms: C_8  and  C_9
REMARK    5  A    between atoms: C_9  and  C_10
REMARK    6  A    between atoms: C_10  and  N_11
REMARK    7  A    between atoms: N_11  and  C_12
REMARK                            x       y       z     vdW  Elec       q    Type
REMARK                         _______ _______ _______ _____ _____    ______ ____
ROOT
ATOM      1  C   UNL     1      12.540 -10.463  -2.473  0.00  0.00    +0.000 C 
ENDROOT
BRANCH   1   2
ATOM      2  C   UNL     1      12.136  -9.544  -3.588  0.00  0.00    +0.000 A 
ATOM      3  C   UNL     1      11.193  -8.532  -3.403  0.00  0.00    +0.000 A 
ATOM      4  C   UNL     1      10.829  -7.717  -4.475  0.00  0.00    +0.000 A 
ATOM      5  C   UNL     1      11.428  -7.924  -5.714  0.00  0.00    +0.000 A 
ATOM      6  N   UNL     1      12.379  -8.869  -5.905  0.00  0.00    +0.000 NA
ATOM      7  C   UNL     1      12.710  -9.649  -4.849  0.00  0.00    +0.000 A 
BRANCH   5   8
ATOM      8  C   UNL     1      11.056  -7.072  -6.904  0.00  0.00    +0.000 C 
BRANCH   8   9
ATOM      9  C   UNL     1      11.956  -5.835  -6.997  0.00  0.00    +0.000 C 
BRANCH   9  10
ATOM     10  N   UNL     1      11.623  -5.012  -8.170  0.00  0.00    +0.000 NA
ATOM     11  H   UNL     1      10.645  -4.728  -8.128  0.00  0.00    +0.000 HD
BRANCH  10  12
ATOM     12  C   UNL     1      12.474  -3.822  -8.277  0.00  0.00    +0.000 C 
ATOM     13  C   UNL     1      13.963  -4.116  -8.413  0.00  0.00    +0.000 C 
ATOM     14  C   UNL     1      14.485  -2.867  -9.089  0.00  0.00    +0.000 C 
ATOM     15  N   UNL     1      13.472  -2.549 -10.102  0.00  0.00    +0.000 NA
ATOM     16  C   UNL     1      12.177  -2.966  -9.526  0.00  0.00    +0.000 C 
ATOM     17  H   UNL     1      13.647  -3.145 -10.914  0.00  0.00    +0.000 HD
ENDBRANCH  10  12
ENDBRANCH   9  10
ENDBRANCH   8   9
ENDBRANCH   5   8
ENDBRANCH   1   2
BRANCH   1  20
ATOM     18  O   UNL     1      13.598 -11.597  -0.162  0.00  0.00    +0.000 OA
ATOM     19  C   UNL     1      14.107 -10.566  -0.594  0.00  0.00    +0.000 C 
ATOM     20  N   UNL     1      13.599  -9.897  -1.679  0.00  0.00    +0.000 N 
ATOM     21  H   UNL     1      14.174  -9.193  -2.131  0.00  0.00    +0.000 HD
BRANCH  19  22
ATOM     22  C   UNL     1      15.274  -9.954   0.051  0.00  0.00    +0.000 A 
ATOM     23  C   UNL     1      15.538 -10.191   1.393  0.00  0.00    +0.000 A 
ATOM     24  S   UNL     1      16.915  -9.364   1.970  0.00  0.00    +0.000 S 
ATOM     25  C   UNL     1      17.230  -8.700   0.436  0.00  0.00    +0.000 A 
ATOM     26  N   UNL     1      18.303  -7.890   0.226  0.00  0.00    +0.000 NA
ATOM     27  C   UNL     1      18.438  -7.487  -0.994  0.00  0.00    +0.000 A 
ATOM     28  N   UNL     1      17.596  -7.817  -2.023  0.00  0.00    +0.000 N 
ATOM     29  C   UNL     1      16.482  -8.603  -1.851  0.00  0.00    +0.000 A 
ATOM     30  O   UNL     1      15.718  -8.832  -2.781  0.00  0.00    +0.000 OA
ATOM     31  C   UNL     1      16.291  -9.092  -0.499  0.00  0.00    +0.000 A 
ATOM     32  H   UNL     1      17.748  -7.461  -2.954  0.00  0.00    +0.000 HD
ENDBRANCH  19  22
ENDBRANCH   1  20
TORSDOF 7
