REMARK  Name = 
REMARK  6 active torsions:
REMARK  status: ('A' for Active; 'I' for Inactive)
REMARK    1  A    between atoms: C_1  and  C_2
REMARK    2  A    between atoms: C_2  and  N_3
REMARK    3  A    between atoms: C_2  and  C_18
REMARK    4  A    between atoms: C_7  and  N_8
REMARK    5  A    between atoms: N_8  and  C_9
REMARK    6  A    between atoms: C_9  and  C_10
REMARK                            x       y       z     vdW  Elec       q    Type
REMARK                         _______ _______ _______ _____ _____    ______ ____
ROOT
ATOM      1  N   UNL     1       2.739   1.378  -0.352  0.00  0.00    +0.000 N 
ATOM      2  C   UNL     1       2.561   1.863  -1.660  0.00  0.00    +0.000 A 
ATOM      3  C   UNL     1       1.261   2.036  -2.119  0.00  0.00    +0.000 A 
ATOM      4  C   UNL     1       1.050   2.483  -3.424  0.00  0.00    +0.000 A 
ATOM      5  C   UNL     1       2.130   2.766  -4.254  0.00  0.00    +0.000 A 
ATOM      6  C   UNL     1       3.389   2.637  -3.673  0.00  0.00    +0.000 A 
ATOM      7  N   UNL     1       3.624   2.193  -2.413  0.00  0.00    +0.000 NA
ATOM      8  H   UNL     1       2.616   2.185   0.259  0.00  0.00    +0.000 HD
ENDROOT
BRANCH   1  10
ATOM      9  C   UNL     1       4.179  -0.568  -0.875  0.00  0.00    +0.000 C 
ATOM     10  C   UNL     1       4.065   0.753  -0.108  0.00  0.00    +0.000 C 
BRANCH  10  11
ATOM     11  C   UNL     1       4.206   0.442   1.395  0.00  0.00    +0.000 C 
ATOM     12  N   UNL     1       3.036   0.162   2.047  0.00  0.00    +0.000 N 
ATOM     13  O   UNL     1       5.282   0.390   1.987  0.00  0.00    +0.000 OA
ATOM     14  H   UNL     1       2.155   0.230   1.555  0.00  0.00    +0.000 HD
ATOM     15  H   UNL     1       3.058  -0.066   3.031  0.00  0.00    +0.000 HD
ENDBRANCH  10  11
ENDBRANCH   1  10
BRANCH   5  16
ATOM     16  N   UNL     1       1.875   3.172  -5.566  0.00  0.00    +0.000 N 
ATOM     17  H   UNL     1       1.463   4.104  -5.580  0.00  0.00    +0.000 HD
BRANCH  16  18
ATOM     18  C   UNL     1       2.933   3.026  -6.556  0.00  0.00    +0.000 C 
BRANCH  18  19
ATOM     19  C   UNL     1       2.329   3.018  -7.939  0.00  0.00    +0.000 A 
ATOM     20  C   UNL     1       2.746   3.919  -8.920  0.00  0.00    +0.000 A 
ATOM     21  C   UNL     1       2.186   3.829 -10.186  0.00  0.00    +0.000 A 
ATOM     22  N   UNL     1       1.256   2.914 -10.536  0.00  0.00    +0.000 NA
ATOM     23  C   UNL     1       0.866   2.051  -9.575  0.00  0.00    +0.000 A 
ATOM     24  C   UNL     1       1.366   2.061  -8.284  0.00  0.00    +0.000 A 
ENDBRANCH  18  19
ENDBRANCH  16  18
ENDBRANCH   5  16
TORSDOF 5
