REMARK  Name = 
REMARK  7 active torsions:
REMARK  status: ('A' for Active; 'I' for Inactive)
REMARK    1  A    between atoms: C_1  and  C_2
REMARK    2  A    between atoms: C_7  and  C_8
REMARK    3  A    between atoms: C_13  and  C_14
REMARK    4  A    between atoms: C_14  and  C_15
REMARK    5  A    between atoms: C_15  and  N_16
REMARK    6  A    between atoms: C_20  and  C_21
REMARK    7  A    between atoms: C_21  and  O_23
REMARK                            x       y       z     vdW  Elec       q    Type
REMARK                         _______ _______ _______ _____ _____    ______ ____
ROOT
ATOM      1  C   UNL     1       0.891  -2.610   0.083  0.00  0.00    +0.000 A 
ATOM      2  C   UNL     1       1.684  -2.960   1.181  0.00  0.00    +0.000 A 
ATOM      3  C   UNL     1       2.330  -4.196   1.199  0.00  0.00    +0.000 A 
ATOM      4  C   UNL     1       2.153  -5.065   0.134  0.00  0.00    +0.000 A 
ATOM      5  F   UNL     1       2.763  -6.257   0.142  0.00  0.00    +0.000 F 
ATOM      6  C   UNL     1       1.345  -4.682  -0.926  0.00  0.00    +0.000 A 
ATOM      7  N   UNL     1       0.730  -3.470  -0.957  0.00  0.00    +0.000 NA
ENDROOT
BRANCH   1  14
ATOM      8  C   UNL     1      -1.770  -2.195  -1.367  0.00  0.00    +0.000 C 
ATOM      9  C   UNL     1      -0.985  -1.078  -0.737  0.00  0.00    +0.000 A 
ATOM     10  N   UNL     1      -1.563   0.152  -0.882  0.00  0.00    +0.000 NA
ATOM     11  C   UNL     1      -0.948   1.214  -0.331  0.00  0.00    +0.000 A 
ATOM     12  C   UNL     1       0.226   1.121   0.382  0.00  0.00    +0.000 A 
ATOM     13  C   UNL     1       0.812  -0.136   0.519  0.00  0.00    +0.000 A 
ATOM     14  C   UNL     1       0.226  -1.289  -0.046  0.00  0.00    +0.000 A 
ENDBRANCH   1  14
BRANCH   6  15
ATOM     15  C   UNL     1       1.084  -5.614  -2.083  0.00  0.00    +0.000 C 
BRANCH  15  16
ATOM     16  C   UNL     1      -0.122  -6.517  -1.808  0.00  0.00    +0.000 C 
BRANCH  16  17
ATOM     17  N   UNL     1      -0.385  -7.413  -2.950  0.00  0.00    +0.000 N 
ATOM     18  C   UNL     1      -1.474  -8.282  -2.731  0.00  0.00    +0.000 A 
ATOM     19  C   UNL     1      -1.822  -9.192  -3.731  0.00  0.00    +0.000 A 
ATOM     20  C   UNL     1      -2.890 -10.075  -3.528  0.00  0.00    +0.000 A 
ATOM     21  C   UNL     1      -3.593 -10.022  -2.327  0.00  0.00    +0.000 A 
ATOM     22  C   UNL     1      -3.187  -9.088  -1.388  0.00  0.00    +0.000 A 
ATOM     23  N   UNL     1      -2.162  -8.222  -1.576  0.00  0.00    +0.000 NA
ATOM     24  H   UNL     1       0.429  -7.969  -3.194  0.00  0.00    +0.000 HD
BRANCH  21  25
ATOM     25  C   UNL     1      -4.704 -10.928  -1.963  0.00  0.00    +0.000 C 
ATOM     26  O   UNL     1      -4.958 -11.218  -0.806  0.00  0.00    +0.000 OA
BRANCH  25  27
ATOM     27  O   UNL     1      -5.420 -11.387  -3.008  0.00  0.00    +0.000 OA
ATOM     28  H   UNL     1      -5.251 -10.954  -3.865  0.00  0.00    +0.000 HD
ENDBRANCH  25  27
ENDBRANCH  21  25
ENDBRANCH  16  17
ENDBRANCH  15  16
ENDBRANCH   6  15
TORSDOF 6
