REMARK  Name = 
REMARK  5 active torsions:
REMARK  status: ('A' for Active; 'I' for Inactive)
REMARK    1  A    between atoms: C_1  and  C_2
REMARK    2  A    between atoms: C_2  and  O_3
REMARK    3  A    between atoms: C_2  and  C_11
REMARK    4  A    between atoms: O_3  and  C_4
REMARK    5  A    between atoms: C_15  and  C_16
REMARK                            x       y       z     vdW  Elec       q    Type
REMARK                         _______ _______ _______ _____ _____    ______ ____
ROOT
ATOM      1  C   UNL     1       2.871   1.053  -1.088  0.00  0.00    +0.000 A 
ATOM      2  C   UNL     1       2.020   1.214  -2.171  0.00  0.00    +0.000 A 
ATOM      3  C   UNL     1       2.422   2.087  -3.158  0.00  0.00    +0.000 A 
ATOM      4  N   UNL     1       3.580   2.766  -3.124  0.00  0.00    +0.000 NA
ATOM      5  C   UNL     1       4.349   2.538  -2.034  0.00  0.00    +0.000 A 
ATOM      6  N   UNL     1       4.052   1.711  -1.010  0.00  0.00    +0.000 NA
ENDROOT
BRANCH   5   7
ATOM      7  C   UNL     1       5.657   3.295  -1.970  0.00  0.00    +0.000 C 
ATOM      8  N   UNL     1       5.905   4.146  -3.024  0.00  0.00    +0.000 N 
ATOM      9  O   UNL     1       6.466   3.186  -1.055  0.00  0.00    +0.000 OA
ATOM     10  H   UNL     1       5.228   4.239  -3.773  0.00  0.00    +0.000 HD
ATOM     11  H   UNL     1       6.758   4.686  -3.031  0.00  0.00    +0.000 HD
ENDBRANCH   5   7
BRANCH   1  13
ATOM     12  C   UNL     1       2.992  -1.313  -0.282  0.00  0.00    +0.000 C 
ATOM     13  C   UNL     1       2.531   0.106   0.053  0.00  0.00    +0.000 C 
BRANCH  13  14
ATOM     14  O   UNL     1       1.116   0.030   0.289  0.00  0.00    +0.000 OA
BRANCH  14  15
ATOM     15  C   UNL     1       0.519   0.977   1.073  0.00  0.00    +0.000 A 
ATOM     16  C   UNL     1       1.159   2.009   1.764  0.00  0.00    +0.000 A 
ATOM     17  C   UNL     1       0.408   2.915   2.521  0.00  0.00    +0.000 A 
ATOM     18  C   UNL     1      -0.975   2.790   2.578  0.00  0.00    +0.000 A 
ATOM     19  F   UNL     1      -1.689   3.670   3.290  0.00  0.00    +0.000 F 
ATOM     20  C   UNL     1      -1.624   1.765   1.904  0.00  0.00    +0.000 A 
ATOM     21  C   UNL     1      -0.874   0.857   1.156  0.00  0.00    +0.000 A 
ENDBRANCH  14  15
ENDBRANCH  13  14
ENDBRANCH   1  13
TORSDOF 4
