REMARK  Name = 
REMARK  9 active torsions:
REMARK  status: ('A' for Active; 'I' for Inactive)
REMARK    1  A    between atoms: C_1  and  C_2
REMARK    2  A    between atoms: C_2  and  C_3
REMARK    3  A    between atoms: C_2  and  C_4
REMARK    4  A    between atoms: C_2  and  C_15
REMARK    5  A    between atoms: C_4  and  N_5
REMARK    6  A    between atoms: N_5  and  C_6
REMARK    7  A    between atoms: C_10  and  C_11
REMARK    8  A    between atoms: C_19  and  O_20
REMARK    9  A    between atoms: O_20  and  C_21
REMARK                            x       y       z     vdW  Elec       q    Type
REMARK                         _______ _______ _______ _____ _____    ______ ____
ROOT
ATOM      1  C   UNL     1       1.118  -0.003   0.046  0.00  0.00    +0.000 C 
ATOM      2  C   UNL     1       2.663  -0.026   0.051  0.00  0.00    +0.000 C 
ATOM      3  C   UNL     1       3.151  -0.117   1.516  0.00  0.00    +0.000 C 
ENDROOT
BRANCH   2   4
ATOM      4  C   UNL     1       3.180   1.237  -0.667  0.00  0.00    +0.000 A 
ATOM      5  C   UNL     1       3.969   2.208  -0.053  0.00  0.00    +0.000 A 
ATOM      6  N   UNL     1       4.458   3.309  -0.674  0.00  0.00    +0.000 NA
ATOM      7  C   UNL     1       4.173   3.445  -1.990  0.00  0.00    +0.000 A 
ATOM      8  C   UNL     1       3.420   2.537  -2.718  0.00  0.00    +0.000 A 
ATOM      9  C   UNL     1       2.889   1.450  -2.030  0.00  0.00    +0.000 A 
BRANCH   8  10
ATOM     10  O   UNL     1       3.242   2.776  -4.057  0.00  0.00    +0.000 OA
BRANCH  10  11
ATOM     11  C   UNL     1       2.964   1.645  -4.920  0.00  0.00    +0.000 C 
ATOM     12  C   UNL     1       4.090   0.596  -5.089  0.00  0.00    +0.000 C 
ATOM     13  C   UNL     1       3.875   0.628  -6.606  0.00  0.00    +0.000 C 
ATOM     14  C   UNL     1       3.063   1.919  -6.440  0.00  0.00    +0.000 C 
ENDBRANCH  10  11
ENDBRANCH   8  10
ENDBRANCH   2   4
BRANCH   2  15
ATOM     15  C   UNL     1       3.190  -1.281  -0.717  0.00  0.00    +0.000 C 
BRANCH  15  16
ATOM     16  N   UNL     1       2.720  -2.548  -0.134  0.00  0.00    +0.000 N 
ATOM     17  H   UNL     1       1.717  -2.560   0.033  0.00  0.00    +0.000 HD
BRANCH  16  18
ATOM     18  C   UNL     1       3.118  -3.730  -0.778  0.00  0.00    +0.000 A 
ATOM     19  C   UNL     1       2.334  -4.884  -0.705  0.00  0.00    +0.000 A 
ATOM     20  N   UNL     1       2.658  -6.078  -1.255  0.00  0.00    +0.000 NA
ATOM     21  C   UNL     1       3.856  -6.144  -1.887  0.00  0.00    +0.000 A 
ATOM     22  C   UNL     1       4.741  -5.083  -1.984  0.00  0.00    +0.000 A 
ATOM     23  C   UNL     1       4.359  -3.869  -1.408  0.00  0.00    +0.000 A 
BRANCH  22  24
ATOM     24  C   UNL     1       6.061  -5.155  -2.657  0.00  0.00    +0.000 C 
ATOM     25  N   UNL     1       6.456  -6.340  -3.207  0.00  0.00    +0.000 N 
ATOM     26  O   UNL     1       6.791  -4.178  -2.732  0.00  0.00    +0.000 OA
ATOM     27  H   UNL     1       5.937  -7.203  -3.195  0.00  0.00    +0.000 HD
ATOM     28  H   UNL     1       7.367  -6.352  -3.649  0.00  0.00    +0.000 HD
ENDBRANCH  22  24
ENDBRANCH  16  18
ENDBRANCH  15  16
ENDBRANCH   2  15
TORSDOF 7
