REMARK  Name = 
REMARK  8 active torsions:
REMARK  status: ('A' for Active; 'I' for Inactive)
REMARK    1  A    between atoms: C_2  and  C_4
REMARK    2  A    between atoms: N_9  and  C_10
REMARK    3  A    between atoms: C_10  and  N_12
REMARK    4  A    between atoms: N_12  and  C_13
REMARK    5  A    between atoms: C_13  and  C_14
REMARK    6  A    between atoms: C_17  and  C_18
REMARK    7  A    between atoms: C_18  and  N_19
REMARK    8  A    between atoms: C_20  and  C_22
REMARK                            x       y       z     vdW  Elec       q    Type
REMARK                         _______ _______ _______ _____ _____    ______ ____
ROOT
ATOM      1  C   UNL     1      -0.361   5.662  -0.991  0.00  0.00    +0.000 A 
ATOM      2  C   UNL     1      -1.381   6.040  -0.106  0.00  0.00    +0.000 A 
ATOM      3  C   UNL     1      -1.719   7.387   0.061  0.00  0.00    +0.000 A 
ATOM      4  C   UNL     1      -1.052   8.381  -0.666  0.00  0.00    +0.000 A 
ATOM      5  C   UNL     1      -0.015   8.008  -1.529  0.00  0.00    +0.000 A 
ATOM      6  C   UNL     1       0.326   6.663  -1.690  0.00  0.00    +0.000 A 
ENDROOT
BRANCH   1   7
ATOM      7  C   UNL     1      -0.004   4.206  -1.174  0.00  0.00    +0.000 C 
BRANCH   7   8
ATOM      8  N   UNL     1      -0.237   3.756  -2.539  0.00  0.00    +0.000 N 
ATOM      9  H   UNL     1      -0.131   4.466  -3.259  0.00  0.00    +0.000 HD
BRANCH   8  10
ATOM     10  C   UNL     1      -0.452   2.467  -2.979  0.00  0.00    +0.000 C 
ATOM     11  S   UNL     1      -0.544   1.137  -1.960  0.00  0.00    +0.000 S 
BRANCH  10  17
ATOM     12  C   UNL     1       0.435   2.681  -5.302  0.00  0.00    +0.000 C 
ATOM     13  C   UNL     1      -0.107   3.083  -6.691  0.00  0.00    +0.000 C 
ATOM     14  C   UNL     1      -1.123   2.089  -7.242  0.00  0.00    +0.000 C 
ATOM     15  C   UNL     1      -2.219   1.812  -6.222  0.00  0.00    +0.000 C 
ATOM     16  C   UNL     1      -1.626   1.414  -4.878  0.00  0.00    +0.000 C 
ATOM     17  N   UNL     1      -0.699   2.439  -4.371  0.00  0.00    +0.000 N 
BRANCH  12  19
ATOM     18  N   UNL     1       2.770   3.431  -5.060  0.00  0.00    +0.000 N 
ATOM     19  C   UNL     1       1.453   3.781  -4.934  0.00  0.00    +0.000 C 
ATOM     20  O   UNL     1       1.146   4.920  -4.592  0.00  0.00    +0.000 OA
ATOM     21  H   UNL     1       3.463   4.117  -4.787  0.00  0.00    +0.000 HD
ATOM     22  H   UNL     1       3.080   2.487  -5.247  0.00  0.00    +0.000 HD
ENDBRANCH  12  19
ENDBRANCH  10  17
ENDBRANCH   8  10
ENDBRANCH   7   8
ENDBRANCH   1   7
BRANCH   4  23
ATOM     23  C   UNL     1      -1.419   9.832  -0.512  0.00  0.00    +0.000 C 
BRANCH  23  24
ATOM     24  N   UNL     1      -0.667  10.460   0.545  0.00  0.00    +0.000 N 
ATOM     25  C   UNL     1       0.475  11.180   0.308  0.00  0.00    +0.000 C 
ATOM     26  O   UNL     1       0.920  11.355  -0.824  0.00  0.00    +0.000 OA
ATOM     27  H   UNL     1      -0.886  10.166   1.491  0.00  0.00    +0.000 HD
BRANCH  25  28
ATOM     28  C   UNL     1       1.108  11.804   1.480  0.00  0.00    +0.000 A 
ATOM     29  C   UNL     1       1.954  12.889   1.296  0.00  0.00    +0.000 A 
ATOM     30  S   UNL     1       2.572  13.527   2.750  0.00  0.00    +0.000 S 
ATOM     31  C   UNL     1       1.770  12.344   3.672  0.00  0.00    +0.000 A 
ATOM     32  N   UNL     1       1.903  12.304   5.025  0.00  0.00    +0.000 NA
ATOM     33  C   UNL     1       1.271  11.338   5.596  0.00  0.00    +0.000 A 
ATOM     34  N   UNL     1       0.501  10.411   4.940  0.00  0.00    +0.000 N 
ATOM     35  C   UNL     1       0.286  10.449   3.583  0.00  0.00    +0.000 A 
ATOM     36  O   UNL     1      -0.494   9.669   3.045  0.00  0.00    +0.000 OA
ATOM     37  C   UNL     1       1.015  11.493   2.886  0.00  0.00    +0.000 A 
ATOM     38  H   UNL     1       0.013   9.692   5.451  0.00  0.00    +0.000 HD
ENDBRANCH  25  28
ENDBRANCH  23  24
ENDBRANCH   4  23
TORSDOF 8
