REMARK  Name = 
REMARK  7 active torsions:
REMARK  status: ('A' for Active; 'I' for Inactive)
REMARK    1  A    between atoms: C_1  and  C_2
REMARK    2  A    between atoms: C_2  and  N_3
REMARK    3  A    between atoms: N_3  and  C_4
REMARK    4  A    between atoms: C_4  and  C_5
REMARK    5  A    between atoms: C_8  and  C_9
REMARK    6  A    between atoms: C_9  and  C_10
REMARK    7  A    between atoms: C_17  and  C_19
REMARK                            x       y       z     vdW  Elec       q    Type
REMARK                         _______ _______ _______ _____ _____    ______ ____
ROOT
ATOM      1  N   UNL     1       3.047   0.933  -1.085  0.00  0.00    +0.000 N 
ATOM      2  C   UNL     1       4.430   0.932  -1.365  0.00  0.00    +0.000 C 
ATOM      3  O   UNL     1       5.239   0.439  -0.582  0.00  0.00    +0.000 OA
ENDROOT
BRANCH   2   4
ATOM      4  C   UNL     1       4.925   1.576  -2.597  0.00  0.00    +0.000 A 
ATOM      5  C   UNL     1       4.570   2.843  -3.033  0.00  0.00    +0.000 A 
ATOM      6  S   UNL     1       5.380   3.337  -4.454  0.00  0.00    +0.000 S 
ATOM      7  C   UNL     1       6.358   1.949  -4.434  0.00  0.00    +0.000 A 
ATOM      8  N   UNL     1       7.379   1.802  -5.313  0.00  0.00    +0.000 NA
ATOM      9  C   UNL     1       8.081   0.730  -5.133  0.00  0.00    +0.000 A 
ATOM     10  N   UNL     1       7.812  -0.230  -4.191  0.00  0.00    +0.000 N 
ATOM     11  C   UNL     1       6.704  -0.190  -3.372  0.00  0.00    +0.000 A 
ATOM     12  O   UNL     1       6.358  -1.170  -2.720  0.00  0.00    +0.000 OA
ATOM     13  C   UNL     1       5.977   1.063  -3.440  0.00  0.00    +0.000 A 
ATOM     14  H   UNL     1       8.352  -1.083  -4.153  0.00  0.00    +0.000 HD
ENDBRANCH   2   4
BRANCH   1  16
ATOM     15  C   UNL     1       2.580  -1.097   0.271  0.00  0.00    +0.000 C 
ATOM     16  C   UNL     1       2.628   0.424   0.225  0.00  0.00    +0.000 C 
ENDBRANCH   1  16
BRANCH   1  17
ATOM     17  C   UNL     1       2.072   1.503  -2.005  0.00  0.00    +0.000 C 
BRANCH  17  18
ATOM     18  C   UNL     1       0.601   1.299  -1.809  0.00  0.00    +0.000 A 
ATOM     19  C   UNL     1      -0.171   2.277  -1.176  0.00  0.00    +0.000 A 
ATOM     20  C   UNL     1      -1.557   2.215  -1.252  0.00  0.00    +0.000 A 
ATOM     21  C   UNL     1      -2.148   1.181  -1.970  0.00  0.00    +0.000 A 
ATOM     22  N   UNL     1      -1.418   0.171  -2.511  0.00  0.00    +0.000 NA
ATOM     23  C   UNL     1      -0.071   0.248  -2.416  0.00  0.00    +0.000 A 
BRANCH  21  24
ATOM     24  C   UNL     1      -3.640   1.148  -2.195  0.00  0.00    +0.000 C 
BRANCH  24  25
ATOM     25  C   UNL     1      -4.244   2.302  -3.023  0.00  0.00    +0.000 C 
ATOM     26  C   UNL     1      -3.666   2.472  -4.421  0.00  0.00    +0.000 C 
ATOM     27  C   UNL     1      -4.138   3.863  -4.809  0.00  0.00    +0.000 C 
ATOM     28  C   UNL     1      -4.204   4.626  -3.496  0.00  0.00    +0.000 C 
ATOM     29  N   UNL     1      -4.094   3.638  -2.421  0.00  0.00    +0.000 NA
ATOM     30  H   UNL     1      -4.806   3.795  -1.710  0.00  0.00    +0.000 HD
ENDBRANCH  24  25
ENDBRANCH  21  24
ENDBRANCH  17  18
ENDBRANCH   1  17
TORSDOF 6
