REMARK  Name = 
REMARK  9 active torsions:
REMARK  status: ('A' for Active; 'I' for Inactive)
REMARK    1  A    between atoms: C_1  and  C_2
REMARK    2  A    between atoms: C_2  and  C_3
REMARK    3  A    between atoms: C_3  and  N_4
REMARK    4  A    between atoms: C_3  and  C_26
REMARK    5  A    between atoms: N_4  and  C_5
REMARK    6  A    between atoms: C_5  and  C_6
REMARK    7  A    between atoms: C_9  and  C_10
REMARK    8  A    between atoms: C_10  and  N_11
REMARK    9  A    between atoms: C_12  and  C_14
REMARK                            x       y       z     vdW  Elec       q    Type
REMARK                         _______ _______ _______ _____ _____    ______ ____
ROOT
ATOM      1  C   UNL     1       0.696  -2.007   3.436  0.00  0.00    +0.000 A 
ATOM      2  C   UNL     1       1.032  -3.296   3.008  0.00  0.00    +0.000 A 
ATOM      3  C   UNL     1       0.729  -4.391   3.810  0.00  0.00    +0.000 A 
ATOM      4  C   UNL     1       0.113  -4.170   5.036  0.00  0.00    +0.000 A 
ATOM      5  N   UNL     1      -0.262  -2.935   5.458  0.00  0.00    +0.000 NA
ATOM      6  C   UNL     1       0.034  -1.892   4.653  0.00  0.00    +0.000 A 
ENDROOT
BRANCH   1   7
ATOM      7  C   UNL     1       1.063  -0.798   2.621  0.00  0.00    +0.000 C 
BRANCH   7   8
ATOM      8  N   UNL     1       2.109  -0.022   3.276  0.00  0.00    +0.000 NA
ATOM      9  H   UNL     1       1.752   0.273   4.189  0.00  0.00    +0.000 HD
BRANCH   8  10
ATOM     10  C   UNL     1       2.507   1.219   2.578  0.00  0.00    +0.000 C 
BRANCH  10  11
ATOM     11  C   UNL     1       3.386   2.057   3.532  0.00  0.00    +0.000 A 
ATOM     12  C   UNL     1       4.608   1.552   3.988  0.00  0.00    +0.000 A 
ATOM     13  C   UNL     1       5.392   2.324   4.839  0.00  0.00    +0.000 A 
ATOM     14  C   UNL     1       4.935   3.573   5.232  0.00  0.00    +0.000 A 
ATOM     15  C   UNL     1       3.704   3.996   4.753  0.00  0.00    +0.000 A 
ATOM     16  N   UNL     1       2.922   3.273   3.918  0.00  0.00    +0.000 NA
ENDBRANCH  10  11
BRANCH  10  18
ATOM     17  C   UNL     1       2.561   0.389   0.093  0.00  0.00    +0.000 C 
ATOM     18  C   UNL     1       3.291   1.049   1.252  0.00  0.00    +0.000 C 
ENDBRANCH  10  18
ENDBRANCH   8  10
ENDBRANCH   7   8
ENDBRANCH   1   7
BRANCH   4  19
ATOM     19  C   UNL     1      -0.159  -5.324   5.966  0.00  0.00    +0.000 C 
BRANCH  19  20
ATOM     20  N   UNL     1      -1.460  -5.910   5.749  0.00  0.00    +0.000 N 
ATOM     21  C   UNL     1      -1.635  -7.032   4.986  0.00  0.00    +0.000 C 
ATOM     22  O   UNL     1      -0.695  -7.595   4.430  0.00  0.00    +0.000 OA
ATOM     23  H   UNL     1      -2.255  -5.323   5.984  0.00  0.00    +0.000 HD
BRANCH  21  24
ATOM     24  C   UNL     1      -2.995  -7.581   4.931  0.00  0.00    +0.000 A 
ATOM     25  C   UNL     1      -3.174  -8.922   4.619  0.00  0.00    +0.000 A 
ATOM     26  S   UNL     1      -4.803  -9.422   4.654  0.00  0.00    +0.000 S 
ATOM     27  C   UNL     1      -5.332  -7.851   5.036  0.00  0.00    +0.000 A 
ATOM     28  N   UNL     1      -6.657  -7.578   5.185  0.00  0.00    +0.000 NA
ATOM     29  C   UNL     1      -6.921  -6.339   5.445  0.00  0.00    +0.000 A 
ATOM     30  N   UNL     1      -5.975  -5.351   5.577  0.00  0.00    +0.000 N 
ATOM     31  C   UNL     1      -4.629  -5.592   5.485  0.00  0.00    +0.000 A 
ATOM     32  O   UNL     1      -3.810  -4.703   5.689  0.00  0.00    +0.000 OA
ATOM     33  C   UNL     1      -4.279  -6.962   5.162  0.00  0.00    +0.000 A 
ATOM     34  H   UNL     1      -6.251  -4.404   5.801  0.00  0.00    +0.000 HD
ENDBRANCH  21  24
ENDBRANCH  19  20
ENDBRANCH   4  19
TORSDOF 8
