REMARK  Name = 
REMARK  8 active torsions:
REMARK  status: ('A' for Active; 'I' for Inactive)
REMARK    1  A    between atoms: C_1  and  C_2
REMARK    2  A    between atoms: C_7  and  C_8
REMARK    3  A    between atoms: C_8  and  C_9
REMARK    4  A    between atoms: C_8  and  C_10
REMARK    5  A    between atoms: C_8  and  C_11
REMARK    6  A    between atoms: C_11  and  N_12
REMARK    7  A    between atoms: C_16  and  C_17
REMARK    8  A    between atoms: C_26  and  C_27
REMARK                            x       y       z     vdW  Elec       q    Type
REMARK                         _______ _______ _______ _____ _____    ______ ____
ROOT
ATOM      1  C   UNL     1       1.928   4.772  -4.939  0.00  0.00    +0.000 C 
ATOM      2  C   UNL     1       2.147   5.704  -3.727  0.00  0.00    +0.000 C 
ATOM      3  C   UNL     1       3.237   4.649  -5.748  0.00  0.00    +0.000 C 
ENDROOT
BRANCH   1  10
ATOM      4  C   UNL     1       1.617  -2.458  -2.936  0.00  0.00    +0.000 C 
ATOM      5  C   UNL     1       2.614  -1.848  -1.959  0.00  0.00    +0.000 C 
ATOM      6  C   UNL     1       2.276  -0.406  -1.537  0.00  0.00    +0.000 C 
ATOM      7  N   UNL     1       2.825   0.609  -2.438  0.00  0.00    +0.000 N 
ATOM      8  C   UNL     1       1.978   1.360  -3.231  0.00  0.00    +0.000 A 
ATOM      9  C   UNL     1       2.375   2.622  -3.648  0.00  0.00    +0.000 A 
ATOM     10  C   UNL     1       1.522   3.370  -4.444  0.00  0.00    +0.000 A 
ATOM     11  N   UNL     1       0.324   2.876  -4.808  0.00  0.00    +0.000 NA
ATOM     12  C   UNL     1       0.006   1.660  -4.338  0.00  0.00    +0.000 A 
ATOM     13  N   UNL     1       0.769   0.882  -3.557  0.00  0.00    +0.000 NA
ATOM     14  C   UNL     1       4.214   0.399  -2.856  0.00  0.00    +0.000 C 
ATOM     15  C   UNL     1       4.467  -1.050  -3.317  0.00  0.00    +0.000 C 
ATOM     16  C   UNL     1       4.015  -1.328  -4.747  0.00  0.00    +0.000 C 
ATOM     17  O   UNL     1       3.973  -2.026  -2.389  0.00  0.00    +0.000 OA
ENDBRANCH   1  10
BRANCH   1  18
ATOM     18  C   UNL     1       0.800   5.359  -5.839  0.00  0.00    +0.000 C 
BRANCH  18  19
ATOM     19  N   UNL     1       1.106   6.700  -6.353  0.00  0.00    +0.000 N 
ATOM     20  C   UNL     1       0.072   7.230  -7.119  0.00  0.00    +0.000 A 
ATOM     21  N   UNL     1      -1.199   6.887  -6.863  0.00  0.00    +0.000 NA
ATOM     22  C   UNL     1      -2.153   7.371  -7.682  0.00  0.00    +0.000 A 
ATOM     23  C   UNL     1      -1.891   8.216  -8.733  0.00  0.00    +0.000 A 
ATOM     24  C   UNL     1      -0.563   8.523  -8.910  0.00  0.00    +0.000 A 
ATOM     25  N   UNL     1       0.432   8.043  -8.125  0.00  0.00    +0.000 NA
ATOM     26  H   UNL     1       1.930   6.776  -6.939  0.00  0.00    +0.000 HD
BRANCH  23  27
ATOM     27  C   UNL     1      -2.988   8.676  -9.593  0.00  0.00    +0.000 C 
ATOM     28  N   UNL     1      -2.823   9.841 -10.286  0.00  0.00    +0.000 N 
ATOM     29  O   UNL     1      -4.034   8.045  -9.664  0.00  0.00    +0.000 OA
ATOM     30  H   UNL     1      -2.094  10.513 -10.095  0.00  0.00    +0.000 HD
ATOM     31  H   UNL     1      -3.639  10.174 -10.786  0.00  0.00    +0.000 HD
ENDBRANCH  23  27
ENDBRANCH  18  19
ENDBRANCH   1  18
TORSDOF 4
