REMARK  Name = 
REMARK  5 active torsions:
REMARK  status: ('A' for Active; 'I' for Inactive)
REMARK    1  A    between atoms: C_1  and  C_2
REMARK    2  A    between atoms: C_2  and  O_3
REMARK    3  A    between atoms: C_2  and  C_13
REMARK    4  A    between atoms: O_3  and  C_4
REMARK    5  A    between atoms: C_7  and  C_8
REMARK                            x       y       z     vdW  Elec       q    Type
REMARK                         _______ _______ _______ _____ _____    ______ ____
ROOT
ATOM      1  C   UNL     1       2.865   2.246  -0.559  0.00  0.00    +0.000 A 
ATOM      2  C   UNL     1       2.208   2.254  -1.785  0.00  0.00    +0.000 A 
ATOM      3  C   UNL     1       2.341   3.345  -2.642  0.00  0.00    +0.000 A 
ATOM      4  C   UNL     1       3.151   4.400  -2.250  0.00  0.00    +0.000 A 
ATOM      5  N   UNL     1       3.812   4.441  -1.062  0.00  0.00    +0.000 NA
ATOM      6  C   UNL     1       3.640   3.364  -0.247  0.00  0.00    +0.000 A 
ENDROOT
BRANCH   4   7
ATOM      7  C   UNL     1       3.315   5.562  -3.184  0.00  0.00    +0.000 C 
ATOM      8  N   UNL     1       4.150   6.557  -2.750  0.00  0.00    +0.000 N 
ATOM      9  O   UNL     1       2.755   5.617  -4.268  0.00  0.00    +0.000 OA
ATOM     10  H   UNL     1       4.607   6.477  -1.848  0.00  0.00    +0.000 HD
ATOM     11  H   UNL     1       4.303   7.360  -3.346  0.00  0.00    +0.000 HD
ENDBRANCH   4   7
BRANCH   1  12
ATOM     12  O   UNL     1       2.794   1.254   0.382  0.00  0.00    +0.000 OA
BRANCH  12  14
ATOM     13  C   UNL     1       0.855  -0.201  -0.019  0.00  0.00    +0.000 C 
ATOM     14  C   UNL     1       2.382  -0.054  -0.052  0.00  0.00    +0.000 C 
BRANCH  14  15
ATOM     15  C   UNL     1       2.953  -1.115   0.874  0.00  0.00    +0.000 A 
ATOM     16  C   UNL     1       3.089  -0.933   2.255  0.00  0.00    +0.000 A 
ATOM     17  C   UNL     1       3.463  -2.008   3.059  0.00  0.00    +0.000 A 
ATOM     18  C   UNL     1       3.690  -3.229   2.449  0.00  0.00    +0.000 A 
ATOM     19 CL   UNL     1       4.081  -4.620   3.373  0.00  0.00    +0.000 Cl
ATOM     20  N   UNL     1       3.594  -3.447   1.123  0.00  0.00    +0.000 NA
ATOM     21  C   UNL     1       3.230  -2.387   0.371  0.00  0.00    +0.000 A 
ENDBRANCH  14  15
ENDBRANCH  12  14
ENDBRANCH   1  12
TORSDOF 4
