REMARK  Name = 
REMARK  8 active torsions:
REMARK  status: ('A' for Active; 'I' for Inactive)
REMARK    1  A    between atoms: C_1  and  C_2
REMARK    2  A    between atoms: C_2  and  C_3
REMARK    3  A    between atoms: C_2  and  C_4
REMARK    4  A    between atoms: C_2  and  C_5
REMARK    5  A    between atoms: N_7  and  C_8
REMARK    6  A    between atoms: C_8  and  C_9
REMARK    7  A    between atoms: C_12  and  C_13
REMARK    8  A    between atoms: C_21  and  C_22
REMARK                            x       y       z     vdW  Elec       q    Type
REMARK                         _______ _______ _______ _____ _____    ______ ____
ROOT
ATOM      1  C   UNL     1       2.938   1.298   0.456  0.00  0.00    +0.000 A 
ATOM      2  C   UNL     1       3.957   1.686   1.316  0.00  0.00    +0.000 A 
ATOM      3  N   UNL     1       3.991   3.059   1.384  0.00  0.00    +0.000 N 
ATOM      4  C   UNL     1       3.025   3.586   0.566  0.00  0.00    +0.000 A 
ATOM      5  N   UNL     1       2.776   4.902   0.395  0.00  0.00    +0.000 NA
ATOM      6  C   UNL     1       1.730   5.147  -0.437  0.00  0.00    +0.000 A 
ATOM      7  C   UNL     1       0.960   4.182  -1.076  0.00  0.00    +0.000 A 
ATOM      8  C   UNL     1       1.290   2.839  -0.896  0.00  0.00    +0.000 A 
ATOM      9  C   UNL     1       2.349   2.520  -0.025  0.00  0.00    +0.000 A 
ENDROOT
BRANCH   7  10
ATOM     10  C   UNL     1      -0.176   4.604  -1.920  0.00  0.00    +0.000 C 
ATOM     11  N   UNL     1      -1.187   3.699  -2.110  0.00  0.00    +0.000 N 
ATOM     12  O   UNL     1      -0.232   5.726  -2.402  0.00  0.00    +0.000 OA
ATOM     13  H   UNL     1      -1.294   2.866  -1.548  0.00  0.00    +0.000 HD
ATOM     14  H   UNL     1      -2.004   4.032  -2.606  0.00  0.00    +0.000 HD
ENDBRANCH   7  10
BRANCH   1  16
ATOM     15  C   UNL     1       3.355  -1.184   0.854  0.00  0.00    +0.000 C 
ATOM     16  C   UNL     1       2.503  -0.127   0.115  0.00  0.00    +0.000 C 
ATOM     17  C   UNL     1       2.651  -0.396  -1.397  0.00  0.00    +0.000 C 
ATOM     18  C   UNL     1       1.034  -0.348   0.536  0.00  0.00    +0.000 C 
ENDBRANCH   1  16
BRANCH   3  19
ATOM     19  C   UNL     1       4.924   3.834   2.196  0.00  0.00    +0.000 C 
BRANCH  19  20
ATOM     20  C   UNL     1       4.417   4.016   3.602  0.00  0.00    +0.000 A 
ATOM     21  C   UNL     1       3.297   4.810   3.873  0.00  0.00    +0.000 A 
ATOM     22  C   UNL     1       2.814   4.913   5.173  0.00  0.00    +0.000 A 
ATOM     23  C   UNL     1       3.480   4.224   6.176  0.00  0.00    +0.000 A 
ATOM     24  N   UNL     1       4.597   3.470   5.965  0.00  0.00    +0.000 NA
ATOM     25  C   UNL     1       5.032   3.390   4.685  0.00  0.00    +0.000 A 
BRANCH  23  26
ATOM     26  C   UNL     1       2.943   4.264   7.574  0.00  0.00    +0.000 C 
ATOM     27  N   UNL     1       3.661   3.563   8.504  0.00  0.00    +0.000 N 
ATOM     28  O   UNL     1       1.921   4.869   7.874  0.00  0.00    +0.000 OA
ATOM     29  H   UNL     1       4.482   3.044   8.214  0.00  0.00    +0.000 HD
ATOM     30  H   UNL     1       3.326   3.513   9.455  0.00  0.00    +0.000 HD
ENDBRANCH  23  26
ENDBRANCH  19  20
ENDBRANCH   3  19
TORSDOF 5
