REMARK  Name = 
REMARK  9 active torsions:
REMARK  status: ('A' for Active; 'I' for Inactive)
REMARK    1  A    between atoms: N_1  and  C_2
REMARK    2  A    between atoms: C_2  and  C_3
REMARK    3  A    between atoms: C_2  and  C_17
REMARK    4  A    between atoms: C_3  and  N_4
REMARK    5  A    between atoms: C_5  and  C_7
REMARK    6  A    between atoms: C_20  and  C_21
REMARK    7  A    between atoms: C_21  and  O_22
REMARK    8  A    between atoms: O_22  and  C_23
REMARK    9  A    between atoms: C_23  and  C_24
REMARK                            x       y       z     vdW  Elec       q    Type
REMARK                         _______ _______ _______ _____ _____    ______ ____
ROOT
ATOM      1  C   UNL     1       2.380  -0.060  -0.238  0.00  0.00    +0.000 C 
ENDROOT
BRANCH   1   2
ATOM      2  C   UNL     1       2.845   1.252  -0.882  0.00  0.00    +0.000 A 
ATOM      3  C   UNL     1       2.063   2.414  -0.770  0.00  0.00    +0.000 A 
ATOM      4  C   UNL     1       2.511   3.644  -1.264  0.00  0.00    +0.000 A 
ATOM      5  C   UNL     1       3.767   3.771  -1.863  0.00  0.00    +0.000 A 
ATOM      6  C   UNL     1       4.546   2.620  -2.001  0.00  0.00    +0.000 A 
ATOM      7  C   UNL     1       4.097   1.384  -1.504  0.00  0.00    +0.000 A 
BRANCH   5   8
ATOM      8  C   UNL     1       4.245   5.111  -2.375  0.00  0.00    +0.000 C 
BRANCH   8   9
ATOM      9  O   UNL     1       3.706   6.145  -1.552  0.00  0.00    +0.000 OA
BRANCH   9  10
ATOM     10  C   UNL     1       4.003   7.460  -2.023  0.00  0.00    +0.000 C 
BRANCH  10  11
ATOM     11  C   UNL     1       3.328   8.462  -1.072  0.00  0.00    +0.000 C 
ATOM     12  C   UNL     1       1.792   8.343  -1.095  0.00  0.00    +0.000 C 
ATOM     13  C   UNL     1       1.183   9.004  -2.330  0.00  0.00    +0.000 C 
ATOM     14  C   UNL     1       1.697  10.430  -2.499  0.00  0.00    +0.000 C 
ATOM     15  N   UNL     1       3.160  10.454  -2.578  0.00  0.00    +0.000 NA
ATOM     16  C   UNL     1       3.757   9.908  -1.357  0.00  0.00    +0.000 C 
ATOM     17  H   UNL     1       3.464  11.422  -2.692  0.00  0.00    +0.000 HD
ENDBRANCH  10  11
ENDBRANCH   9  10
ENDBRANCH   8   9
ENDBRANCH   5   8
ENDBRANCH   1   2
BRANCH   1  18
ATOM     18  N   UNL     1       2.940  -1.259  -0.888  0.00  0.00    +0.000 NA
ATOM     19  H   UNL     1       3.949  -1.269  -0.764  0.00  0.00    +0.000 HD
ATOM     20  H   UNL     1       2.754  -1.209  -1.887  0.00  0.00    +0.000 HD
ENDBRANCH   1  18
BRANCH   1  21
ATOM     21  C   UNL     1       0.838  -0.245  -0.125  0.00  0.00    +0.000 C 
BRANCH  21  22
ATOM     22  N   UNL     1       0.141  -0.254  -1.406  0.00  0.00    +0.000 N 
ATOM     23  C   UNL     1      -1.100   0.314  -1.548  0.00  0.00    +0.000 C 
ATOM     24  O   UNL     1      -1.635   0.939  -0.635  0.00  0.00    +0.000 OA
ATOM     25  H   UNL     1       0.482  -0.902  -2.109  0.00  0.00    +0.000 HD
BRANCH  23  26
ATOM     26  C   UNL     1      -1.768   0.175  -2.848  0.00  0.00    +0.000 A 
ATOM     27  C   UNL     1      -2.748   1.092  -3.207  0.00  0.00    +0.000 A 
ATOM     28  S   UNL     1      -3.491   0.753  -4.703  0.00  0.00    +0.000 S 
ATOM     29  C   UNL     1      -2.564  -0.659  -4.900  0.00  0.00    +0.000 A 
ATOM     30  N   UNL     1      -2.776  -1.490  -5.955  0.00  0.00    +0.000 NA
ATOM     31  C   UNL     1      -2.046  -2.556  -5.947  0.00  0.00    +0.000 A 
ATOM     32  N   UNL     1      -1.094  -2.843  -5.003  0.00  0.00    +0.000 N 
ATOM     33  C   UNL     1      -0.768  -1.976  -3.985  0.00  0.00    +0.000 A 
ATOM     34  O   UNL     1       0.210  -2.165  -3.268  0.00  0.00    +0.000 OA
ATOM     35  C   UNL     1      -1.641  -0.823  -3.881  0.00  0.00    +0.000 A 
ATOM     36  H   UNL     1      -0.517  -3.666  -5.091  0.00  0.00    +0.000 HD
ENDBRANCH  23  26
ENDBRANCH  21  22
ENDBRANCH   1  21
TORSDOF 9
