REMARK  Name = 
REMARK  6 active torsions:
REMARK  status: ('A' for Active; 'I' for Inactive)
REMARK    1  A    between atoms: C_1  and  C_2
REMARK    2  A    between atoms: C_2  and  C_3
REMARK    3  A    between atoms: C_2  and  N_4
REMARK    4  A    between atoms: C_2  and  C_5
REMARK    5  A    between atoms: C_8  and  C_9
REMARK    6  A    between atoms: C_9  and  N_10
REMARK                            x       y       z     vdW  Elec       q    Type
REMARK                         _______ _______ _______ _____ _____    ______ ____
ROOT
ATOM      1  C   UNL     1       3.065   1.366  -0.172  0.00  0.00    +0.000 A 
ATOM      2  C   UNL     1       2.182   2.450  -0.243  0.00  0.00    +0.000 A 
ATOM      3  C   UNL     1       2.663   3.760  -0.289  0.00  0.00    +0.000 A 
ATOM      4  C   UNL     1       4.036   3.981  -0.246  0.00  0.00    +0.000 A 
ATOM      5  N   UNL     1       4.923   2.958  -0.190  0.00  0.00    +0.000 NA
ATOM      6  C   UNL     1       4.422   1.696  -0.163  0.00  0.00    +0.000 A 
ENDROOT
BRANCH   1   8
ATOM      7  C   UNL     1       3.108  -0.749   1.203  0.00  0.00    +0.000 C 
ATOM      8  C   UNL     1       2.601  -0.088  -0.094  0.00  0.00    +0.000 C 
ATOM      9  C   UNL     1       3.107  -0.885  -1.311  0.00  0.00    +0.000 C 
BRANCH   8  10
ATOM     10  N   UNL     1       1.130  -0.204  -0.077  0.00  0.00    +0.000 NA
ATOM     11  H   UNL     1       0.865  -1.182   0.039  0.00  0.00    +0.000 HD
ATOM     12  H   UNL     1       0.764   0.072  -0.988  0.00  0.00    +0.000 HD
ENDBRANCH   8  10
ENDBRANCH   1   8
BRANCH   4  13
ATOM     13  C   UNL     1       4.581   5.383  -0.164  0.00  0.00    +0.000 C 
BRANCH  13  14
ATOM     14  N   UNL     1       4.865   5.964  -1.471  0.00  0.00    +0.000 N 
ATOM     15  C   UNL     1       3.962   6.703  -2.207  0.00  0.00    +0.000 A 
ATOM     16  C   UNL     1       4.632   7.249  -3.282  0.00  0.00    +0.000 A 
ATOM     17  C   UNL     1       5.980   6.837  -3.192  0.00  0.00    +0.000 A 
ATOM     18  N   UNL     1       7.031   7.136  -3.994  0.00  0.00    +0.000 NA
ATOM     19  N   UNL     1       8.214   6.634  -3.691  0.00  0.00    +0.000 NA
ATOM     20  C   UNL     1       8.362   5.830  -2.612  0.00  0.00    +0.000 A 
ATOM     21  C   UNL     1       7.342   5.473  -1.745  0.00  0.00    +0.000 A 
ATOM     22  C   UNL     1       6.107   6.024  -2.068  0.00  0.00    +0.000 A 
ENDBRANCH  13  14
ENDBRANCH   4  13
TORSDOF 4
