REMARK  Name = 
REMARK  4 active torsions:
REMARK  status: ('A' for Active; 'I' for Inactive)
REMARK    1  A    between atoms: C_2  and  C_4
REMARK    2  A    between atoms: N_8  and  C_9
REMARK    3  A    between atoms: C_9  and  C_10
REMARK    4  A    between atoms: C_13  and  C_14
REMARK                            x       y       z     vdW  Elec       q    Type
REMARK                         _______ _______ _______ _____ _____    ______ ____
ROOT
ATOM      1  C   UNL     1       6.309  -1.366  -4.935  0.00  0.00    +0.000 C 
ATOM      2  C   UNL     1       6.424  -2.882  -4.774  0.00  0.00    +0.000 C 
ATOM      3  C   UNL     1       7.202  -1.985  -3.877  0.00  0.00    +0.000 C 
ATOM      4  F   UNL     1       8.575  -1.982  -4.075  0.00  0.00    +0.000 F 
ENDROOT
BRANCH   1   9
ATOM      5  C   UNL     1       3.985   2.269  -2.142  0.00  0.00    +0.000 A 
ATOM      6  C   UNL     1       3.295   1.968  -3.291  0.00  0.00    +0.000 A 
ATOM      7  N   UNL     1       3.647   0.974  -4.132  0.00  0.00    +0.000 NA
ATOM      8  C   UNL     1       4.751   0.268  -3.828  0.00  0.00    +0.000 A 
ATOM      9  N   UNL     1       4.968  -0.827  -4.660  0.00  0.00    +0.000 N 
ATOM     10  N   UNL     1       5.533   0.528  -2.769  0.00  0.00    +0.000 NA
ATOM     11  C   UNL     1       5.132   1.533  -1.946  0.00  0.00    +0.000 A 
ATOM     12  H   UNL     1       4.352  -0.697  -5.454  0.00  0.00    +0.000 HD
BRANCH   5  14
ATOM     13  N   UNL     1       2.210   3.561  -1.114  0.00  0.00    +0.000 N 
ATOM     14  C   UNL     1       3.550   3.293  -1.185  0.00  0.00    +0.000 C 
ATOM     15  O   UNL     1       4.350   3.851  -0.446  0.00  0.00    +0.000 OA
ATOM     16  H   UNL     1       1.912   4.185  -0.372  0.00  0.00    +0.000 HD
ATOM     17  H   UNL     1       1.497   2.960  -1.510  0.00  0.00    +0.000 HD
ENDBRANCH   5  14
ENDBRANCH   1   9
BRANCH   1  18
ATOM     18  C   UNL     1       7.002  -0.705  -6.122  0.00  0.00    +0.000 A 
ATOM     19  C   UNL     1       7.768   0.460  -5.946  0.00  0.00    +0.000 A 
ATOM     20  C   UNL     1       8.504   1.016  -6.995  0.00  0.00    +0.000 A 
ATOM     21  C   UNL     1       8.489   0.423  -8.264  0.00  0.00    +0.000 A 
ATOM     22  C   UNL     1       7.673  -0.696  -8.472  0.00  0.00    +0.000 A 
ATOM     23  C   UNL     1       6.935  -1.243  -7.418  0.00  0.00    +0.000 A 
BRANCH  21  24
ATOM     24  C   UNL     1       9.354   0.943  -9.381  0.00  0.00    +0.000 C 
ATOM     25  F   UNL     1      10.092   2.039  -9.039  0.00  0.00    +0.000 F 
ATOM     26  F   UNL     1      10.248   0.017  -9.824  0.00  0.00    +0.000 F 
ATOM     27  F   UNL     1       8.630   1.315 -10.475  0.00  0.00    +0.000 F 
ENDBRANCH  21  24
ENDBRANCH   1  18
TORSDOF 4
