REMARK  Name = 
REMARK  9 active torsions:
REMARK  status: ('A' for Active; 'I' for Inactive)
REMARK    1  A    between atoms: C_1  and  C_2
REMARK    2  A    between atoms: C_2  and  N_3
REMARK    3  A    between atoms: C_2  and  C_17
REMARK    4  A    between atoms: C_4  and  C_6
REMARK    5  A    between atoms: N_12  and  C_13
REMARK    6  A    between atoms: C_20  and  C_21
REMARK    7  A    between atoms: C_21  and  N_22
REMARK    8  A    between atoms: C_23  and  C_25
REMARK    9  A    between atoms: N_29  and  C_30
REMARK                            x       y       z     vdW  Elec       q    Type
REMARK                         _______ _______ _______ _____ _____    ______ ____
ROOT
ATOM      1  C   UNL     1       1.102   0.265   0.046  0.00  0.00    +0.000 C 
ATOM      2  C   UNL     1       2.608  -0.003   0.010  0.00  0.00    +0.000 C 
ENDROOT
BRANCH   2   3
ATOM      3  C   UNL     1       3.139  -0.178   1.417  0.00  0.00    +0.000 A 
ATOM      4  C   UNL     1       3.290  -1.461   1.948  0.00  0.00    +0.000 A 
ATOM      5  C   UNL     1       3.726  -1.629   3.260  0.00  0.00    +0.000 A 
ATOM      6  C   UNL     1       3.998  -0.503   4.030  0.00  0.00    +0.000 A 
ATOM      7  N   UNL     1       3.876   0.757   3.540  0.00  0.00    +0.000 NA
ATOM      8  C   UNL     1       3.440   0.888   2.263  0.00  0.00    +0.000 A 
BRANCH   6   9
ATOM      9  C   UNL     1       4.444  -0.651   5.464  0.00  0.00    +0.000 C 
BRANCH   9  10
ATOM     10  N   UNL     1       5.883  -0.755   5.589  0.00  0.00    +0.000 N 
ATOM     11  C   UNL     1       6.526  -1.968   5.648  0.00  0.00    +0.000 C 
ATOM     12  O   UNL     1       5.907  -3.026   5.599  0.00  0.00    +0.000 OA
ATOM     13  H   UNL     1       6.412   0.093   5.455  0.00  0.00    +0.000 HD
BRANCH  11  14
ATOM     14  C   UNL     1       7.965  -1.892   5.783  0.00  0.00    +0.000 A 
ATOM     15  C   UNL     1       8.814  -0.804   5.925  0.00  0.00    +0.000 A 
ATOM     16  C   UNL     1      10.106  -1.341   6.042  0.00  0.00    +0.000 A 
ATOM     17  N   UNL     1      10.105  -2.670   5.980  0.00  0.00    +0.000 NA
ATOM     18  N   UNL     1       8.802  -2.987   5.822  0.00  0.00    +0.000 N 
ATOM     19  C   UNL     1       8.436  -4.381   5.712  0.00  0.00    +0.000 C 
ENDBRANCH  11  14
ENDBRANCH   9  10
ENDBRANCH   6   9
ENDBRANCH   2   3
BRANCH   2  20
ATOM     20  N   UNL     1       3.309   1.047  -0.701  0.00  0.00    +0.000 N 
ATOM     21  C   UNL     1       3.468   1.055  -2.064  0.00  0.00    +0.000 C 
ATOM     22  O   UNL     1       3.188   0.094  -2.771  0.00  0.00    +0.000 OA
ATOM     23  H   UNL     1       3.387   1.936  -0.224  0.00  0.00    +0.000 HD
BRANCH  21  24
ATOM     24  C   UNL     1       4.033   2.289  -2.628  0.00  0.00    +0.000 A 
ATOM     25  C   UNL     1       4.771   2.248  -3.802  0.00  0.00    +0.000 A 
ATOM     26  S   UNL     1       5.313   3.783  -4.316  0.00  0.00    +0.000 S 
ATOM     27  C   UNL     1       4.545   4.556  -3.009  0.00  0.00    +0.000 A 
ATOM     28  N   UNL     1       4.572   5.908  -2.878  0.00  0.00    +0.000 NA
ATOM     29  C   UNL     1       3.926   6.362  -1.855  0.00  0.00    +0.000 A 
ATOM     30  N   UNL     1       3.261   5.593  -0.923  0.00  0.00    +0.000 N 
ATOM     31  C   UNL     1       2.602   6.202   0.214  0.00  0.00    +0.000 C 
ATOM     32  C   UNL     1       3.260   4.205  -0.998  0.00  0.00    +0.000 A 
ATOM     33  O   UNL     1       2.767   3.496  -0.124  0.00  0.00    +0.000 OA
ATOM     34  C   UNL     1       3.928   3.655  -2.164  0.00  0.00    +0.000 A 
ENDBRANCH  21  24
ENDBRANCH   2  20
TORSDOF 6
