REMARK  Name = 
REMARK  8 active torsions:
REMARK  status: ('A' for Active; 'I' for Inactive)
REMARK    1  A    between atoms: C_1  and  C_2
REMARK    2  A    between atoms: C_2  and  N_3
REMARK    3  A    between atoms: C_2  and  C_17
REMARK    4  A    between atoms: C_4  and  C_6
REMARK    5  A    between atoms: N_12  and  C_13
REMARK    6  A    between atoms: C_20  and  C_21
REMARK    7  A    between atoms: C_21  and  N_22
REMARK    8  A    between atoms: C_23  and  C_25
REMARK                            x       y       z     vdW  Elec       q    Type
REMARK                         _______ _______ _______ _____ _____    ______ ____
ROOT
ATOM      1  C   UNL     1       3.168   0.746  -1.206  0.00  0.00    +0.000 C 
ATOM      2  C   UNL     1       2.427   0.125  -0.011  0.00  0.00    +0.000 C 
ENDROOT
BRANCH   2   3
ATOM      3  C   UNL     1       2.864   0.761   1.305  0.00  0.00    +0.000 A 
ATOM      4  C   UNL     1       2.990  -0.021   2.464  0.00  0.00    +0.000 A 
ATOM      5  C   UNL     1       3.364   0.561   3.682  0.00  0.00    +0.000 A 
ATOM      6  C   UNL     1       3.612   1.937   3.772  0.00  0.00    +0.000 A 
ATOM      7  C   UNL     1       3.506   2.714   2.615  0.00  0.00    +0.000 A 
ATOM      8  C   UNL     1       3.117   2.138   1.405  0.00  0.00    +0.000 A 
BRANCH   6   9
ATOM      9  C   UNL     1       3.950   2.588   5.086  0.00  0.00    +0.000 C 
BRANCH   9  10
ATOM     10  N   UNL     1       5.368   2.632   5.341  0.00  0.00    +0.000 N 
ATOM     11  C   UNL     1       5.835   3.328   6.436  0.00  0.00    +0.000 C 
ATOM     12  O   UNL     1       5.079   3.934   7.192  0.00  0.00    +0.000 OA
ATOM     13  H   UNL     1       5.982   2.046   4.797  0.00  0.00    +0.000 HD
BRANCH  11  14
ATOM     14  C   UNL     1       7.285   3.304   6.650  0.00  0.00    +0.000 A 
ATOM     15  C   UNL     1       8.311   2.703   5.841  0.00  0.00    +0.000 A 
ATOM     16  C   UNL     1       9.578   2.904   6.346  0.00  0.00    +0.000 A 
ATOM     17  S   UNL     1       9.558   3.806   7.794  0.00  0.00    +0.000 S 
ATOM     18  C   UNL     1       7.856   3.934   7.746  0.00  0.00    +0.000 A 
ENDBRANCH  11  14
ENDBRANCH   9  10
ENDBRANCH   6   9
ENDBRANCH   2   3
BRANCH   2  19
ATOM     19  N   UNL     1       0.978   0.227  -0.134  0.00  0.00    +0.000 N 
ATOM     20  C   UNL     1       0.295  -0.290  -1.215  0.00  0.00    +0.000 C 
ATOM     21  O   UNL     1       0.859  -0.804  -2.172  0.00  0.00    +0.000 OA
ATOM     22  H   UNL     1       0.454   0.417   0.709  0.00  0.00    +0.000 HD
BRANCH  20  23
ATOM     23  C   UNL     1      -1.160  -0.124  -1.181  0.00  0.00    +0.000 A 
ATOM     24  C   UNL     1      -1.810   0.929  -0.556  0.00  0.00    +0.000 A 
ATOM     25  S   UNL     1      -3.492   0.958  -0.870  0.00  0.00    +0.000 S 
ATOM     26  C   UNL     1      -3.395  -0.438  -1.840  0.00  0.00    +0.000 A 
ATOM     27  N   UNL     1      -4.485  -0.927  -2.484  0.00  0.00    +0.000 NA
ATOM     28  C   UNL     1      -4.249  -1.976  -3.206  0.00  0.00    +0.000 A 
ATOM     29  N   UNL     1      -3.031  -2.617  -3.320  0.00  0.00    +0.000 N 
ATOM     30  C   UNL     1      -2.906  -3.826  -4.106  0.00  0.00    +0.000 C 
ATOM     31  C   UNL     1      -1.921  -2.208  -2.582  0.00  0.00    +0.000 A 
ATOM     32  O   UNL     1      -0.908  -2.890  -2.480  0.00  0.00    +0.000 OA
ATOM     33  C   UNL     1      -2.118  -0.956  -1.867  0.00  0.00    +0.000 A 
ENDBRANCH  20  23
ENDBRANCH   2  19
TORSDOF 6
