REMARK  Name = 
REMARK  6 active torsions:
REMARK  status: ('A' for Active; 'I' for Inactive)
REMARK    1  A    between atoms: C_2  and  C_19
REMARK    2  A    between atoms: N_3  and  C_4
REMARK    3  A    between atoms: C_4  and  C_5
REMARK    4  A    between atoms: C_8  and  O_9
REMARK    5  A    between atoms: O_9  and  C_10
REMARK    6  A    between atoms: C_10  and  C_11
REMARK                            x       y       z     vdW  Elec       q    Type
REMARK                         _______ _______ _______ _____ _____    ______ ____
ROOT
ATOM      1  O   UNL     1       1.386   1.706   3.304  0.00  0.00    +0.000 OA
ATOM      2  C   UNL     1       0.767   0.670   3.500  0.00  0.00    +0.000 C 
ATOM      3  N   UNL     1       1.082  -0.557   2.960  0.00  0.00    +0.000 N 
ATOM      4  H   UNL     1       0.622  -1.366   3.343  0.00  0.00    +0.000 HD
ENDROOT
BRANCH   2   5
ATOM      5  C   UNL     1      -0.259   0.538   4.534  0.00  0.00    +0.000 A 
ATOM      6  C   UNL     1      -0.168   1.169   5.762  0.00  0.00    +0.000 A 
ATOM      7  S   UNL     1      -1.152   0.397   6.939  0.00  0.00    +0.000 S 
ATOM      8  C   UNL     1      -1.793  -0.679   5.780  0.00  0.00    +0.000 A 
ATOM      9  N   UNL     1      -2.587  -1.731   6.114  0.00  0.00    +0.000 NA
ATOM     10  C   UNL     1      -3.024  -2.408   5.101  0.00  0.00    +0.000 A 
ATOM     11  N   UNL     1      -2.786  -2.097   3.784  0.00  0.00    +0.000 N 
ATOM     12  C   UNL     1      -1.994  -1.043   3.399  0.00  0.00    +0.000 A 
ATOM     13  O   UNL     1      -1.831  -0.749   2.221  0.00  0.00    +0.000 OA
ATOM     14  C   UNL     1      -1.384  -0.344   4.509  0.00  0.00    +0.000 A 
ATOM     15  H   UNL     1      -3.226  -2.617   3.038  0.00  0.00    +0.000 HD
ENDBRANCH   2   5
BRANCH   3  16
ATOM     16  C   UNL     1       2.352  -0.824   2.337  0.00  0.00    +0.000 C 
BRANCH  16  17
ATOM     17  C   UNL     1       3.300  -1.392   3.356  0.00  0.00    +0.000 A 
ATOM     18  C   UNL     1       4.099  -0.560   4.141  0.00  0.00    +0.000 A 
ATOM     19  C   UNL     1       4.957  -1.117   5.085  0.00  0.00    +0.000 A 
ATOM     20  C   UNL     1       4.988  -2.495   5.212  0.00  0.00    +0.000 A 
ATOM     21  N   UNL     1       4.187  -3.331   4.516  0.00  0.00    +0.000 NA
ATOM     22  C   UNL     1       3.363  -2.761   3.608  0.00  0.00    +0.000 A 
BRANCH  20  23
ATOM     23  O   UNL     1       5.903  -3.010   6.102  0.00  0.00    +0.000 OA
BRANCH  23  24
ATOM     24  C   UNL     1       6.202  -4.384   5.831  0.00  0.00    +0.000 C 
BRANCH  24  25
ATOM     25  C   UNL     1       7.542  -4.737   6.438  0.00  0.00    +0.000 A 
ATOM     26  N   UNL     1       7.557  -5.292   7.669  0.00  0.00    +0.000 NA
ATOM     27  C   UNL     1       8.769  -5.608   8.165  0.00  0.00    +0.000 A 
ATOM     28  C   UNL     1       9.950  -5.404   7.493  0.00  0.00    +0.000 A 
ATOM     29  C   UNL     1       9.829  -4.829   6.251  0.00  0.00    +0.000 A 
ATOM     30  N   UNL     1       8.648  -4.492   5.702  0.00  0.00    +0.000 NA
ENDBRANCH  24  25
ENDBRANCH  23  24
ENDBRANCH  20  23
ENDBRANCH  16  17
ENDBRANCH   3  16
TORSDOF 6
