REMARK  Name = 
REMARK  4 active torsions:
REMARK  status: ('A' for Active; 'I' for Inactive)
REMARK    1  A    between atoms: N_1  and  C_2
REMARK    2  A    between atoms: C_2  and  C_3
REMARK    3  A    between atoms: C_6  and  C_7
REMARK    4  A    between atoms: C_7  and  N_8
REMARK                            x       y       z     vdW  Elec       q    Type
REMARK                         _______ _______ _______ _____ _____    ______ ____
ROOT
ATOM      1  C   UNL     1       2.949   1.172   0.754  0.00  0.00    +0.000 C 
ATOM      2  C   UNL     1       2.144   1.066   2.057  0.00  0.00    +0.000 C 
ATOM      3  C   UNL     1       2.483   2.180   3.043  0.00  0.00    +0.000 C 
ATOM      4  C   UNL     1       2.305   3.577   2.429  0.00  0.00    +0.000 C 
ATOM      5  C   UNL     1       3.102   3.688   1.119  0.00  0.00    +0.000 C 
ATOM      6  C   UNL     1       2.767   2.566   0.131  0.00  0.00    +0.000 C 
ENDROOT
BRANCH   1   7
ATOM      7  C   UNL     1       2.528   0.033  -0.196  0.00  0.00    +0.000 C 
BRANCH   7   8
ATOM      8  N   UNL     1       3.268   0.044  -1.451  0.00  0.00    +0.000 NA
ATOM      9  H   UNL     1       3.017  -0.778  -1.999  0.00  0.00    +0.000 HD
ATOM     10  H   UNL     1       4.267  -0.031  -1.264  0.00  0.00    +0.000 HD
ENDBRANCH   7   8
ENDBRANCH   1   7
BRANCH   4  11
ATOM     11  C   UNL     1       2.728   4.692   3.414  0.00  0.00    +0.000 C 
BRANCH  11  12
ATOM     12  N   UNL     1       1.986   4.679   4.668  0.00  0.00    +0.000 N 
ATOM     13  C   UNL     1       0.629   4.898   4.758  0.00  0.00    +0.000 A 
ATOM     14  C   UNL     1       0.238   4.619   6.049  0.00  0.00    +0.000 A 
ATOM     15  C   UNL     1       1.396   4.264   6.774  0.00  0.00    +0.000 A 
ATOM     16  N   UNL     1       1.495   3.883   8.072  0.00  0.00    +0.000 NA
ATOM     17  C   UNL     1       2.750   3.625   8.491  0.00  0.00    +0.000 A 
ATOM     18  C   UNL     1       3.898   3.755   7.726  0.00  0.00    +0.000 A 
ATOM     19  C   UNL     1       3.789   4.149   6.392  0.00  0.00    +0.000 A 
ATOM     20  C   UNL     1       2.491   4.372   5.914  0.00  0.00    +0.000 A 
ENDBRANCH  11  12
ENDBRANCH   4  11
TORSDOF 4
