REMARK  Name = 
REMARK  8 active torsions:
REMARK  status: ('A' for Active; 'I' for Inactive)
REMARK    1  A    between atoms: C_2  and  C_4
REMARK    2  A    between atoms: C_7  and  N_8
REMARK    3  A    between atoms: N_8  and  C_9
REMARK    4  A    between atoms: C_9  and  C_10
REMARK    5  A    between atoms: C_10  and  C_11
REMARK    6  A    between atoms: C_15  and  C_16
REMARK    7  A    between atoms: C_19  and  C_20
REMARK    8  A    between atoms: C_26  and  O_27
REMARK                            x       y       z     vdW  Elec       q    Type
REMARK                         _______ _______ _______ _____ _____    ______ ____
ROOT
ATOM      1  C   UNL     1       5.424   6.913   4.916  0.00  0.00    +0.000 A 
ATOM      2  N   UNL     1       5.573   8.249   5.059  0.00  0.00    +0.000 NA
ATOM      3  C   UNL     1       5.254   8.769   6.251  0.00  0.00    +0.000 A 
ATOM      4  N   UNL     1       4.829   8.085   7.320  0.00  0.00    +0.000 NA
ATOM      5  C   UNL     1       4.695   6.745   7.173  0.00  0.00    +0.000 A 
ATOM      6  C   UNL     1       4.944   6.120   5.949  0.00  0.00    +0.000 A 
ENDROOT
BRANCH   5   7
ATOM      7  C   UNL     1       4.288   6.029   8.409  0.00  0.00    +0.000 A 
ATOM      8  C   UNL     1       3.448   6.640   9.359  0.00  0.00    +0.000 A 
ATOM      9  C   UNL     1       3.034   5.965  10.515  0.00  0.00    +0.000 A 
ATOM     10  C   UNL     1       3.446   4.649  10.754  0.00  0.00    +0.000 A 
ATOM     11  C   UNL     1       4.306   4.039   9.834  0.00  0.00    +0.000 A 
ATOM     12  C   UNL     1       4.740   4.729   8.699  0.00  0.00    +0.000 A 
BRANCH  10  13
ATOM     13  C   UNL     1       2.994   3.882  11.971  0.00  0.00    +0.000 C 
ATOM     14  F   UNL     1       2.235   4.614  12.831  0.00  0.00    +0.000 F 
ATOM     15  F   UNL     1       2.242   2.793  11.643  0.00  0.00    +0.000 F 
ATOM     16  F   UNL     1       4.038   3.405  12.703  0.00  0.00    +0.000 F 
ENDBRANCH  10  13
ENDBRANCH   5   7
BRANCH   6  17
ATOM     17  O   UNL     1       4.723   4.795   5.700  0.00  0.00    +0.000 OA
ATOM     18  H   UNL     1       4.036   4.477   6.312  0.00  0.00    +0.000 HD
ENDBRANCH   6  17
BRANCH   1  19
ATOM     19  C   UNL     1       5.800   6.290   3.586  0.00  0.00    +0.000 C 
BRANCH  19  20
ATOM     20  C   UNL     1       6.339   7.323   2.596  0.00  0.00    +0.000 C 
BRANCH  20  21
ATOM     21  N   UNL     1       6.721   6.709   1.316  0.00  0.00    +0.000 N 
ATOM     22  H   UNL     1       5.993   6.105   0.939  0.00  0.00    +0.000 HD
BRANCH  21  26
ATOM     23  C   UNL     1       8.397   9.084  -1.678  0.00  0.00    +0.000 A 
ATOM     24  C   UNL     1       8.513   9.522  -0.370  0.00  0.00    +0.000 A 
ATOM     25  C   UNL     1       7.940   8.746   0.638  0.00  0.00    +0.000 A 
ATOM     26  C   UNL     1       7.245   7.570   0.335  0.00  0.00    +0.000 A 
ATOM     27  C   UNL     1       7.228   7.209  -1.020  0.00  0.00    +0.000 A 
ATOM     28  N   UNL     1       7.761   7.935  -2.039  0.00  0.00    +0.000 NA
BRANCH  23  30
ATOM     29  N   UNL     1       8.791   9.442  -4.044  0.00  0.00    +0.000 N 
ATOM     30  C   UNL     1       9.011   9.899  -2.774  0.00  0.00    +0.000 C 
ATOM     31  O   UNL     1       9.665  10.912  -2.560  0.00  0.00    +0.000 OA
ATOM     32  H   UNL     1       9.192   9.939  -4.825  0.00  0.00    +0.000 HD
ATOM     33  H   UNL     1       8.248   8.598  -4.186  0.00  0.00    +0.000 HD
ENDBRANCH  23  30
ENDBRANCH  21  26
ENDBRANCH  20  21
ENDBRANCH  19  20
ENDBRANCH   1  19
TORSDOF 8
