REMARK  Name = 
REMARK  10 active torsions:
REMARK  status: ('A' for Active; 'I' for Inactive)
REMARK    1  A    between atoms: C_2  and  C_23
REMARK    2  A    between atoms: N_3  and  C_4
REMARK    3  A    between atoms: C_4  and  C_5
REMARK    4  A    between atoms: C_8  and  C_9
REMARK    5  A    between atoms: C_9  and  N_10
REMARK    6  A    between atoms: N_10  and  C_11
REMARK    7  A    between atoms: N_10  and  C_14
REMARK    8  A    between atoms: C_11  and  C_12
REMARK    9  A    between atoms: C_12  and  O_13
REMARK   10  A    between atoms: C_14  and  C_15
REMARK                            x       y       z     vdW  Elec       q    Type
REMARK                         _______ _______ _______ _____ _____    ______ ____
ROOT
ATOM      1  C   UNL     1       3.284  -1.683   2.999  0.00  0.00    +0.000 A 
ATOM      2  C   UNL     1       4.302  -0.836   3.438  0.00  0.00    +0.000 A 
ATOM      3  C   UNL     1       5.183  -1.286   4.419  0.00  0.00    +0.000 A 
ATOM      4  C   UNL     1       5.002  -2.549   4.985  0.00  0.00    +0.000 A 
ATOM      5  C   UNL     1       3.991  -3.343   4.455  0.00  0.00    +0.000 A 
ATOM      6  N   UNL     1       3.130  -2.938   3.492  0.00  0.00    +0.000 NA
ENDROOT
BRANCH   1   7
ATOM      7  C   UNL     1       2.242  -1.181   2.025  0.00  0.00    +0.000 C 
BRANCH   7  10
ATOM      8  O   UNL     1      -0.009   0.052   0.837  0.00  0.00    +0.000 OA
ATOM      9  C   UNL     1       0.081   0.014   2.062  0.00  0.00    +0.000 C 
ATOM     10  N   UNL     1       1.096  -0.633   2.714  0.00  0.00    +0.000 N 
ATOM     11  H   UNL     1       1.137  -0.622   3.724  0.00  0.00    +0.000 HD
BRANCH   9  12
ATOM     12  C   UNL     1      -0.944   0.593   2.934  0.00  0.00    +0.000 A 
ATOM     13  C   UNL     1      -2.272   0.669   2.546  0.00  0.00    +0.000 A 
ATOM     14  S   UNL     1      -3.293   1.291   3.765  0.00  0.00    +0.000 S 
ATOM     15  C   UNL     1      -1.982   1.525   4.829  0.00  0.00    +0.000 A 
ATOM     16  N   UNL     1      -2.168   2.014   6.090  0.00  0.00    +0.000 NA
ATOM     17  C   UNL     1      -1.078   2.137   6.767  0.00  0.00    +0.000 A 
ATOM     18  N   UNL     1       0.185   1.846   6.309  0.00  0.00    +0.000 N 
ATOM     19  C   UNL     1       0.417   1.395   5.030  0.00  0.00    +0.000 A 
ATOM     20  O   UNL     1       1.558   1.198   4.626  0.00  0.00    +0.000 OA
ATOM     21  C   UNL     1      -0.783   1.164   4.248  0.00  0.00    +0.000 A 
ATOM     22  H   UNL     1       1.000   1.989   6.886  0.00  0.00    +0.000 HD
ENDBRANCH   9  12
ENDBRANCH   7  10
ENDBRANCH   1   7
BRANCH   4  23
ATOM     23  C   UNL     1       5.816  -3.003   6.174  0.00  0.00    +0.000 C 
BRANCH  23  24
ATOM     24  N   UNL     1       5.688  -2.099   7.361  0.00  0.00    +0.000 NA
BRANCH  24  25
ATOM     25  C   UNL     1       4.273  -2.063   7.823  0.00  0.00    +0.000 C 
BRANCH  25  26
ATOM     26  C   UNL     1       3.966  -1.137   9.018  0.00  0.00    +0.000 C 
BRANCH  26  27
ATOM     27  O   UNL     1       4.337   0.213   8.764  0.00  0.00    +0.000 OA
ATOM     28  H   UNL     1       5.304   0.215   8.647  0.00  0.00    +0.000 HD
ENDBRANCH  26  27
ENDBRANCH  25  26
ENDBRANCH  24  25
BRANCH  24  29
ATOM     29  C   UNL     1       6.582  -2.581   8.445  0.00  0.00    +0.000 C 
BRANCH  29  30
ATOM     30  C   UNL     1       8.052  -2.572   8.083  0.00  0.00    +0.000 A 
ATOM     31  C   UNL     1       8.704  -1.396   7.734  0.00  0.00    +0.000 A 
ATOM     32  C   UNL     1      10.022  -1.471   7.309  0.00  0.00    +0.000 A 
ATOM     33  C   UNL     1      10.620  -2.714   7.267  0.00  0.00    +0.000 A 
ATOM     34  N   UNL     1       9.981  -3.841   7.639  0.00  0.00    +0.000 NA
ATOM     35  N   UNL     1       8.684  -3.769   8.049  0.00  0.00    +0.000 NA
ENDBRANCH  29  30
ENDBRANCH  24  29
ENDBRANCH  23  24
ENDBRANCH   4  23
TORSDOF 10
