REMARK  Name = 
REMARK  12 active torsions:
REMARK  status: ('A' for Active; 'I' for Inactive)
REMARK    1  A    between atoms: C_1  and  C_2
REMARK    2  A    between atoms: C_2  and  N_3
REMARK    3  A    between atoms: C_2  and  C_19
REMARK    4  A    between atoms: C_4  and  C_6
REMARK    5  A    between atoms: N_11  and  C_12
REMARK    6  A    between atoms: C_12  and  C_13
REMARK    7  A    between atoms: C_13  and  N_14
REMARK    8  A    between atoms: N_14  and  S_15
REMARK    9  A    between atoms: S_15  and  C_16
REMARK   10  A    between atoms: C_22  and  C_23
REMARK   11  A    between atoms: C_23  and  N_24
REMARK   12  A    between atoms: C_25  and  C_27
REMARK                            x       y       z     vdW  Elec       q    Type
REMARK                         _______ _______ _______ _____ _____    ______ ____
ROOT
ATOM      1  C   UNL     1       3.047   0.921  -1.125  0.00  0.00    +0.000 A 
ATOM      2  C   UNL     1       3.293   2.276  -0.835  0.00  0.00    +0.000 A 
ATOM      3  C   UNL     1       3.680   3.176  -1.837  0.00  0.00    +0.000 A 
ATOM      4  C   UNL     1       3.814   2.751  -3.164  0.00  0.00    +0.000 A 
ATOM      5  C   UNL     1       3.606   1.396  -3.452  0.00  0.00    +0.000 A 
ATOM      6  C   UNL     1       3.213   0.498  -2.451  0.00  0.00    +0.000 A 
ENDROOT
BRANCH   1   8
ATOM      7  C   UNL     1       3.063  -1.455  -0.132  0.00  0.00    +0.000 C 
ATOM      8  C   UNL     1       2.585  -0.007  -0.008  0.00  0.00    +0.000 C 
BRANCH   8   9
ATOM      9  N   UNL     1       1.138   0.022   0.094  0.00  0.00    +0.000 N 
ATOM     10  C   UNL     1       0.467  -0.173   1.280  0.00  0.00    +0.000 C 
ATOM     11  O   UNL     1       1.038  -0.402   2.345  0.00  0.00    +0.000 OA
ATOM     12  H   UNL     1       0.571   0.222  -0.724  0.00  0.00    +0.000 HD
BRANCH  10  13
ATOM     13  C   UNL     1      -1.077  -0.151   1.165  0.00  0.00    +0.000 C 
ATOM     14  C   UNL     1      -1.538  -1.607   0.958  0.00  0.00    +0.000 C 
ATOM     15  C   UNL     1      -3.049  -1.714   0.787  0.00  0.00    +0.000 C 
ATOM     16  C   UNL     1      -3.518  -0.775  -0.309  0.00  0.00    +0.000 C 
ATOM     17  C   UNL     1      -3.019   0.645  -0.064  0.00  0.00    +0.000 C 
ATOM     18  N   UNL     1      -1.541   0.715   0.029  0.00  0.00    +0.000 NA
BRANCH  18  19
ATOM     19  C   UNL     1      -1.118   2.129   0.203  0.00  0.00    +0.000 C 
BRANCH  19  20
ATOM     20  C   UNL     1      -1.425   2.977  -1.048  0.00  0.00    +0.000 C 
BRANCH  20  21
ATOM     21  N   UNL     1      -0.926   4.351  -0.895  0.00  0.00    +0.000 NA
ATOM     22  H   UNL     1       0.012   4.463  -0.513  0.00  0.00    +0.000 HD
BRANCH  21  23
ATOM     23  S   UNL     1      -1.252   5.403  -2.176  0.00  0.00    +0.000 S 
ATOM     24  C   UNL     1       0.059   4.990  -3.314  0.00  0.00    +0.000 C 
ATOM     25  O   UNL     1      -2.511   5.032  -2.769  0.00  0.00    +0.000 OA
ATOM     26  O   UNL     1      -0.993   6.735  -1.683  0.00  0.00    +0.000 OA
ENDBRANCH  21  23
ENDBRANCH  20  21
ENDBRANCH  19  20
ENDBRANCH  18  19
ENDBRANCH  10  13
ENDBRANCH   8   9
ENDBRANCH   1   8
BRANCH   4  27
ATOM     27  C   UNL     1       4.190   3.714  -4.264  0.00  0.00    +0.000 C 
BRANCH  27  28
ATOM     28  N   UNL     1       5.615   3.801  -4.436  0.00  0.00    +0.000 N 
ATOM     29  C   UNL     1       6.171   4.657  -5.356  0.00  0.00    +0.000 C 
ATOM     30  O   UNL     1       5.487   5.415  -6.037  0.00  0.00    +0.000 OA
ATOM     31  H   UNL     1       6.168   3.026  -4.089  0.00  0.00    +0.000 HD
BRANCH  29  32
ATOM     32  C   UNL     1       7.637   4.661  -5.434  0.00  0.00    +0.000 A 
ATOM     33  C   UNL     1       8.304   5.791  -5.889  0.00  0.00    +0.000 A 
ATOM     34  S   UNL     1      10.003   5.639  -5.861  0.00  0.00    +0.000 S 
ATOM     35  C   UNL     1       9.907   4.039  -5.291  0.00  0.00    +0.000 A 
ATOM     36  N   UNL     1      11.030   3.303  -5.075  0.00  0.00    +0.000 NA
ATOM     37  C   UNL     1      10.809   2.097  -4.669  0.00  0.00    +0.000 A 
ATOM     38  N   UNL     1       9.565   1.563  -4.452  0.00  0.00    +0.000 N 
ATOM     39  C   UNL     1       8.405   2.279  -4.623  0.00  0.00    +0.000 A 
ATOM     40  O   UNL     1       7.310   1.789  -4.364  0.00  0.00    +0.000 OA
ATOM     41  C   UNL     1       8.597   3.635  -5.100  0.00  0.00    +0.000 A 
ATOM     42  H   UNL     1       9.460   0.617  -4.116  0.00  0.00    +0.000 HD
ENDBRANCH  29  32
ENDBRANCH  27  28
ENDBRANCH   4  27
TORSDOF 10
