REMARK  Name = 
REMARK  7 active torsions:
REMARK  status: ('A' for Active; 'I' for Inactive)
REMARK    1  A    between atoms: C_1  and  N_2
REMARK    2  A    between atoms: C_8  and  C_9
REMARK    3  A    between atoms: N_11  and  C_12
REMARK    4  A    between atoms: C_12  and  C_13
REMARK    5  A    between atoms: N_16  and  C_17
REMARK    6  A    between atoms: C_17  and  C_18
REMARK    7  A    between atoms: C_19  and  C_20
REMARK                            x       y       z     vdW  Elec       q    Type
REMARK                         _______ _______ _______ _____ _____    ______ ____
ROOT
ATOM      1  C   UNL     1       6.135  -5.996   0.168  0.00  0.00    +0.000 C 
ENDROOT
BRANCH   1   2
ATOM      2  C   UNL     1       7.589  -6.460  -0.025  0.00  0.00    +0.000 C 
ATOM      3  C   UNL     1       8.258  -5.805  -1.242  0.00  0.00    +0.000 C 
ATOM      4  C   UNL     1       7.755  -6.385  -2.561  0.00  0.00    +0.000 C 
ATOM      5  N   UNL     1       8.031  -7.827  -2.608  0.00  0.00    +0.000 NA
ATOM      6  C   UNL     1       7.307  -8.525  -1.535  0.00  0.00    +0.000 C 
ATOM      7  C   UNL     1       7.685  -7.989  -0.148  0.00  0.00    +0.000 C 
BRANCH   5   8
ATOM      8  C   UNL     1       7.701  -8.405  -3.919  0.00  0.00    +0.000 C 
BRANCH   8   9
ATOM      9  C   UNL     1       8.556  -7.821  -5.008  0.00  0.00    +0.000 C 
ATOM     10  C   UNL     1       8.074  -7.158  -6.074  0.00  0.00    +0.000 C 
BRANCH  10  11
ATOM     11  C   UNL     1       8.914  -6.538  -7.109  0.00  0.00    +0.000 A 
ATOM     12  C   UNL     1      10.159  -7.067  -7.476  0.00  0.00    +0.000 A 
ATOM     13  C   UNL     1      10.923  -6.467  -8.479  0.00  0.00    +0.000 A 
ATOM     14  C   UNL     1      10.447  -5.336  -9.137  0.00  0.00    +0.000 A 
ATOM     15  C   UNL     1       9.205  -4.806  -8.794  0.00  0.00    +0.000 A 
ATOM     16  C   UNL     1       8.441  -5.406  -7.788  0.00  0.00    +0.000 A 
ENDBRANCH  10  11
ENDBRANCH   8   9
ENDBRANCH   5   8
ENDBRANCH   1   2
BRANCH   1  19
ATOM     17  C   UNL     1       6.226  -3.890   1.499  0.00  0.00    +0.000 C 
ATOM     18  O   UNL     1       6.456  -4.473   2.555  0.00  0.00    +0.000 OA
ATOM     19  N   UNL     1       6.043  -4.560   0.318  0.00  0.00    +0.000 N 
ATOM     20  H   UNL     1       5.804  -4.034  -0.516  0.00  0.00    +0.000 HD
BRANCH  17  28
ATOM     21  C   UNL     1       3.747  -0.969  -2.757  0.00  0.00    +0.000 C 
ATOM     22  N   UNL     1       4.474  -0.734  -1.527  0.00  0.00    +0.000 N 
ATOM     23  C   UNL     1       4.769   0.547  -1.115  0.00  0.00    +0.000 A 
ATOM     24  N   UNL     1       5.422   0.857  -0.043  0.00  0.00    +0.000 NA
ATOM     25  C   UNL     1       5.823  -0.205   0.701  0.00  0.00    +0.000 A 
ATOM     26  S   UNL     1       6.676   0.021   2.156  0.00  0.00    +0.000 S 
ATOM     27  C   UNL     1       6.770  -1.660   2.425  0.00  0.00    +0.000 A 
ATOM     28  C   UNL     1       6.190  -2.421   1.417  0.00  0.00    +0.000 A 
ATOM     29  C   UNL     1       5.619  -1.541   0.418  0.00  0.00    +0.000 A 
ATOM     30  C   UNL     1       4.893  -1.845  -0.804  0.00  0.00    +0.000 A 
ATOM     31  O   UNL     1       4.687  -2.994  -1.189  0.00  0.00    +0.000 OA
ENDBRANCH  17  28
ENDBRANCH   1  19
TORSDOF 6
