REMARK  Name = 
REMARK  5 active torsions:
REMARK  status: ('A' for Active; 'I' for Inactive)
REMARK    1  A    between atoms: C_2  and  C_4
REMARK    2  A    between atoms: C_7  and  O_8
REMARK    3  A    between atoms: O_8  and  C_9
REMARK    4  A    between atoms: C_9  and  C_10
REMARK    5  A    between atoms: C_14  and  C_15
REMARK                            x       y       z     vdW  Elec       q    Type
REMARK                         _______ _______ _______ _____ _____    ______ ____
ROOT
ATOM      1  C   UNL     1       5.428  -5.097   2.345  0.00  0.00    +0.000 C 
ENDROOT
BRANCH   1   2
ATOM      2  C   UNL     1       6.474  -5.906   3.068  0.00  0.00    +0.000 A 
ATOM      3  C   UNL     1       6.353  -7.290   3.104  0.00  0.00    +0.000 A 
ATOM      4  N   UNL     1       7.212  -8.108   3.745  0.00  0.00    +0.000 NA
ATOM      5  C   UNL     1       8.246  -7.514   4.391  0.00  0.00    +0.000 A 
ATOM      6  C   UNL     1       8.494  -6.139   4.424  0.00  0.00    +0.000 A 
ATOM      7  C   UNL     1       7.570  -5.342   3.730  0.00  0.00    +0.000 A 
BRANCH   6   8
ATOM      8  C   UNL     1       9.644  -5.555   5.148  0.00  0.00    +0.000 A 
ATOM      9  C   UNL     1      10.865  -6.247   5.278  0.00  0.00    +0.000 A 
ATOM     10  C   UNL     1      11.953  -5.694   5.965  0.00  0.00    +0.000 A 
ATOM     11  C   UNL     1      11.847  -4.426   6.527  0.00  0.00    +0.000 A 
ATOM     12  C   UNL     1      10.656  -3.729   6.404  0.00  0.00    +0.000 A 
ATOM     13  F   UNL     1      10.549  -2.506   6.939  0.00  0.00    +0.000 F 
ATOM     14  C   UNL     1       9.566  -4.279   5.736  0.00  0.00    +0.000 A 
ENDBRANCH   6   8
ENDBRANCH   1   2
BRANCH   1  15
ATOM     15  O   UNL     1       5.701  -3.689   2.396  0.00  0.00    +0.000 OA
BRANCH  15  19
ATOM     16  C   UNL     1       2.771  -1.445   0.567  0.00  0.00    +0.000 A 
ATOM     17  C   UNL     1       3.862  -0.804   1.155  0.00  0.00    +0.000 A 
ATOM     18  C   UNL     1       4.855  -1.572   1.771  0.00  0.00    +0.000 A 
ATOM     19  C   UNL     1       4.716  -2.952   1.771  0.00  0.00    +0.000 A 
ATOM     20  N   UNL     1       3.675  -3.597   1.203  0.00  0.00    +0.000 NA
ATOM     21  C   UNL     1       2.720  -2.831   0.625  0.00  0.00    +0.000 A 
BRANCH  16  23
ATOM     22  N   UNL     1       1.896   0.494  -0.619  0.00  0.00    +0.000 N 
ATOM     23  C   UNL     1       1.648  -0.739  -0.083  0.00  0.00    +0.000 C 
ATOM     24  O   UNL     1       0.541  -1.254  -0.172  0.00  0.00    +0.000 OA
ATOM     25  H   UNL     1       1.140   0.902  -1.152  0.00  0.00    +0.000 HD
ATOM     26  H   UNL     1       2.830   0.837  -0.792  0.00  0.00    +0.000 HD
ENDBRANCH  16  23
ENDBRANCH  15  19
ENDBRANCH   1  15
TORSDOF 5
