REMARK  Name = 
REMARK  4 active torsions:
REMARK  status: ('A' for Active; 'I' for Inactive)
REMARK    1  A    between atoms: C_1  and  O_2
REMARK    2  A    between atoms: O_2  and  C_3
REMARK    3  A    between atoms: N_10  and  C_11
REMARK    4  A    between atoms: C_11  and  C_12
REMARK                            x       y       z     vdW  Elec       q    Type
REMARK                         _______ _______ _______ _____ _____    ______ ____
ROOT
ATOM      1  C   UNL     1       3.034   0.562  -1.201  0.00  0.00    +0.000 A 
ATOM      2  C   UNL     1       2.560   1.795  -1.638  0.00  0.00    +0.000 A 
ATOM      3  C   UNL     1       3.157   2.463  -2.716  0.00  0.00    +0.000 A 
ATOM      4  C   UNL     1       4.253   1.856  -3.353  0.00  0.00    +0.000 A 
ATOM      5  C   UNL     1       4.742   0.615  -2.931  0.00  0.00    +0.000 A 
ATOM      6  C   UNL     1       5.830   0.279  -3.780  0.00  0.00    +0.000 A 
ATOM      7  C   UNL     1       5.994   1.306  -4.678  0.00  0.00    +0.000 A 
ATOM      8  N   UNL     1       5.047   2.264  -4.408  0.00  0.00    +0.000 N 
ATOM      9  C   UNL     1       4.135  -0.026  -1.834  0.00  0.00    +0.000 A 
ENDROOT
BRANCH   1  11
ATOM     10  C   UNL     1       1.149   0.060   0.133  0.00  0.00    +0.000 C 
ATOM     11  O   UNL     1       2.531  -0.143  -0.140  0.00  0.00    +0.000 OA
ENDBRANCH   1  11
BRANCH   8  12
ATOM     12  C   UNL     1       4.979   3.555  -5.085  0.00  0.00    +0.000 C 
BRANCH  12  13
ATOM     13  C   UNL     1       4.135   3.498  -6.315  0.00  0.00    +0.000 A 
ATOM     14  C   UNL     1       2.803   3.863  -6.321  0.00  0.00    +0.000 A 
ATOM     15  N   UNL     1       2.010   3.798  -7.408  0.00  0.00    +0.000 NA
ATOM     16  C   UNL     1       2.590   3.339  -8.526  0.00  0.00    +0.000 A 
ATOM     17  N   UNL     1       3.874   2.973  -8.652  0.00  0.00    +0.000 NA
ATOM     18  C   UNL     1       4.619   3.060  -7.533  0.00  0.00    +0.000 A 
ENDBRANCH  12  13
ENDBRANCH   8  12
TORSDOF 3
