REMARK  Name = 
REMARK  6 active torsions:
REMARK  status: ('A' for Active; 'I' for Inactive)
REMARK    1  A    between atoms: C_1  and  N_2
REMARK    2  A    between atoms: C_3  and  C_5
REMARK    3  A    between atoms: C_8  and  C_9
REMARK    4  A    between atoms: C_9  and  C_10
REMARK    5  A    between atoms: C_9  and  O_11
REMARK    6  A    between atoms: O_11  and  C_12
REMARK                            x       y       z     vdW  Elec       q    Type
REMARK                         _______ _______ _______ _____ _____    ______ ____
ROOT
ATOM      1  C   UNL     1       4.673   0.478  -1.312  0.00  0.00    +0.000 A 
ATOM      2  C   UNL     1       5.266   0.748  -0.092  0.00  0.00    +0.000 A 
ATOM      3  N   UNL     1       6.614   0.767   0.067  0.00  0.00    +0.000 NA
ATOM      4  C   UNL     1       7.362   0.510  -1.042  0.00  0.00    +0.000 A 
ATOM      5  C   UNL     1       6.746   0.203  -2.257  0.00  0.00    +0.000 A 
ATOM      6  N   UNL     1       5.398   0.188  -2.432  0.00  0.00    +0.000 NA
ENDROOT
BRANCH   1   9
ATOM      7  C   UNL     1       1.281   0.289  -2.964  0.00  0.00    +0.000 C 
ATOM      8  N   UNL     1       2.692   0.257  -2.687  0.00  0.00    +0.000 N 
ATOM      9  C   UNL     1       3.189   0.538  -1.431  0.00  0.00    +0.000 C 
ATOM     10  O   UNL     1       2.486   0.828  -0.471  0.00  0.00    +0.000 OA
ATOM     11  H   UNL     1       3.366   0.033  -3.411  0.00  0.00    +0.000 HD
ENDBRANCH   1   9
BRANCH   4  12
ATOM     12  C   UNL     1       8.882   0.610  -0.950  0.00  0.00    +0.000 C 
ATOM     13  C   UNL     1       9.270   1.578   0.176  0.00  0.00    +0.000 C 
BRANCH  12  14
ATOM     14  O   UNL     1       9.402  -0.706  -0.712  0.00  0.00    +0.000 OA
BRANCH  14  15
ATOM     15  C   UNL     1      10.674  -1.000  -1.120  0.00  0.00    +0.000 A 
ATOM     16  C   UNL     1      11.676  -0.076  -1.421  0.00  0.00    +0.000 A 
ATOM     17  C   UNL     1      12.953  -0.509  -1.797  0.00  0.00    +0.000 A 
ATOM     18  C   UNL     1      13.228  -1.871  -1.889  0.00  0.00    +0.000 A 
ATOM     19 CL   UNL     1      14.793  -2.393  -2.372  0.00  0.00    +0.000 Cl
ATOM     20  C   UNL     1      12.239  -2.803  -1.593  0.00  0.00    +0.000 A 
ATOM     21  C   UNL     1      10.970  -2.366  -1.199  0.00  0.00    +0.000 A 
ENDBRANCH  14  15
ENDBRANCH  12  14
ENDBRANCH   4  12
TORSDOF 4
