REMARK  Name = 
REMARK  4 active torsions:
REMARK  status: ('A' for Active; 'I' for Inactive)
REMARK    1  A    between atoms: C_2  and  C_4
REMARK    2  A    between atoms: C_7  and  N_8
REMARK    3  A    between atoms: N_8  and  C_9
REMARK    4  A    between atoms: C_9  and  C_10
REMARK                            x       y       z     vdW  Elec       q    Type
REMARK                         _______ _______ _______ _____ _____    ______ ____
ROOT
ATOM      1  C   UNL     1       2.724   0.981  -0.853  0.00  0.00    +0.000 A 
ATOM      2  C   UNL     1       2.245   1.489  -2.078  0.00  0.00    +0.000 A 
ATOM      3  C   UNL     1       3.052   2.326  -2.855  0.00  0.00    +0.000 A 
ATOM      4  C   UNL     1       4.328   2.665  -2.438  0.00  0.00    +0.000 A 
ATOM      5  C   UNL     1       4.815   2.122  -1.235  0.00  0.00    +0.000 A 
ATOM      6  C   UNL     1       4.014   1.303  -0.443  0.00  0.00    +0.000 A 
ENDROOT
BRANCH   1   8
ATOM      7  N   UNL     1       0.921  -0.616  -0.504  0.00  0.00    +0.000 N 
ATOM      8  C   UNL     1       1.908   0.140   0.057  0.00  0.00    +0.000 C 
ATOM      9  O   UNL     1       2.134   0.095   1.258  0.00  0.00    +0.000 OA
ATOM     10  H   UNL     1       0.466  -1.270   0.118  0.00  0.00    +0.000 HD
ATOM     11  H   UNL     1       0.893  -0.807  -1.494  0.00  0.00    +0.000 HD
ENDBRANCH   1   8
BRANCH   4  12
ATOM     12  N   UNL     1       5.198   3.565  -3.090  0.00  0.00    +0.000 N 
ATOM     13  H   UNL     1       6.075   3.081  -3.309  0.00  0.00    +0.000 HD
BRANCH  12  14
ATOM     14  C   UNL     1       4.807   4.471  -4.193  0.00  0.00    +0.000 C 
ATOM     15  C   UNL     1       5.020   5.946  -3.871  0.00  0.00    +0.000 C 
ATOM     16  C   UNL     1       3.635   5.426  -4.094  0.00  0.00    +0.000 C 
BRANCH  14  17
ATOM     17  C   UNL     1       5.313   3.931  -5.541  0.00  0.00    +0.000 A 
ATOM     18  N   UNL     1       4.439   3.360  -6.393  0.00  0.00    +0.000 NA
ATOM     19  C   UNL     1       4.944   2.468  -7.269  0.00  0.00    +0.000 A 
ATOM     20  C   UNL     1       6.280   2.135  -7.330  0.00  0.00    +0.000 A 
ATOM     21  C   UNL     1       7.104   2.841  -6.493  0.00  0.00    +0.000 A 
ATOM     22  N   UNL     1       6.656   3.742  -5.615  0.00  0.00    +0.000 NA
ENDBRANCH  14  17
ENDBRANCH  12  14
ENDBRANCH   4  12
TORSDOF 4
