REMARK  Name = 
REMARK  5 active torsions:
REMARK  status: ('A' for Active; 'I' for Inactive)
REMARK    1  A    between atoms: C_2  and  C_5
REMARK    2  A    between atoms: C_9  and  C_10
REMARK    3  A    between atoms: C_10  and  N_11
REMARK    4  A    between atoms: N_11  and  C_12
REMARK    5  A    between atoms: C_16  and  C_17
REMARK                            x       y       z     vdW  Elec       q    Type
REMARK                         _______ _______ _______ _____ _____    ______ ____
ROOT
ATOM      1  N   UNL     1       3.926  -4.854  -3.391  0.00  0.00    +0.000 N 
ATOM      2  H   UNL     1       3.227  -4.623  -2.689  0.00  0.00    +0.000 HD
ENDROOT
BRANCH   1   3
ATOM      3  C   UNL     1       3.891  -6.214  -3.730  0.00  0.00    +0.000 A 
ATOM      4  C   UNL     1       2.717  -6.946  -3.518  0.00  0.00    +0.000 A 
ATOM      5  C   UNL     1       2.626  -8.290  -3.890  0.00  0.00    +0.000 A 
ATOM      6  C   UNL     1       3.699  -8.915  -4.521  0.00  0.00    +0.000 A 
ATOM      7  C   UNL     1       4.861  -8.193  -4.814  0.00  0.00    +0.000 A 
ATOM      8  C   UNL     1       4.936  -6.849  -4.415  0.00  0.00    +0.000 A 
BRANCH   7   9
ATOM      9  C   UNL     1       6.018  -8.798  -5.587  0.00  0.00    +0.000 C 
ATOM     10  C   UNL     1       5.584  -9.236  -6.992  0.00  0.00    +0.000 C 
ATOM     11  C   UNL     1       6.729  -9.927  -7.717  0.00  0.00    +0.000 C 
ATOM     12  O   UNL     1       7.232 -11.016  -6.945  0.00  0.00    +0.000 OA
ATOM     13  C   UNL     1       7.773 -10.585  -5.697  0.00  0.00    +0.000 C 
ATOM     14  C   UNL     1       6.693  -9.949  -4.831  0.00  0.00    +0.000 C 
ENDBRANCH   7   9
ENDBRANCH   1   3
BRANCH   1  15
ATOM     15  C   UNL     1       5.223  -4.274  -3.060  0.00  0.00    +0.000 C 
BRANCH  15  20
ATOM     16  C   UNL     1       4.521  -0.562  -3.631  0.00  0.00    +0.000 A 
ATOM     17  C   UNL     1       4.850  -0.034  -2.375  0.00  0.00    +0.000 A 
ATOM     18  C   UNL     1       5.285  -0.869  -1.345  0.00  0.00    +0.000 A 
ATOM     19  C   UNL     1       5.396  -2.244  -1.557  0.00  0.00    +0.000 A 
ATOM     20  C   UNL     1       5.071  -2.795  -2.801  0.00  0.00    +0.000 A 
ATOM     21  C   UNL     1       4.637  -1.946  -3.832  0.00  0.00    +0.000 A 
BRANCH  16  23
ATOM     22  F   UNL     1       3.955   1.637  -4.417  0.00  0.00    +0.000 F 
ATOM     23  C   UNL     1       4.061   0.323  -4.762  0.00  0.00    +0.000 C 
ATOM     24  F   UNL     1       2.838  -0.034  -5.243  0.00  0.00    +0.000 F 
ATOM     25  F   UNL     1       4.908   0.287  -5.828  0.00  0.00    +0.000 F 
ENDBRANCH  16  23
ENDBRANCH  15  20
ENDBRANCH   1  15
TORSDOF 5
