REMARK  Name = 
REMARK  4 active torsions:
REMARK  status: ('A' for Active; 'I' for Inactive)
REMARK    1  A    between atoms: C_2  and  C_4
REMARK    2  A    between atoms: C_7  and  O_8
REMARK    3  A    between atoms: O_8  and  C_9
REMARK    4  A    between atoms: C_9  and  C_10
REMARK                            x       y       z     vdW  Elec       q    Type
REMARK                         _______ _______ _______ _____ _____    ______ ____
ROOT
ATOM      1  C   UNL     1       2.694  -1.425  -0.589  0.00  0.00    +0.000 A 
ATOM      2  C   UNL     1       2.498  -2.796  -0.363  0.00  0.00    +0.000 A 
ATOM      3  C   UNL     1       3.442  -3.725  -0.811  0.00  0.00    +0.000 A 
ATOM      4  C   UNL     1       4.562  -3.287  -1.513  0.00  0.00    +0.000 A 
ATOM      5  C   UNL     1       4.778  -1.922  -1.711  0.00  0.00    +0.000 A 
ATOM      6  C   UNL     1       3.841  -0.991  -1.259  0.00  0.00    +0.000 A 
ENDROOT
BRANCH   1   8
ATOM      7  N   UNL     1       0.867  -0.735   0.872  0.00  0.00    +0.000 N 
ATOM      8  C   UNL     1       1.695  -0.410  -0.166  0.00  0.00    +0.000 C 
ATOM      9  O   UNL     1       1.625   0.687  -0.704  0.00  0.00    +0.000 OA
ATOM     10  H   UNL     1       0.257   0.000   1.207  0.00  0.00    +0.000 HD
ATOM     11  H   UNL     1       1.057  -1.506   1.498  0.00  0.00    +0.000 HD
ENDBRANCH   1   8
BRANCH   4  12
ATOM     12  O   UNL     1       5.513  -4.126  -2.025  0.00  0.00    +0.000 OA
BRANCH  12  13
ATOM     13  C   UNL     1       5.085  -5.363  -2.656  0.00  0.00    +0.000 C 
ATOM     14  C   UNL     1       5.086  -5.230  -4.178  0.00  0.00    +0.000 C 
ATOM     15  C   UNL     1       3.797  -5.443  -3.463  0.00  0.00    +0.000 C 
BRANCH  13  16
ATOM     16  C   UNL     1       5.682  -6.636  -2.074  0.00  0.00    +0.000 A 
ATOM     17  C   UNL     1       4.886  -7.615  -1.450  0.00  0.00    +0.000 A 
ATOM     18  C   UNL     1       5.432  -8.819  -0.993  0.00  0.00    +0.000 A 
ATOM     19  C   UNL     1       6.795  -9.057  -1.135  0.00  0.00    +0.000 A 
ATOM     20 CL   UNL     1       7.463 -10.555  -0.615  0.00  0.00    +0.000 Cl
ATOM     21  C   UNL     1       7.618  -8.093  -1.709  0.00  0.00    +0.000 A 
ATOM     22  C   UNL     1       7.062  -6.895  -2.169  0.00  0.00    +0.000 A 
ENDBRANCH  13  16
ENDBRANCH  12  13
ENDBRANCH   4  12
TORSDOF 4
