REMARK  Name = 
REMARK  6 active torsions:
REMARK  status: ('A' for Active; 'I' for Inactive)
REMARK    1  A    between atoms: C_4  and  O_5
REMARK    2  A    between atoms: O_5  and  C_6
REMARK    3  A    between atoms: C_6  and  C_7
REMARK    4  A    between atoms: C_7  and  C_8
REMARK    5  A    between atoms: C_12  and  C_13
REMARK    6  A    between atoms: C_13  and  C_14
REMARK                            x       y       z     vdW  Elec       q    Type
REMARK                         _______ _______ _______ _____ _____    ______ ____
ROOT
ATOM      1  C   UNL     1      -5.979  -1.334  -0.571  0.00  0.00    +0.000 A 
ATOM      2  C   UNL     1      -5.416  -2.604  -0.529  0.00  0.00    +0.000 A 
ATOM      3  C   UNL     1      -6.244  -3.706  -0.711  0.00  0.00    +0.000 A 
ATOM      4  C   UNL     1      -7.605  -3.518  -0.932  0.00  0.00    +0.000 A 
ATOM      5  C   UNL     1      -8.107  -2.224  -0.958  0.00  0.00    +0.000 A 
ATOM      6  N   UNL     1      -7.311  -1.145  -0.764  0.00  0.00    +0.000 NA
ENDROOT
BRANCH   1   7
ATOM      7  C   UNL     1      -5.105  -0.107  -0.430  0.00  0.00    +0.000 C 
BRANCH   7   8
ATOM      8  C   UNL     1      -5.929   1.172  -0.572  0.00  0.00    +0.000 C 
BRANCH   8   9
ATOM      9  O   UNL     1      -5.115   2.341  -0.446  0.00  0.00    +0.000 OA
BRANCH   9  13
ATOM     10  C   UNL     1      -7.019   6.056  -0.645  0.00  0.00    +0.000 A 
ATOM     11  C   UNL     1      -7.790   4.906  -0.797  0.00  0.00    +0.000 A 
ATOM     12  C   UNL     1      -7.186   3.649  -0.741  0.00  0.00    +0.000 A 
ATOM     13  C   UNL     1      -5.807   3.527  -0.529  0.00  0.00    +0.000 A 
ATOM     14  C   UNL     1      -5.042   4.684  -0.383  0.00  0.00    +0.000 A 
ATOM     15  C   UNL     1      -5.644   5.946  -0.439  0.00  0.00    +0.000 A 
ENDBRANCH   9  13
ENDBRANCH   8   9
ENDBRANCH   7   8
ENDBRANCH   1   7
BRANCH   5  16
ATOM     16  C   UNL     1      -9.563  -1.961  -1.249  0.00  0.00    +0.000 C 
BRANCH  16  17
ATOM     17  C   UNL     1     -10.385  -1.885   0.033  0.00  0.00    +0.000 C 
ATOM     18  C   UNL     1     -10.567  -3.160   0.892  0.00  0.00    +0.000 C 
ATOM     19  C   UNL     1     -12.047  -2.759   0.960  0.00  0.00    +0.000 C 
ATOM     20  N   UNL     1     -11.847  -1.961  -0.264  0.00  0.00    +0.000 NA
ATOM     21  H   UNL     1     -12.330  -1.063  -0.268  0.00  0.00    +0.000 HD
ENDBRANCH  16  17
ENDBRANCH   5  16
TORSDOF 6
