REMARK  Name = 
REMARK  4 active torsions:
REMARK  status: ('A' for Active; 'I' for Inactive)
REMARK    1  A    between atoms: C_4  and  C_5
REMARK    2  A    between atoms: C_9  and  C_10
REMARK    3  A    between atoms: C_10  and  C_11
REMARK    4  A    between atoms: C_11  and  N_12
REMARK                            x       y       z     vdW  Elec       q    Type
REMARK                         _______ _______ _______ _____ _____    ______ ____
ROOT
ATOM      1  C   UNL     1      -1.332  -2.463  -0.025  0.00  0.00    +0.000 A 
ATOM      2  C   UNL     1      -2.258  -2.875  -0.980  0.00  0.00    +0.000 A 
ATOM      3  N   UNL     1      -2.949  -4.041  -0.946  0.00  0.00    +0.000 NA
ATOM      4  C   UNL     1      -2.702  -4.860   0.099  0.00  0.00    +0.000 A 
ATOM      5  C   UNL     1      -1.804  -4.577   1.122  0.00  0.00    +0.000 A 
ATOM      6  C   UNL     1      -1.118  -3.356   1.037  0.00  0.00    +0.000 A 
ENDROOT
BRANCH   1  10
ATOM      7  C   UNL     1       0.927   1.103  -0.303  0.00  0.00    +0.000 A 
ATOM      8  C   UNL     1      -0.374   1.115  -0.786  0.00  0.00    +0.000 A 
ATOM      9  C   UNL     1      -1.149  -0.039  -0.694  0.00  0.00    +0.000 A 
ATOM     10  C   UNL     1      -0.600  -1.189  -0.124  0.00  0.00    +0.000 A 
ATOM     11  N   UNL     1       0.666  -1.198   0.371  0.00  0.00    +0.000 NA
ATOM     12  C   UNL     1       1.396  -0.065   0.268  0.00  0.00    +0.000 A 
ENDBRANCH   1  10
BRANCH   5  13
ATOM     13  C   UNL     1      -1.627  -5.575   2.244  0.00  0.00    +0.000 C 
BRANCH  13  14
ATOM     14  C   UNL     1      -0.629  -5.156   3.327  0.00  0.00    +0.000 C 
BRANCH  14  15
ATOM     15  N   UNL     1      -0.533  -6.150   4.387  0.00  0.00    +0.000 N 
ATOM     16  C   UNL     1       0.340  -5.743   5.400  0.00  0.00    +0.000 A 
ATOM     17  N   UNL     1       0.495  -4.436   5.661  0.00  0.00    +0.000 NA
ATOM     18  C   UNL     1       1.379  -4.094   6.610  0.00  0.00    +0.000 A 
ATOM     19  C   UNL     1       2.109  -5.009   7.320  0.00  0.00    +0.000 A 
ATOM     20  C   UNL     1       1.877  -6.322   6.989  0.00  0.00    +0.000 A 
ATOM     21  N   UNL     1       1.012  -6.712   6.031  0.00  0.00    +0.000 NA
ATOM     22  H   UNL     1      -0.215  -7.072   4.110  0.00  0.00    +0.000 HD
ENDBRANCH  14  15
ENDBRANCH  13  14
ENDBRANCH   5  13
TORSDOF 4
