REMARK  Name = 
REMARK  5 active torsions:
REMARK  status: ('A' for Active; 'I' for Inactive)
REMARK    1  A    between atoms: C_2  and  C_4
REMARK    2  A    between atoms: C_8  and  S_9
REMARK    3  A    between atoms: S_9  and  C_10
REMARK    4  A    between atoms: C_10  and  C_11
REMARK    5  A    between atoms: C_15  and  C_16
REMARK                            x       y       z     vdW  Elec       q    Type
REMARK                         _______ _______ _______ _____ _____    ______ ____
ROOT
ATOM      1  C   UNL     1       1.746  -2.828   4.608  0.00  0.00    +0.000 C 
ENDROOT
BRANCH   1   2
ATOM      2  C   UNL     1       1.461  -3.714   5.798  0.00  0.00    +0.000 A 
ATOM      3  C   UNL     1       1.027  -3.166   6.998  0.00  0.00    +0.000 A 
ATOM      4  N   UNL     1       0.794  -3.886   8.115  0.00  0.00    +0.000 NA
ATOM      5  C   UNL     1       1.001  -5.225   8.040  0.00  0.00    +0.000 A 
ATOM      6  C   UNL     1       1.438  -5.907   6.906  0.00  0.00    +0.000 A 
ATOM      7  C   UNL     1       1.682  -5.100   5.784  0.00  0.00    +0.000 A 
BRANCH   6   8
ATOM      8  C   UNL     1       1.635  -7.370   6.865  0.00  0.00    +0.000 A 
ATOM      9  C   UNL     1       0.868  -8.254   7.637  0.00  0.00    +0.000 A 
ATOM     10  N   UNL     1       0.999  -9.605   7.647  0.00  0.00    +0.000 NA
ATOM     11  C   UNL     1       1.940 -10.126   6.828  0.00  0.00    +0.000 A 
ATOM     12  C   UNL     1       2.741  -9.355   6.014  0.00  0.00    +0.000 A 
ATOM     13  F   UNL     1       3.654  -9.921   5.215  0.00  0.00    +0.000 F 
ATOM     14  C   UNL     1       2.594  -7.973   6.032  0.00  0.00    +0.000 A 
ENDBRANCH   6   8
ENDBRANCH   1   2
BRANCH   1  15
ATOM     15  S   UNL     1       1.343  -3.632   3.014  0.00  0.00    +0.000 S 
BRANCH  15  20
ATOM     16  C   UNL     1       2.616  -0.359   0.892  0.00  0.00    +0.000 A 
ATOM     17  C   UNL     1       2.421  -0.857  -0.389  0.00  0.00    +0.000 A 
ATOM     18  N   UNL     1       2.005  -2.117  -0.642  0.00  0.00    +0.000 NA
ATOM     19  C   UNL     1       1.733  -2.888   0.438  0.00  0.00    +0.000 A 
ATOM     20  C   UNL     1       1.853  -2.475   1.767  0.00  0.00    +0.000 A 
ATOM     21  C   UNL     1       2.324  -1.181   1.988  0.00  0.00    +0.000 A 
BRANCH  16  23
ATOM     22  N   UNL     1       3.826   1.332   2.144  0.00  0.00    +0.000 N 
ATOM     23  C   UNL     1       3.080   1.036   1.039  0.00  0.00    +0.000 C 
ATOM     24  O   UNL     1       2.837   1.880   0.191  0.00  0.00    +0.000 OA
ATOM     25  H   UNL     1       4.233   2.260   2.161  0.00  0.00    +0.000 HD
ATOM     26  H   UNL     1       4.285   0.619   2.695  0.00  0.00    +0.000 HD
ENDBRANCH  16  23
ENDBRANCH  15  20
ENDBRANCH   1  15
TORSDOF 5
