REMARK  Name = 
REMARK  5 active torsions:
REMARK  status: ('A' for Active; 'I' for Inactive)
REMARK    1  A    between atoms: C_2  and  C_4
REMARK    2  A    between atoms: C_7  and  O_8
REMARK    3  A    between atoms: O_8  and  C_9
REMARK    4  A    between atoms: C_9  and  C_10
REMARK    5  A    between atoms: C_15  and  C_16
REMARK                            x       y       z     vdW  Elec       q    Type
REMARK                         _______ _______ _______ _____ _____    ______ ____
ROOT
ATOM      1  C   UNL     1       5.020   2.021  -5.459  0.00  0.00    +0.000 C 
ATOM      2  C   UNL     1       4.402   1.049  -4.460  0.00  0.00    +0.000 C 
ATOM      3  C   UNL     1       5.631   1.810  -4.088  0.00  0.00    +0.000 C 
ENDROOT
BRANCH   1   4
ATOM      4  C   UNL     1       5.695   1.426  -6.686  0.00  0.00    +0.000 A 
ATOM      5  C   UNL     1       7.091   1.431  -6.829  0.00  0.00    +0.000 A 
ATOM      6  C   UNL     1       7.696   0.843  -7.930  0.00  0.00    +0.000 A 
ATOM      7  F   UNL     1       9.033   0.840  -8.025  0.00  0.00    +0.000 F 
ATOM      8  C   UNL     1       6.941   0.254  -8.933  0.00  0.00    +0.000 A 
ATOM      9  C   UNL     1       5.543   0.236  -8.847  0.00  0.00    +0.000 A 
ATOM     10  C   UNL     1       4.943   0.831  -7.720  0.00  0.00    +0.000 A 
BRANCH   9  11
ATOM     11  C   UNL     1       4.722  -0.350  -9.932  0.00  0.00    +0.000 C 
ATOM     12  C   UNL     1       5.142  -1.402 -10.663  0.00  0.00    +0.000 C 
ATOM     13  C   UNL     1       4.363  -1.993 -11.802  0.00  0.00    +0.000 C 
ATOM     14  N   UNL     1       2.977  -1.530 -11.893  0.00  0.00    +0.000 NA
ATOM     15  C   UNL     1       2.902  -0.085 -11.656  0.00  0.00    +0.000 C 
ATOM     16  C   UNL     1       3.382   0.278 -10.243  0.00  0.00    +0.000 C 
ATOM     17  H   UNL     1       2.440  -2.007 -11.170  0.00  0.00    +0.000 HD
ENDBRANCH   9  11
ENDBRANCH   1   4
BRANCH   1  18
ATOM     18  O   UNL     1       4.134   3.147  -5.660  0.00  0.00    +0.000 OA
BRANCH  18  22
ATOM     19  C   UNL     1       5.654   6.927  -6.271  0.00  0.00    +0.000 A 
ATOM     20  C   UNL     1       4.278   6.712  -6.287  0.00  0.00    +0.000 A 
ATOM     21  C   UNL     1       3.793   5.423  -6.078  0.00  0.00    +0.000 A 
ATOM     22  C   UNL     1       4.701   4.393  -5.857  0.00  0.00    +0.000 A 
ATOM     23  N   UNL     1       6.036   4.565  -5.828  0.00  0.00    +0.000 NA
ATOM     24  C   UNL     1       6.486   5.828  -6.053  0.00  0.00    +0.000 A 
BRANCH  19  26
ATOM     25  N   UNL     1       5.506   9.356  -6.211  0.00  0.00    +0.000 N 
ATOM     26  C   UNL     1       6.260   8.252  -6.511  0.00  0.00    +0.000 C 
ATOM     27  O   UNL     1       7.399   8.365  -6.938  0.00  0.00    +0.000 OA
ATOM     28  H   UNL     1       5.966  10.252  -6.304  0.00  0.00    +0.000 HD
ATOM     29  H   UNL     1       4.675   9.315  -5.640  0.00  0.00    +0.000 HD
ENDBRANCH  19  26
ENDBRANCH  18  22
ENDBRANCH   1  18
TORSDOF 5
