REMARK  Name = 
REMARK  5 active torsions:
REMARK  status: ('A' for Active; 'I' for Inactive)
REMARK    1  A    between atoms: C_2  and  C_3
REMARK    2  A    between atoms: C_7  and  N_8
REMARK    3  A    between atoms: N_8  and  C_9
REMARK    4  A    between atoms: C_9  and  C_10
REMARK    5  A    between atoms: C_12  and  C_13
REMARK                            x       y       z     vdW  Elec       q    Type
REMARK                         _______ _______ _______ _____ _____    ______ ____
ROOT
ATOM      1  C   UNL     1      -2.523   4.946   0.137  0.00  0.00    +0.000 A 
ATOM      2  C   UNL     1      -3.899   4.714   0.172  0.00  0.00    +0.000 A 
ATOM      3  C   UNL     1      -4.799   5.791   0.219  0.00  0.00    +0.000 A 
ATOM      4  C   UNL     1      -4.246   7.077   0.209  0.00  0.00    +0.000 A 
ATOM      5  C   UNL     1      -2.869   7.226   0.146  0.00  0.00    +0.000 A 
ATOM      6  N   UNL     1      -2.001   6.195   0.103  0.00  0.00    +0.000 NA
ENDROOT
BRANCH   3   7
ATOM      7  C   UNL     1      -6.263   5.570   0.281  0.00  0.00    +0.000 A 
ATOM      8  C   UNL     1      -7.173   6.454  -0.333  0.00  0.00    +0.000 A 
ATOM      9  C   UNL     1      -8.556   6.239  -0.280  0.00  0.00    +0.000 A 
ATOM     10  C   UNL     1      -9.061   5.126   0.382  0.00  0.00    +0.000 A 
ATOM     11  C   UNL     1      -8.180   4.245   0.991  0.00  0.00    +0.000 A 
ATOM     12  F   UNL     1      -8.658   3.168   1.628  0.00  0.00    +0.000 F 
ATOM     13  C   UNL     1      -6.804   4.460   0.953  0.00  0.00    +0.000 A 
ENDBRANCH   3   7
BRANCH   1  14
ATOM     14  C   UNL     1      -1.557   3.775   0.116  0.00  0.00    +0.000 C 
BRANCH  14  15
ATOM     15  N   UNL     1      -1.382   3.261  -1.241  0.00  0.00    +0.000 N 
ATOM     16  H   UNL     1      -1.542   3.961  -1.962  0.00  0.00    +0.000 HD
BRANCH  15  21
ATOM     17  C   UNL     1       1.162   0.551  -0.954  0.00  0.00    +0.000 A 
ATOM     18  C   UNL     1       1.329   0.289  -2.307  0.00  0.00    +0.000 A 
ATOM     19  N   UNL     1       0.700   0.983  -3.277  0.00  0.00    +0.000 NA
ATOM     20  C   UNL     1      -0.141   1.967  -2.870  0.00  0.00    +0.000 A 
ATOM     21  C   UNL     1      -0.395   2.326  -1.540  0.00  0.00    +0.000 A 
ATOM     22  C   UNL     1       0.285   1.574  -0.577  0.00  0.00    +0.000 A 
BRANCH  17  24
ATOM     23  N   UNL     1       2.425  -0.847   0.817  0.00  0.00    +0.000 NA
ATOM     24  C   UNL     1       1.860  -0.225   0.023  0.00  0.00    +0.000 C 
ENDBRANCH  17  24
ENDBRANCH  15  21
ENDBRANCH  14  15
ENDBRANCH   1  14
TORSDOF 5
