REMARK  Name = 
REMARK  5 active torsions:
REMARK  status: ('A' for Active; 'I' for Inactive)
REMARK    1  A    between atoms: N_1  and  C_2
REMARK    2  A    between atoms: C_2  and  C_3
REMARK    3  A    between atoms: C_6  and  C_7
REMARK    4  A    between atoms: C_7  and  N_8
REMARK    5  A    between atoms: C_13  and  C_14
REMARK                            x       y       z     vdW  Elec       q    Type
REMARK                         _______ _______ _______ _____ _____    ______ ____
ROOT
ATOM      1  N   UNL     1       1.118  -5.621   1.611  0.00  0.00    +0.000 N 
ATOM      2  C   UNL     1       1.573  -6.913   1.452  0.00  0.00    +0.000 A 
ATOM      3  C   UNL     1       0.604  -7.630   0.787  0.00  0.00    +0.000 A 
ATOM      4  C   UNL     1      -0.542  -6.812   0.724  0.00  0.00    +0.000 A 
ATOM      5  C   UNL     1      -1.849  -7.026   0.269  0.00  0.00    +0.000 A 
ATOM      6  C   UNL     1      -2.778  -6.008   0.454  0.00  0.00    +0.000 A 
ATOM      7  C   UNL     1      -2.335  -4.806   1.011  0.00  0.00    +0.000 A 
ATOM      8  N   UNL     1      -1.059  -4.522   1.415  0.00  0.00    +0.000 NA
ATOM      9  C   UNL     1      -0.218  -5.569   1.267  0.00  0.00    +0.000 A 
ENDROOT
BRANCH   6  10
ATOM     10  C   UNL     1      -4.211  -6.178   0.109  0.00  0.00    +0.000 C 
ATOM     11  N   UNL     1      -4.615  -7.395  -0.394  0.00  0.00    +0.000 N 
ATOM     12  O   UNL     1      -5.019  -5.285   0.278  0.00  0.00    +0.000 OA
ATOM     13  H   UNL     1      -4.032  -8.206  -0.519  0.00  0.00    +0.000 HD
ATOM     14  H   UNL     1      -5.605  -7.503  -0.583  0.00  0.00    +0.000 HD
ENDBRANCH   6  10
BRANCH   1  15
ATOM     15  C   UNL     1       1.947  -4.492   2.032  0.00  0.00    +0.000 C 
BRANCH  15  19
ATOM     16  C   UNL     1       3.162  -1.398  -0.023  0.00  0.00    +0.000 C 
ATOM     17  C   UNL     1       2.149  -2.456  -0.484  0.00  0.00    +0.000 C 
ATOM     18  C   UNL     1       2.708  -3.871  -0.352  0.00  0.00    +0.000 C 
ATOM     19  C   UNL     1       3.148  -4.209   1.088  0.00  0.00    +0.000 C 
ATOM     20  C   UNL     1       4.095  -3.115   1.627  0.00  0.00    +0.000 C 
ATOM     21  C   UNL     1       3.570  -1.693   1.431  0.00  0.00    +0.000 C 
BRANCH  16  22
ATOM     22  C   UNL     1       4.388  -1.322  -0.960  0.00  0.00    +0.000 C 
BRANCH  22  23
ATOM     23  N   UNL     1       3.997  -0.971  -2.320  0.00  0.00    +0.000 NA
ATOM     24  H   UNL     1       4.800  -1.052  -2.942  0.00  0.00    +0.000 HD
ATOM     25  H   UNL     1       3.705   0.005  -2.348  0.00  0.00    +0.000 HD
ENDBRANCH  22  23
ENDBRANCH  16  22
ENDBRANCH  15  19
ENDBRANCH   1  15
TORSDOF 5
