REMARK  Name = 
REMARK  4 active torsions:
REMARK  status: ('A' for Active; 'I' for Inactive)
REMARK    1  A    between atoms: C_2  and  C_4
REMARK    2  A    between atoms: C_7  and  N_8
REMARK    3  A    between atoms: N_8  and  C_9
REMARK    4  A    between atoms: C_9  and  C_10
REMARK                            x       y       z     vdW  Elec       q    Type
REMARK                         _______ _______ _______ _____ _____    ______ ____
ROOT
ATOM      1  C   UNL     1       3.083  -0.996  -0.394  0.00  0.00    +0.000 A 
ATOM      2  C   UNL     1       2.466  -2.229  -0.636  0.00  0.00    +0.000 A 
ATOM      3  C   UNL     1       3.222  -3.324  -1.079  0.00  0.00    +0.000 A 
ATOM      4  C   UNL     1       4.602  -3.213  -1.248  0.00  0.00    +0.000 A 
ATOM      5  C   UNL     1       5.207  -1.969  -1.010  0.00  0.00    +0.000 A 
ATOM      6  C   UNL     1       4.456  -0.864  -0.602  0.00  0.00    +0.000 A 
ENDROOT
BRANCH   1   8
ATOM      7  N   UNL     1       1.193  -0.027   0.797  0.00  0.00    +0.000 N 
ATOM      8  C   UNL     1       2.319   0.200   0.052  0.00  0.00    +0.000 C 
ATOM      9  O   UNL     1       2.695   1.333  -0.194  0.00  0.00    +0.000 OA
ATOM     10  H   UNL     1       0.745   0.794   1.185  0.00  0.00    +0.000 HD
ATOM     11  H   UNL     1       1.009  -0.915   1.239  0.00  0.00    +0.000 HD
ENDBRANCH   1   8
BRANCH   4  12
ATOM     12  N   UNL     1       5.433  -4.272  -1.653  0.00  0.00    +0.000 N 
ATOM     13  H   UNL     1       6.198  -4.409  -0.996  0.00  0.00    +0.000 HD
BRANCH  12  14
ATOM     14  C   UNL     1       5.019  -5.435  -2.457  0.00  0.00    +0.000 C 
ATOM     15  C   UNL     1       5.967  -5.738  -3.616  0.00  0.00    +0.000 C 
ATOM     16  C   UNL     1       4.580  -5.267  -3.902  0.00  0.00    +0.000 C 
BRANCH  14  17
ATOM     17  C   UNL     1       4.492  -6.621  -1.675  0.00  0.00    +0.000 A 
ATOM     18  C   UNL     1       3.200  -7.112  -1.794  0.00  0.00    +0.000 A 
ATOM     19  N   UNL     1       2.711  -8.191  -1.144  0.00  0.00    +0.000 NA
ATOM     20  C   UNL     1       3.573  -8.809  -0.327  0.00  0.00    +0.000 A 
ATOM     21  N   UNL     1       4.841  -8.439  -0.102  0.00  0.00    +0.000 NA
ATOM     22  C   UNL     1       5.262  -7.352  -0.785  0.00  0.00    +0.000 A 
ENDBRANCH  14  17
ENDBRANCH  12  14
ENDBRANCH   4  12
TORSDOF 4
