REMARK  Name = 
REMARK  9 active torsions:
REMARK  status: ('A' for Active; 'I' for Inactive)
REMARK    1  A    between atoms: C_1  and  C_2
REMARK    2  A    between atoms: C_2  and  N_3
REMARK    3  A    between atoms: C_2  and  C_19
REMARK    4  A    between atoms: N_3  and  C_4
REMARK    5  A    between atoms: C_4  and  C_5
REMARK    6  A    between atoms: C_8  and  C_9
REMARK    7  A    between atoms: C_9  and  O_10
REMARK    8  A    between atoms: O_10  and  C_11
REMARK    9  A    between atoms: C_11  and  C_12
REMARK                            x       y       z     vdW  Elec       q    Type
REMARK                         _______ _______ _______ _____ _____    ______ ____
ROOT
ATOM      1  N   UNL     1       4.926   1.984   2.014  0.00  0.00    +0.000 NA
ATOM      2  H   UNL     1       4.346   1.863   2.853  0.00  0.00    +0.000 HD
ENDROOT
BRANCH   1   4
ATOM      3  C   UNL     1       7.241   1.876   1.161  0.00  0.00    +0.000 C 
ATOM      4  C   UNL     1       6.329   1.785   2.403  0.00  0.00    +0.000 C 
BRANCH   4   5
ATOM      5  C   UNL     1       6.523   0.414   3.074  0.00  0.00    +0.000 A 
ATOM      6  C   UNL     1       7.770  -0.037   3.501  0.00  0.00    +0.000 A 
ATOM      7  S   UNL     1       7.800  -1.690   3.932  0.00  0.00    +0.000 S 
ATOM      8  C   UNL     1       6.126  -1.841   3.666  0.00  0.00    +0.000 A 
ATOM      9  N   UNL     1       5.490  -3.046   3.778  0.00  0.00    +0.000 NA
ATOM     10  C   UNL     1       4.223  -2.989   3.530  0.00  0.00    +0.000 A 
ATOM     11  N   UNL     1       3.530  -1.843   3.247  0.00  0.00    +0.000 N 
ATOM     12  C   UNL     1       4.101  -0.601   3.375  0.00  0.00    +0.000 A 
ATOM     13  O   UNL     1       3.421   0.392   3.620  0.00  0.00    +0.000 OA
ATOM     14  C   UNL     1       5.550  -0.617   3.373  0.00  0.00    +0.000 A 
ATOM     15  H   UNL     1       2.517  -1.856   3.248  0.00  0.00    +0.000 HD
ENDBRANCH   4   5
ENDBRANCH   1   4
BRANCH   1  16
ATOM     16  C   UNL     1       4.614   3.291   1.417  0.00  0.00    +0.000 C 
BRANCH  16  17
ATOM     17  C   UNL     1       3.111   3.424   1.044  0.00  0.00    +0.000 C 
ATOM     18  C   UNL     1       2.152   3.373   2.244  0.00  0.00    +0.000 C 
ATOM     19  C   UNL     1       2.213   4.627   3.112  0.00  0.00    +0.000 C 
ATOM     20  C   UNL     1       2.000   5.929   2.319  0.00  0.00    +0.000 C 
ATOM     21  C   UNL     1       2.876   5.985   1.061  0.00  0.00    +0.000 C 
ATOM     22  C   UNL     1       2.830   4.703   0.230  0.00  0.00    +0.000 C 
BRANCH  20  23
ATOM     23  C   UNL     1       0.522   6.164   1.966  0.00  0.00    +0.000 C 
BRANCH  23  24
ATOM     24  O   UNL     1      -0.215   6.247   3.181  0.00  0.00    +0.000 OA
BRANCH  24  25
ATOM     25  C   UNL     1      -1.597   6.488   2.969  0.00  0.00    +0.000 C 
BRANCH  25  26
ATOM     26  C   UNL     1      -2.266   6.549   4.305  0.00  0.00    +0.000 C 
ATOM     27  C   UNL     1      -1.788   5.847   5.486  0.00  0.00    +0.000 C 
ATOM     28  N   UNL     1      -2.647   6.141   6.510  0.00  0.00    +0.000 NA
ATOM     29  C   UNL     1      -3.526   6.921   5.956  0.00  0.00    +0.000 C 
ATOM     30  N   UNL     1      -3.357   7.199   4.608  0.00  0.00    +0.000 NA
ENDBRANCH  25  26
ENDBRANCH  24  25
ENDBRANCH  23  24
ENDBRANCH  20  23
ENDBRANCH  16  17
ENDBRANCH   1  16
TORSDOF 8
