REMARK  Name = 
REMARK  5 active torsions:
REMARK  status: ('A' for Active; 'I' for Inactive)
REMARK    1  A    between atoms: C_1  and  C_2
REMARK    2  A    between atoms: C_2  and  O_3
REMARK    3  A    between atoms: C_2  and  C_13
REMARK    4  A    between atoms: O_3  and  C_4
REMARK    5  A    between atoms: C_7  and  C_8
REMARK                            x       y       z     vdW  Elec       q    Type
REMARK                         _______ _______ _______ _____ _____    ______ ____
ROOT
ATOM      1  C   UNL     1       2.384   1.009   2.145  0.00  0.00    +0.000 A 
ATOM      2  C   UNL     1       2.014   0.781   3.458  0.00  0.00    +0.000 A 
ATOM      3  N   UNL     1       1.631   1.750   4.321  0.00  0.00    +0.000 NA
ATOM      4  C   UNL     1       1.651   3.008   3.820  0.00  0.00    +0.000 A 
ATOM      5  N   UNL     1       2.044   3.355   2.578  0.00  0.00    +0.000 NA
ATOM      6  C   UNL     1       2.412   2.338   1.774  0.00  0.00    +0.000 A 
ENDROOT
BRANCH   4   7
ATOM      7  C   UNL     1       1.137   4.108   4.722  0.00  0.00    +0.000 C 
ATOM      8  N   UNL     1       0.702   3.705   5.963  0.00  0.00    +0.000 N 
ATOM      9  O   UNL     1       1.082   5.290   4.399  0.00  0.00    +0.000 OA
ATOM     10  H   UNL     1       0.722   2.725   6.217  0.00  0.00    +0.000 HD
ATOM     11  H   UNL     1       0.318   4.394   6.593  0.00  0.00    +0.000 HD
ENDBRANCH   4   7
BRANCH   1  12
ATOM     12  O   UNL     1       2.671  -0.069   1.367  0.00  0.00    +0.000 OA
BRANCH  12  14
ATOM     13  C   UNL     1       0.907   0.218  -0.303  0.00  0.00    +0.000 C 
ATOM     14  C   UNL     1       2.411   0.053  -0.044  0.00  0.00    +0.000 C 
BRANCH  14  15
ATOM     15  C   UNL     1       2.953  -1.207  -0.776  0.00  0.00    +0.000 C 
ATOM     16  C   UNL     1       2.281  -2.511  -0.306  0.00  0.00    +0.000 C 
ATOM     17  C   UNL     1       2.830  -3.729  -1.046  0.00  0.00    +0.000 C 
ATOM     18  C   UNL     1       4.344  -3.828  -0.912  0.00  0.00    +0.000 C 
ATOM     19  C   UNL     1       5.026  -2.546  -1.377  0.00  0.00    +0.000 C 
ATOM     20  C   UNL     1       4.483  -1.321  -0.641  0.00  0.00    +0.000 C 
ENDBRANCH  14  15
ENDBRANCH  12  14
ENDBRANCH   1  12
TORSDOF 4
