REMARK  Name = 
REMARK  7 active torsions:
REMARK  status: ('A' for Active; 'I' for Inactive)
REMARK    1  A    between atoms: C_1  and  C_2
REMARK    2  A    between atoms: C_2  and  C_3
REMARK    3  A    between atoms: C_2  and  C_4
REMARK    4  A    between atoms: C_2  and  C_5
REMARK    5  A    between atoms: N_9  and  C_10
REMARK    6  A    between atoms: C_10  and  C_11
REMARK    7  A    between atoms: C_16  and  C_17
REMARK                            x       y       z     vdW  Elec       q    Type
REMARK                         _______ _______ _______ _____ _____    ______ ____
ROOT
ATOM      1  C   UNL     1       5.541  -5.733   1.134  0.00  0.00    +0.000 C 
ATOM      2  C   UNL     1       5.765  -6.556   2.397  0.00  0.00    +0.000 C 
ATOM      3  C   UNL     1       6.374  -5.198   2.285  0.00  0.00    +0.000 C 
ENDROOT
BRANCH   1   8
ATOM      4  C   UNL     1       2.867  -1.462   0.080  0.00  0.00    +0.000 A 
ATOM      5  C   UNL     1       2.286  -2.606  -0.427  0.00  0.00    +0.000 A 
ATOM      6  N   UNL     1       2.726  -3.861  -0.188  0.00  0.00    +0.000 NA
ATOM      7  C   UNL     1       3.817  -3.995   0.577  0.00  0.00    +0.000 A 
ATOM      8  N   UNL     1       4.159  -5.309   0.895  0.00  0.00    +0.000 N 
ATOM      9  N   UNL     1       4.498  -2.956   1.076  0.00  0.00    +0.000 NA
ATOM     10  C   UNL     1       4.003  -1.723   0.828  0.00  0.00    +0.000 A 
ATOM     11  H   UNL     1       3.571  -5.901   0.321  0.00  0.00    +0.000 HD
BRANCH   4  13
ATOM     12  C   UNL     1       1.062   0.002  -1.015  0.00  0.00    +0.000 C 
ATOM     13  C   UNL     1       2.323  -0.052  -0.122  0.00  0.00    +0.000 C 
ATOM     14  C   UNL     1       3.398   0.834  -0.783  0.00  0.00    +0.000 C 
ATOM     15  C   UNL     1       1.939   0.555   1.246  0.00  0.00    +0.000 C 
ENDBRANCH   4  13
ENDBRANCH   1   8
BRANCH   1  16
ATOM     16  C   UNL     1       6.293  -6.135  -0.131  0.00  0.00    +0.000 A 
ATOM     17  C   UNL     1       6.979  -5.180  -0.895  0.00  0.00    +0.000 A 
ATOM     18  C   UNL     1       7.732  -5.546  -2.013  0.00  0.00    +0.000 A 
ATOM     19  C   UNL     1       7.810  -6.886  -2.409  0.00  0.00    +0.000 A 
ATOM     20 CL   UNL     1       8.852  -7.227  -3.746  0.00  0.00    +0.000 Cl
ATOM     21  C   UNL     1       7.103  -7.863  -1.697  0.00  0.00    +0.000 A 
ATOM     22  C   UNL     1       6.351  -7.471  -0.571  0.00  0.00    +0.000 A 
BRANCH  21  23
ATOM     23  C   UNL     1       7.105  -9.319  -2.003  0.00  0.00    +0.000 C 
ATOM     24  N   UNL     1       7.287  -9.716  -3.295  0.00  0.00    +0.000 N 
ATOM     25  O   UNL     1       6.906 -10.153  -1.123  0.00  0.00    +0.000 OA
ATOM     26  H   UNL     1       7.540  -9.075  -4.037  0.00  0.00    +0.000 HD
ATOM     27  H   UNL     1       7.350 -10.709  -3.476  0.00  0.00    +0.000 HD
ENDBRANCH  21  23
ENDBRANCH   1  16
TORSDOF 4
