REMARK  Name = 
REMARK  6 active torsions:
REMARK  status: ('A' for Active; 'I' for Inactive)
REMARK    1  A    between atoms: N_1  and  C_2
REMARK    2  A    between atoms: C_2  and  C_3
REMARK    3  A    between atoms: C_3  and  O_4
REMARK    4  A    between atoms: O_4  and  C_5
REMARK    5  A    between atoms: N_13  and  C_14
REMARK    6  A    between atoms: C_14  and  C_15
REMARK                            x       y       z     vdW  Elec       q    Type
REMARK                         _______ _______ _______ _____ _____    ______ ____
ROOT
ATOM      1  C   UNL     1       5.105  -1.683  -2.047  0.00  0.00    +0.000 A 
ATOM      2  N   UNL     1       4.726  -1.671  -3.351  0.00  0.00    +0.000 NA
ATOM      3  C   UNL     1       5.355  -2.510  -4.199  0.00  0.00    +0.000 A 
ATOM      4  N   UNL     1       6.349  -3.382  -3.928  0.00  0.00    +0.000 NA
ATOM      5  C   UNL     1       6.683  -3.345  -2.626  0.00  0.00    +0.000 A 
ATOM      6  C   UNL     1       6.130  -2.543  -1.638  0.00  0.00    +0.000 A 
ATOM      7  N   UNL     1       6.744  -2.782  -0.423  0.00  0.00    +0.000 NA
ATOM      8  C   UNL     1       7.636  -3.717  -0.669  0.00  0.00    +0.000 A 
ATOM      9  N   UNL     1       7.642  -4.085  -1.988  0.00  0.00    +0.000 N 
ENDROOT
BRANCH   1  10
ATOM     10  O   UNL     1       4.526  -0.794  -1.161  0.00  0.00    +0.000 OA
BRANCH  10  11
ATOM     11  C   UNL     1       3.177  -0.480  -1.526  0.00  0.00    +0.000 C 
BRANCH  11  12
ATOM     12  C   UNL     1       2.593   0.495  -0.496  0.00  0.00    +0.000 C 
BRANCH  12  13
ATOM     13  N   UNL     1       2.541  -0.080   0.850  0.00  0.00    +0.000 NA
ATOM     14  H   UNL     1       2.247   0.635   1.512  0.00  0.00    +0.000 HD
ATOM     15  H   UNL     1       3.492  -0.345   1.117  0.00  0.00    +0.000 HD
ENDBRANCH  12  13
ENDBRANCH  11  12
ENDBRANCH  10  11
ENDBRANCH   1  10
BRANCH   9  16
ATOM     16  C   UNL     1       8.565  -5.022  -2.602  0.00  0.00    +0.000 C 
BRANCH  16  17
ATOM     17  C   UNL     1       8.081  -6.446  -2.504  0.00  0.00    +0.000 A 
ATOM     18  C   UNL     1       6.917  -6.859  -3.163  0.00  0.00    +0.000 A 
ATOM     19  C   UNL     1       6.502  -8.175  -3.029  0.00  0.00    +0.000 A 
ATOM     20  N   UNL     1       7.169  -9.102  -2.311  0.00  0.00    +0.000 NA
ATOM     21  C   UNL     1       8.301  -8.696  -1.700  0.00  0.00    +0.000 A 
ATOM     22  C   UNL     1       8.792  -7.399  -1.766  0.00  0.00    +0.000 A 
ENDBRANCH  16  17
ENDBRANCH   9  16
TORSDOF 6
