REMARK  Name = 
REMARK  5 active torsions:
REMARK  status: ('A' for Active; 'I' for Inactive)
REMARK    1  A    between atoms: C_1  and  C_2
REMARK    2  A    between atoms: C_2  and  O_3
REMARK    3  A    between atoms: C_2  and  C_13
REMARK    4  A    between atoms: O_3  and  C_4
REMARK    5  A    between atoms: C_7  and  C_8
REMARK                            x       y       z     vdW  Elec       q    Type
REMARK                         _______ _______ _______ _____ _____    ______ ____
ROOT
ATOM      1  C   UNL     1       2.457  -1.435  -1.849  0.00  0.00    +0.000 A 
ATOM      2  C   UNL     1       2.221  -1.485  -3.222  0.00  0.00    +0.000 A 
ATOM      3  C   UNL     1       1.895  -2.697  -3.828  0.00  0.00    +0.000 A 
ATOM      4  C   UNL     1       1.834  -3.833  -3.032  0.00  0.00    +0.000 A 
ATOM      5  N   UNL     1       2.104  -3.835  -1.696  0.00  0.00    +0.000 NA
ATOM      6  C   UNL     1       2.416  -2.635  -1.147  0.00  0.00    +0.000 A 
ENDROOT
BRANCH   4   7
ATOM      7  C   UNL     1       1.438  -5.149  -3.633  0.00  0.00    +0.000 C 
ATOM      8  N   UNL     1       1.397  -6.202  -2.765  0.00  0.00    +0.000 N 
ATOM      9  O   UNL     1       1.163  -5.275  -4.819  0.00  0.00    +0.000 OA
ATOM     10  H   UNL     1       1.630  -6.057  -1.789  0.00  0.00    +0.000 HD
ATOM     11  H   UNL     1       1.135  -7.117  -3.101  0.00  0.00    +0.000 HD
ENDBRANCH   4   7
BRANCH   1  12
ATOM     12  O   UNL     1       2.706  -0.197  -1.328  0.00  0.00    +0.000 OA
BRANCH  12  14
ATOM     13  C   UNL     1       0.830  -0.022   0.227  0.00  0.00    +0.000 C 
ATOM     14  C   UNL     1       2.352   0.035   0.049  0.00  0.00    +0.000 C 
BRANCH  14  15
ATOM     15  C   UNL     1       2.910   1.420   0.492  0.00  0.00    +0.000 C 
ATOM     16  C   UNL     1       2.332   2.591  -0.326  0.00  0.00    +0.000 C 
ATOM     17  C   UNL     1       2.936   3.934   0.077  0.00  0.00    +0.000 C 
ATOM     18  C   UNL     1       4.456   3.910  -0.017  0.00  0.00    +0.000 C 
ATOM     19  C   UNL     1       5.034   2.787   0.836  0.00  0.00    +0.000 C 
ATOM     20  C   UNL     1       4.450   1.430   0.445  0.00  0.00    +0.000 C 
ENDBRANCH  14  15
ENDBRANCH  12  14
ENDBRANCH   1  12
TORSDOF 4
