REMARK  Name = 
REMARK  7 active torsions:
REMARK  status: ('A' for Active; 'I' for Inactive)
REMARK    1  A    between atoms: N_1  and  C_2
REMARK    2  A    between atoms: C_2  and  C_3
REMARK    3  A    between atoms: C_3  and  C_4
REMARK    4  A    between atoms: C_7  and  C_8
REMARK    5  A    between atoms: C_8  and  N_9
REMARK    6  A    between atoms: C_14  and  C_15
REMARK    7  A    between atoms: C_15  and  O_17
REMARK                            x       y       z     vdW  Elec       q    Type
REMARK                         _______ _______ _______ _____ _____    ______ ____
ROOT
ATOM      1  N   UNL     1       9.226   1.795  -1.120  0.00  0.00    +0.000 N 
ATOM      2  C   UNL     1       9.507   2.782  -2.030  0.00  0.00    +0.000 A 
ATOM      3  N   UNL     1       9.857   3.908  -1.443  0.00  0.00    +0.000 NA
ATOM      4  C   UNL     1       9.803   3.636  -0.101  0.00  0.00    +0.000 A 
ATOM      5  C   UNL     1      10.048   4.459   1.004  0.00  0.00    +0.000 A 
ATOM      6  C   UNL     1       9.877   3.882   2.267  0.00  0.00    +0.000 A 
ATOM      7  C   UNL     1       9.544   2.530   2.364  0.00  0.00    +0.000 A 
ATOM      8  N   UNL     1       9.308   1.691   1.316  0.00  0.00    +0.000 NA
ATOM      9  C   UNL     1       9.437   2.314   0.129  0.00  0.00    +0.000 A 
ENDROOT
BRANCH   6  10
ATOM     10  C   UNL     1      10.055   4.646   3.517  0.00  0.00    +0.000 C 
ATOM     11  O   UNL     1      10.414   4.121   4.558  0.00  0.00    +0.000 OA
BRANCH  10  12
ATOM     12  O   UNL     1       9.740   5.953   3.420  0.00  0.00    +0.000 OA
ATOM     13  H   UNL     1       9.306   6.232   2.592  0.00  0.00    +0.000 HD
ENDBRANCH  10  12
ENDBRANCH   6  10
BRANCH   1  14
ATOM     14  C   UNL     1       8.817   0.440  -1.436  0.00  0.00    +0.000 C 
BRANCH  14  18
ATOM     15  C   UNL     1       4.496   0.129  -1.328  0.00  0.00    +0.000 A 
ATOM     16  C   UNL     1       5.155   0.433  -2.526  0.00  0.00    +0.000 A 
ATOM     17  C   UNL     1       6.550   0.521  -2.570  0.00  0.00    +0.000 A 
ATOM     18  C   UNL     1       7.316   0.296  -1.417  0.00  0.00    +0.000 A 
ATOM     19  C   UNL     1       6.654  -0.032  -0.226  0.00  0.00    +0.000 A 
ATOM     20  C   UNL     1       5.260  -0.121  -0.183  0.00  0.00    +0.000 A 
BRANCH  15  21
ATOM     21  C   UNL     1       2.987   0.096  -1.266  0.00  0.00    +0.000 C 
BRANCH  21  22
ATOM     22  C   UNL     1       2.402  -1.280  -1.599  0.00  0.00    +0.000 C 
BRANCH  22  23
ATOM     23  N   UNL     1       0.939  -1.244  -1.560  0.00  0.00    +0.000 NA
ATOM     24  H   UNL     1       0.571  -2.160  -1.812  0.00  0.00    +0.000 HD
ATOM     25  H   UNL     1       0.592  -0.594  -2.264  0.00  0.00    +0.000 HD
ENDBRANCH  22  23
ENDBRANCH  21  22
ENDBRANCH  15  21
ENDBRANCH  14  18
ENDBRANCH   1  14
TORSDOF 7
