REMARK  Name = 
REMARK  7 active torsions:
REMARK  status: ('A' for Active; 'I' for Inactive)
REMARK    1  A    between atoms: C_1  and  C_2
REMARK    2  A    between atoms: C_2  and  N_3
REMARK    3  A    between atoms: C_2  and  C_16
REMARK    4  A    between atoms: C_4  and  C_6
REMARK    5  A    between atoms: C_19  and  C_20
REMARK    6  A    between atoms: C_20  and  N_21
REMARK    7  A    between atoms: C_22  and  C_24
REMARK                            x       y       z     vdW  Elec       q    Type
REMARK                         _______ _______ _______ _____ _____    ______ ____
ROOT
ATOM      1  C   UNL     1       0.859  -0.251  -0.072  0.00  0.00    +0.000 C 
ATOM      2  C   UNL     1       2.382  -0.120   0.067  0.00  0.00    +0.000 C 
ENDROOT
BRANCH   2   3
ATOM      3  C   UNL     1       3.004   0.029  -1.319  0.00  0.00    +0.000 A 
ATOM      4  C   UNL     1       3.176   1.311  -1.864  0.00  0.00    +0.000 A 
ATOM      5  C   UNL     1       3.689   1.490  -3.157  0.00  0.00    +0.000 A 
ATOM      6  C   UNL     1       4.037   0.386  -3.947  0.00  0.00    +0.000 A 
ATOM      7  C   UNL     1       3.881  -0.895  -3.401  0.00  0.00    +0.000 A 
ATOM      8  C   UNL     1       3.355  -1.074  -2.114  0.00  0.00    +0.000 A 
BRANCH   6   9
ATOM      9  C   UNL     1       4.537   0.556  -5.363  0.00  0.00    +0.000 C 
BRANCH   9  10
ATOM     10  N   UNL     1       5.968   0.702  -5.438  0.00  0.00    +0.000 N 
ATOM     11  C   UNL     1       6.617   0.794  -6.649  0.00  0.00    +0.000 C 
ATOM     12  O   UNL     1       6.032   0.726  -7.724  0.00  0.00    +0.000 OA
ATOM     13  H   UNL     1       6.479   0.876  -4.588  0.00  0.00    +0.000 HD
BRANCH  11  14
ATOM     14  C   UNL     1       8.055   0.980  -6.558  0.00  0.00    +0.000 A 
ATOM     15  C   UNL     1       8.906   1.058  -5.467  0.00  0.00    +0.000 A 
ATOM     16  C   UNL     1      10.226   1.246  -5.945  0.00  0.00    +0.000 A 
ATOM     17  C   UNL     1      10.161   1.278  -7.317  0.00  0.00    +0.000 A 
ATOM     18  N   UNL     1       8.850   1.106  -7.682  0.00  0.00    +0.000 N 
ATOM     19  H   UNL     1       8.498   1.075  -8.631  0.00  0.00    +0.000 HD
ENDBRANCH  11  14
ENDBRANCH   9  10
ENDBRANCH   6   9
ENDBRANCH   2   3
BRANCH   2  20
ATOM     20  N   UNL     1       2.967  -1.226   0.814  0.00  0.00    +0.000 N 
ATOM     21  C   UNL     1       2.620  -1.483   2.121  0.00  0.00    +0.000 C 
ATOM     22  O   UNL     1       1.782  -0.821   2.727  0.00  0.00    +0.000 OA
ATOM     23  H   UNL     1       3.886  -1.536   0.512  0.00  0.00    +0.000 HD
BRANCH  21  24
ATOM     24  C   UNL     1       3.260  -2.637   2.758  0.00  0.00    +0.000 A 
ATOM     25  C   UNL     1       2.586  -3.328   3.756  0.00  0.00    +0.000 A 
ATOM     26  S   UNL     1       3.487  -4.613   4.423  0.00  0.00    +0.000 S 
ATOM     27  C   UNL     1       4.820  -4.267   3.424  0.00  0.00    +0.000 A 
ATOM     28  N   UNL     1       5.978  -4.971   3.531  0.00  0.00    +0.000 NA
ATOM     29  C   UNL     1       6.914  -4.578   2.735  0.00  0.00    +0.000 A 
ATOM     30  N   UNL     1       6.792  -3.560   1.823  0.00  0.00    +0.000 N 
ATOM     31  C   UNL     1       5.625  -2.856   1.644  0.00  0.00    +0.000 A 
ATOM     32  O   UNL     1       5.512  -2.013   0.760  0.00  0.00    +0.000 OA
ATOM     33  C   UNL     1       4.560  -3.220   2.556  0.00  0.00    +0.000 A 
ATOM     34  H   UNL     1       7.555  -3.327   1.205  0.00  0.00    +0.000 HD
ENDBRANCH  21  24
ENDBRANCH   2  20
TORSDOF 6
