REMARK  Name = 
REMARK  8 active torsions:
REMARK  status: ('A' for Active; 'I' for Inactive)
REMARK    1  A    between atoms: C_1  and  C_2
REMARK    2  A    between atoms: C_2  and  C_3
REMARK    3  A    between atoms: C_7  and  O_8
REMARK    4  A    between atoms: O_8  and  C_9
REMARK    5  A    between atoms: C_9  and  C_10
REMARK    6  A    between atoms: C_10  and  C_13
REMARK    7  A    between atoms: C_16  and  C_17
REMARK    8  A    between atoms: C_25  and  N_26
REMARK                            x       y       z     vdW  Elec       q    Type
REMARK                         _______ _______ _______ _____ _____    ______ ____
ROOT
ATOM      1  C   UNL     1       2.914   0.374   1.362  0.00  0.00    +0.000 A 
ATOM      2  C   UNL     1       2.619   1.641   1.899  0.00  0.00    +0.000 A 
ATOM      3  C   UNL     1       2.921   1.955   3.224  0.00  0.00    +0.000 A 
ATOM      4  C   UNL     1       3.524   1.012   4.047  0.00  0.00    +0.000 A 
ATOM      5  C   UNL     1       3.848  -0.247   3.542  0.00  0.00    +0.000 A 
ATOM      6  C   UNL     1       3.563  -0.547   2.205  0.00  0.00    +0.000 A 
ENDROOT
BRANCH   1   8
ATOM      7  C   UNL     1       0.885   0.082  -0.037  0.00  0.00    +0.000 C 
ATOM      8  C   UNL     1       2.434   0.006  -0.060  0.00  0.00    +0.000 C 
ATOM      9  C   UNL     1       3.002   1.015  -1.099  0.00  0.00    +0.000 C 
ATOM     10  C   UNL     1       2.677   0.648  -2.553  0.00  0.00    +0.000 C 
ATOM     11  C   UNL     1       3.098  -0.778  -2.925  0.00  0.00    +0.000 C 
ATOM     12  C   UNL     1       2.519  -1.786  -1.930  0.00  0.00    +0.000 C 
ATOM     13  C   UNL     1       2.852  -1.434  -0.479  0.00  0.00    +0.000 C 
BRANCH  11  14
ATOM     14  N   UNL     1       4.556  -0.898  -2.983  0.00  0.00    +0.000 NA
ATOM     15  H   UNL     1       4.970  -0.695  -2.074  0.00  0.00    +0.000 HD
ATOM     16  H   UNL     1       4.933  -0.196  -3.619  0.00  0.00    +0.000 HD
ENDBRANCH  11  14
ENDBRANCH   1   8
BRANCH   5  17
ATOM     17  O   UNL     1       4.414  -1.271   4.253  0.00  0.00    +0.000 OA
BRANCH  17  18
ATOM     18  C   UNL     1       4.617  -1.022   5.650  0.00  0.00    +0.000 C 
BRANCH  18  19
ATOM     19  C   UNL     1       5.210  -2.245   6.350  0.00  0.00    +0.000 C 
ATOM     20  F   UNL     1       6.427  -2.516   5.781  0.00  0.00    +0.000 F 
ATOM     21  F   UNL     1       5.512  -1.876   7.636  0.00  0.00    +0.000 F 
BRANCH  19  22
ATOM     22  C   UNL     1       4.266  -3.429   6.313  0.00  0.00    +0.000 A 
ATOM     23  C   UNL     1       4.653  -4.622   5.711  0.00  0.00    +0.000 A 
ATOM     24  C   UNL     1       3.755  -5.684   5.685  0.00  0.00    +0.000 A 
ATOM     25  C   UNL     1       2.511  -5.504   6.264  0.00  0.00    +0.000 A 
ATOM     26  N   UNL     1       2.153  -4.338   6.856  0.00  0.00    +0.000 NA
ATOM     27  N   UNL     1       3.041  -3.294   6.883  0.00  0.00    +0.000 NA
BRANCH  25  28
ATOM     28  C   UNL     1       1.504  -6.601   6.251  0.00  0.00    +0.000 C 
ATOM     29  N   UNL     1       0.301  -6.327   6.848  0.00  0.00    +0.000 N 
ATOM     30  O   UNL     1       1.729  -7.686   5.737  0.00  0.00    +0.000 OA
ATOM     31  H   UNL     1       0.121  -5.427   7.275  0.00  0.00    +0.000 HD
ATOM     32  H   UNL     1      -0.410  -7.043   6.866  0.00  0.00    +0.000 HD
ENDBRANCH  25  28
ENDBRANCH  19  22
ENDBRANCH  18  19
ENDBRANCH  17  18
ENDBRANCH   5  17
TORSDOF 7
