REMARK  Name = 
REMARK  7 active torsions:
REMARK  status: ('A' for Active; 'I' for Inactive)
REMARK    1  A    between atoms: C_1  and  N_2
REMARK    2  A    between atoms: C_8  and  C_9
REMARK    3  A    between atoms: N_11  and  C_12
REMARK    4  A    between atoms: C_12  and  C_13
REMARK    5  A    between atoms: C_16  and  C_17
REMARK    6  A    between atoms: C_17  and  C_18
REMARK    7  A    between atoms: C_21  and  C_22
REMARK                            x       y       z     vdW  Elec       q    Type
REMARK                         _______ _______ _______ _____ _____    ______ ____
ROOT
ATOM      1  C   UNL     1       4.926  -6.661  -2.094  0.00  0.00    +0.000 C 
ATOM      2  O   UNL     1       4.600  -7.744  -1.616  0.00  0.00    +0.000 OA
ATOM      3  N   UNL     1       5.704  -5.764  -1.415  0.00  0.00    +0.000 N 
ATOM      4  H   UNL     1       5.936  -4.868  -1.825  0.00  0.00    +0.000 HD
ENDROOT
BRANCH   1  12
ATOM      5  C   UNL     1       4.250  -1.246  -3.726  0.00  0.00    +0.000 C 
ATOM      6  N   UNL     1       4.133  -2.586  -4.261  0.00  0.00    +0.000 N 
ATOM      7  C   UNL     1       3.755  -2.795  -5.568  0.00  0.00    +0.000 A 
ATOM      8  N   UNL     1       3.639  -3.951  -6.143  0.00  0.00    +0.000 NA
ATOM      9  C   UNL     1       3.925  -5.007  -5.340  0.00  0.00    +0.000 A 
ATOM     10  S   UNL     1       3.803  -6.604  -5.916  0.00  0.00    +0.000 S 
ATOM     11  C   UNL     1       4.261  -7.245  -4.403  0.00  0.00    +0.000 A 
ATOM     12  C   UNL     1       4.532  -6.273  -3.451  0.00  0.00    +0.000 A 
ATOM     13  C   UNL     1       4.325  -4.961  -4.019  0.00  0.00    +0.000 A 
ATOM     14  C   UNL     1       4.448  -3.645  -3.415  0.00  0.00    +0.000 A 
ATOM     15  O   UNL     1       4.827  -3.476  -2.259  0.00  0.00    +0.000 OA
ENDBRANCH   1  12
BRANCH   3  16
ATOM     16  C   UNL     1       6.157  -5.985  -0.063  0.00  0.00    +0.000 C 
BRANCH  16  17
ATOM     17  C   UNL     1       7.478  -6.713  -0.025  0.00  0.00    +0.000 A 
ATOM     18  C   UNL     1       7.501  -8.105  -0.026  0.00  0.00    +0.000 A 
ATOM     19  C   UNL     1       8.728  -8.758  -0.023  0.00  0.00    +0.000 A 
ATOM     20  C   UNL     1       9.906  -8.012  -0.032  0.00  0.00    +0.000 A 
ATOM     21  C   UNL     1       9.786  -6.626  -0.046  0.00  0.00    +0.000 A 
ATOM     22  N   UNL     1       8.608  -5.963  -0.042  0.00  0.00    +0.000 NA
BRANCH  20  23
ATOM     23  C   UNL     1      11.250  -8.685  -0.031  0.00  0.00    +0.000 C 
BRANCH  23  24
ATOM     24  C   UNL     1      12.116  -8.347   1.199  0.00  0.00    +0.000 C 
ATOM     25  C   UNL     1      11.437  -8.786   2.509  0.00  0.00    +0.000 C 
ATOM     26  C   UNL     1      12.337  -8.561   3.722  0.00  0.00    +0.000 C 
ATOM     27  C   UNL     1      13.708  -9.230   3.572  0.00  0.00    +0.000 C 
ATOM     28  C   UNL     1      13.600 -10.756   3.639  0.00  0.00    +0.000 C 
ATOM     29  C   UNL     1      14.380  -8.762   2.275  0.00  0.00    +0.000 C 
ATOM     30  C   UNL     1      13.505  -8.988   1.043  0.00  0.00    +0.000 C 
ENDBRANCH  23  24
ENDBRANCH  20  23
ENDBRANCH  16  17
ENDBRANCH   3  16
TORSDOF 5
