REMARK  Name = 
REMARK  6 active torsions:
REMARK  status: ('A' for Active; 'I' for Inactive)
REMARK    1  A    between atoms: N_1  and  C_2
REMARK    2  A    between atoms: C_2  and  C_3
REMARK    3  A    between atoms: C_3  and  C_4
REMARK    4  A    between atoms: C_7  and  C_8
REMARK    5  A    between atoms: C_8  and  N_9
REMARK    6  A    between atoms: C_14  and  C_15
REMARK                            x       y       z     vdW  Elec       q    Type
REMARK                         _______ _______ _______ _____ _____    ______ ____
ROOT
ATOM      1  N   UNL     1       9.360   1.728   1.394  0.00  0.00    +0.000 N 
ATOM      2  N   UNL     1       9.724   2.230   0.187  0.00  0.00    +0.000 NA
ATOM      3  C   UNL     1      10.061   3.491   0.465  0.00  0.00    +0.000 A 
ATOM      4  C   UNL     1       9.980   3.789   1.843  0.00  0.00    +0.000 A 
ATOM      5  C   UNL     1      10.191   4.932   2.639  0.00  0.00    +0.000 A 
ATOM      6  C   UNL     1       9.979   4.851   4.024  0.00  0.00    +0.000 A 
ATOM      7  C   UNL     1       9.593   3.629   4.598  0.00  0.00    +0.000 A 
ATOM      8  C   UNL     1       9.396   2.481   3.822  0.00  0.00    +0.000 A 
ATOM      9  C   UNL     1       9.569   2.601   2.438  0.00  0.00    +0.000 A 
ENDROOT
BRANCH   6  10
ATOM     10  C   UNL     1      10.128   6.024   4.938  0.00  0.00    +0.000 C 
ATOM     11  N   UNL     1      10.488   7.229   4.399  0.00  0.00    +0.000 N 
ATOM     12  O   UNL     1       9.934   5.930   6.140  0.00  0.00    +0.000 OA
ATOM     13  H   UNL     1      10.680   7.408   3.427  0.00  0.00    +0.000 HD
ATOM     14  H   UNL     1      10.581   8.002   5.048  0.00  0.00    +0.000 HD
ENDBRANCH   6  10
BRANCH   1  15
ATOM     15  C   UNL     1       8.821   0.377   1.471  0.00  0.00    +0.000 C 
BRANCH  15  19
ATOM     16  C   UNL     1       4.519   0.046   1.042  0.00  0.00    +0.000 A 
ATOM     17  C   UNL     1       5.350   0.079  -0.085  0.00  0.00    +0.000 A 
ATOM     18  C   UNL     1       6.734   0.220   0.054  0.00  0.00    +0.000 A 
ATOM     19  C   UNL     1       7.321   0.333   1.323  0.00  0.00    +0.000 A 
ATOM     20  C   UNL     1       6.475   0.358   2.436  0.00  0.00    +0.000 A 
ATOM     21  F   UNL     1       6.984   0.524   3.665  0.00  0.00    +0.000 F 
ATOM     22  C   UNL     1       5.097   0.188   2.308  0.00  0.00    +0.000 A 
BRANCH  16  23
ATOM     23  C   UNL     1       3.030  -0.152   0.907  0.00  0.00    +0.000 C 
BRANCH  23  24
ATOM     24  C   UNL     1       2.646  -1.636   0.897  0.00  0.00    +0.000 C 
BRANCH  24  25
ATOM     25  N   UNL     1       1.199  -1.804   0.784  0.00  0.00    +0.000 NA
ATOM     26  H   UNL     1       0.978  -2.799   0.751  0.00  0.00    +0.000 HD
ATOM     27  H   UNL     1       0.875  -1.412  -0.099  0.00  0.00    +0.000 HD
ENDBRANCH  24  25
ENDBRANCH  23  24
ENDBRANCH  16  23
ENDBRANCH  15  19
ENDBRANCH   1  15
TORSDOF 6
