REMARK  Name = 
REMARK  8 active torsions:
REMARK  status: ('A' for Active; 'I' for Inactive)
REMARK    1  A    between atoms: C_1  and  C_2
REMARK    2  A    between atoms: C_2  and  O_3
REMARK    3  A    between atoms: C_5  and  O_6
REMARK    4  A    between atoms: O_6  and  C_7
REMARK    5  A    between atoms: C_11  and  C_12
REMARK    6  A    between atoms: C_12  and  C_13
REMARK    7  A    between atoms: C_13  and  N_14
REMARK    8  A    between atoms: C_18  and  C_19
REMARK                            x       y       z     vdW  Elec       q    Type
REMARK                         _______ _______ _______ _____ _____    ______ ____
ROOT
ATOM      1  C   UNL     1       5.678  -1.172   2.719  0.00  0.00    +0.000 A 
ATOM      2  C   UNL     1       5.821  -2.285   1.898  0.00  0.00    +0.000 A 
ATOM      3  C   UNL     1       6.723  -3.291   2.248  0.00  0.00    +0.000 A 
ATOM      4  C   UNL     1       7.508  -3.169   3.397  0.00  0.00    +0.000 A 
ATOM      5  C   UNL     1       7.415  -2.029   4.208  0.00  0.00    +0.000 A 
ATOM      6  C   UNL     1       6.475  -1.043   3.856  0.00  0.00    +0.000 A 
ENDROOT
BRANCH   1   7
ATOM      7  O   UNL     1       4.794  -0.144   2.495  0.00  0.00    +0.000 OA
BRANCH   7  11
ATOM      8  C   UNL     1       0.272  -0.527   2.734  0.00  0.00    +0.000 C 
ATOM      9  C   UNL     1       1.469  -0.620   1.803  0.00  0.00    +0.000 C 
ATOM     10  C   UNL     1       2.633  -1.485   2.340  0.00  0.00    +0.000 C 
ATOM     11  C   UNL     1       3.607  -0.443   1.731  0.00  0.00    +0.000 C 
ATOM     12  C   UNL     1       2.452   0.583   1.850  0.00  0.00    +0.000 C 
BRANCH   9  13
ATOM     13  O   UNL     1       1.016  -0.971   0.475  0.00  0.00    +0.000 OA
ATOM     14  H   UNL     1       0.600  -1.846   0.567  0.00  0.00    +0.000 HD
ENDBRANCH   9  13
ENDBRANCH   7  11
ENDBRANCH   1   7
BRANCH   5  15
ATOM     15  C   UNL     1       8.342  -1.900   5.405  0.00  0.00    +0.000 C 
BRANCH  15  16
ATOM     16  C   UNL     1       8.163  -0.595   6.184  0.00  0.00    +0.000 C 
BRANCH  16  17
ATOM     17  N   UNL     1       9.106  -0.449   7.298  0.00  0.00    +0.000 N 
ATOM     18  C   UNL     1       8.894   0.779   7.968  0.00  0.00    +0.000 A 
ATOM     19  C   UNL     1       9.710   1.112   9.044  0.00  0.00    +0.000 A 
ATOM     20  C   UNL     1       9.492   2.313   9.725  0.00  0.00    +0.000 A 
ATOM     21  C   UNL     1       8.464   3.156   9.316  0.00  0.00    +0.000 A 
ATOM     22  C   UNL     1       7.694   2.754   8.242  0.00  0.00    +0.000 A 
ATOM     23  N   UNL     1       7.889   1.594   7.578  0.00  0.00    +0.000 NA
ATOM     24  H   UNL     1      10.074  -0.481   6.987  0.00  0.00    +0.000 HD
BRANCH  21  25
ATOM     25  C   UNL     1       8.194   4.394   9.969  0.00  0.00    +0.000 C 
ATOM     26  N   UNL     1       7.969   5.406  10.496  0.00  0.00    +0.000 NA
ENDBRANCH  21  25
ENDBRANCH  16  17
ENDBRANCH  15  16
ENDBRANCH   5  15
TORSDOF 7
