REMARK  Name = 
REMARK  7 active torsions:
REMARK  status: ('A' for Active; 'I' for Inactive)
REMARK    1  A    between atoms: C_1  and  C_2
REMARK    2  A    between atoms: C_2  and  C_3
REMARK    3  A    between atoms: N_6  and  C_7
REMARK    4  A    between atoms: N_6  and  C_8
REMARK    5  A    between atoms: C_8  and  C_9
REMARK    6  A    between atoms: C_12  and  O_13
REMARK    7  A    between atoms: C_20  and  C_21
REMARK                            x       y       z     vdW  Elec       q    Type
REMARK                         _______ _______ _______ _____ _____    ______ ____
ROOT
ATOM      1  C   UNL     1       3.656  -0.732   1.105  0.00  0.00    +0.000 A 
ATOM      2  N   UNL     1       3.390  -2.060   1.262  0.00  0.00    +0.000 NA
ATOM      3  C   UNL     1       3.086  -2.543   2.482  0.00  0.00    +0.000 A 
ATOM      4  N   UNL     1       2.751  -3.894   2.599  0.00  0.00    +0.000 N 
ATOM      5  C   UNL     1       2.312  -4.566   1.392  0.00  0.00    +0.000 C 
ATOM      6  N   UNL     1       3.050  -1.753   3.565  0.00  0.00    +0.000 NA
ATOM      7  C   UNL     1       3.261  -0.429   3.376  0.00  0.00    +0.000 A 
ATOM      8  C   UNL     1       3.555   0.154   2.161  0.00  0.00    +0.000 A 
ENDROOT
BRANCH   8   9
ATOM      9  C   UNL     1       3.769   1.613   2.047  0.00  0.00    +0.000 C 
ATOM     10  N   UNL     1       3.037   2.428   2.874  0.00  0.00    +0.000 N 
ATOM     11  O   UNL     1       4.544   2.106   1.246  0.00  0.00    +0.000 OA
ATOM     12  H   UNL     1       2.244   2.120   3.423  0.00  0.00    +0.000 HD
ATOM     13  H   UNL     1       3.138   3.427   2.724  0.00  0.00    +0.000 HD
ENDBRANCH   8   9
BRANCH   4  14
ATOM     14  C   UNL     1       3.160  -4.698   3.772  0.00  0.00    +0.000 C 
ATOM     15  C   UNL     1       4.632  -4.735   4.177  0.00  0.00    +0.000 C 
ATOM     16  C   UNL     1       4.025  -5.949   3.564  0.00  0.00    +0.000 C 
BRANCH  14  17
ATOM     17  C   UNL     1       2.113  -4.835   4.877  0.00  0.00    +0.000 A 
ATOM     18  C   UNL     1       1.102  -5.813   4.801  0.00  0.00    +0.000 A 
ATOM     19  C   UNL     1       0.288  -6.107   5.897  0.00  0.00    +0.000 A 
ATOM     20  C   UNL     1       0.466  -5.405   7.082  0.00  0.00    +0.000 A 
ATOM     21  C   UNL     1       1.390  -4.373   7.163  0.00  0.00    +0.000 A 
ATOM     22  C   UNL     1       2.198  -4.084   6.062  0.00  0.00    +0.000 A 
BRANCH  20  23
ATOM     23  O   UNL     1      -0.236  -5.723   8.206  0.00  0.00    +0.000 OA
ATOM     24  H   UNL     1      -0.682  -6.573   8.055  0.00  0.00    +0.000 HD
ENDBRANCH  20  23
ENDBRANCH  14  17
ENDBRANCH   4  14
BRANCH   1  26
ATOM     25  C   UNL     1       2.698  -0.026  -1.089  0.00  0.00    +0.000 C 
ATOM     26  C   UNL     1       3.968  -0.343  -0.315  0.00  0.00    +0.000 C 
ENDBRANCH   1  26
TORSDOF 5
