REMARK  Name = 
REMARK  8 active torsions:
REMARK  status: ('A' for Active; 'I' for Inactive)
REMARK    1  A    between atoms: N_1  and  C_2
REMARK    2  A    between atoms: C_2  and  C_3
REMARK    3  A    between atoms: C_3  and  N_4
REMARK    4  A    between atoms: C_3  and  C_17
REMARK    5  A    between atoms: C_5  and  C_7
REMARK    6  A    between atoms: C_20  and  C_21
REMARK    7  A    between atoms: C_21  and  N_22
REMARK    8  A    between atoms: C_23  and  C_25
REMARK                            x       y       z     vdW  Elec       q    Type
REMARK                         _______ _______ _______ _____ _____    ______ ____
ROOT
ATOM      1  C   UNL     1       2.824  -1.041   0.714  0.00  0.00    +0.000 C 
ENDROOT
BRANCH   1   2
ATOM      2  C   UNL     1       4.352  -1.185   0.770  0.00  0.00    +0.000 A 
ATOM      3  C   UNL     1       5.000  -1.434   1.989  0.00  0.00    +0.000 A 
ATOM      4  C   UNL     1       6.398  -1.528   2.058  0.00  0.00    +0.000 A 
ATOM      5  C   UNL     1       7.187  -1.374   0.909  0.00  0.00    +0.000 A 
ATOM      6  C   UNL     1       6.539  -1.180  -0.318  0.00  0.00    +0.000 A 
ATOM      7  C   UNL     1       5.143  -1.084  -0.387  0.00  0.00    +0.000 A 
BRANCH   5   8
ATOM      8  C   UNL     1       8.696  -1.388   0.986  0.00  0.00    +0.000 C 
BRANCH   8   9
ATOM      9  N   UNL     1       9.253  -2.710   0.832  0.00  0.00    +0.000 N 
ATOM     10  C   UNL     1      10.614  -2.909   0.784  0.00  0.00    +0.000 C 
ATOM     11  O   UNL     1      11.418  -1.986   0.842  0.00  0.00    +0.000 OA
ATOM     12  H   UNL     1       8.632  -3.503   0.887  0.00  0.00    +0.000 HD
BRANCH  10  13
ATOM     13  C   UNL     1      11.031  -4.292   0.658  0.00  0.00    +0.000 A 
ATOM     14  C   UNL     1      10.307  -5.470   0.537  0.00  0.00    +0.000 A 
ATOM     15  C   UNL     1      11.220  -6.547   0.438  0.00  0.00    +0.000 A 
ATOM     16  C   UNL     1      12.485  -6.014   0.497  0.00  0.00    +0.000 A 
ATOM     17  N   UNL     1      12.365  -4.657   0.625  0.00  0.00    +0.000 N 
ATOM     18  H   UNL     1      13.131  -3.995   0.684  0.00  0.00    +0.000 HD
ENDBRANCH  10  13
ENDBRANCH   8   9
ENDBRANCH   5   8
ENDBRANCH   1   2
BRANCH   1  19
ATOM     19  N   UNL     1       2.294  -2.122  -0.100  0.00  0.00    +0.000 N 
ATOM     20  C   UNL     1       0.954  -2.394  -0.237  0.00  0.00    +0.000 C 
ATOM     21  O   UNL     1       0.066  -1.664   0.183  0.00  0.00    +0.000 OA
ATOM     22  H   UNL     1       2.938  -2.889  -0.234  0.00  0.00    +0.000 HD
BRANCH  20  23
ATOM     23  C   UNL     1       0.656  -3.615  -0.992  0.00  0.00    +0.000 A 
ATOM     24  C   UNL     1      -0.495  -3.715  -1.762  0.00  0.00    +0.000 A 
ATOM     25  S   UNL     1      -0.619  -5.204  -2.593  0.00  0.00    +0.000 S 
ATOM     26  C   UNL     1       0.828  -5.778  -1.903  0.00  0.00    +0.000 A 
ATOM     27  N   UNL     1       1.300  -7.025  -2.178  0.00  0.00    +0.000 NA
ATOM     28  C   UNL     1       2.392  -7.330  -1.557  0.00  0.00    +0.000 A 
ATOM     29  N   UNL     1       3.060  -6.502  -0.694  0.00  0.00    +0.000 N 
ATOM     30  C   UNL     1       2.641  -5.229  -0.417  0.00  0.00    +0.000 A 
ATOM     31  O   UNL     1       3.304  -4.490   0.306  0.00  0.00    +0.000 OA
ATOM     32  C   UNL     1       1.408  -4.840  -1.071  0.00  0.00    +0.000 A 
ATOM     33  H   UNL     1       3.923  -6.788  -0.256  0.00  0.00    +0.000 HD
ENDBRANCH  20  23
ENDBRANCH   1  19
BRANCH   1  34
ATOM     34  C   UNL     1       2.384   0.353   0.179  0.00  0.00    +0.000 C 
BRANCH  34  35
ATOM     35  N   UNL     1       2.893   1.491   0.954  0.00  0.00    +0.000 NA
ATOM     36  H   UNL     1       2.796   2.335   0.391  0.00  0.00    +0.000 HD
ATOM     37  H   UNL     1       3.892   1.370   1.120  0.00  0.00    +0.000 HD
ENDBRANCH  34  35
ENDBRANCH   1  34
TORSDOF 8
