REMARK  Name = 
REMARK  9 active torsions:
REMARK  status: ('A' for Active; 'I' for Inactive)
REMARK    1  A    between atoms: C_1  and  C_2
REMARK    2  A    between atoms: C_2  and  C_3
REMARK    3  A    between atoms: N_5  and  C_6
REMARK    4  A    between atoms: C_6  and  C_7
REMARK    5  A    between atoms: C_11  and  C_12
REMARK    6  A    between atoms: C_12  and  C_13
REMARK    7  A    between atoms: C_13  and  N_14
REMARK    8  A    between atoms: N_14  and  C_15
REMARK    9  A    between atoms: C_18  and  C_19
REMARK                            x       y       z     vdW  Elec       q    Type
REMARK                         _______ _______ _______ _____ _____    ______ ____
ROOT
ATOM      1  C   UNL     1       9.941  -1.545   2.329  0.00  0.00    +0.000 C 
ENDROOT
BRANCH   1   6
ATOM      2  C   UNL     1       6.378  -1.279   0.936  0.00  0.00    +0.000 A 
ATOM      3  C   UNL     1       6.094  -2.642   0.856  0.00  0.00    +0.000 A 
ATOM      4  C   UNL     1       7.042  -3.547   1.296  0.00  0.00    +0.000 A 
ATOM      5  N   UNL     1       8.258  -3.193   1.765  0.00  0.00    +0.000 NA
ATOM      6  C   UNL     1       8.550  -1.872   1.826  0.00  0.00    +0.000 A 
ATOM      7  C   UNL     1       7.627  -0.897   1.437  0.00  0.00    +0.000 A 
BRANCH   2   8
ATOM      8  C   UNL     1       5.374  -0.237   0.496  0.00  0.00    +0.000 C 
BRANCH   8  13
ATOM      9  C   UNL     1       1.146  -0.104   2.017  0.00  0.00    +0.000 C 
ATOM     10  C   UNL     1       2.437  -0.340   1.235  0.00  0.00    +0.000 C 
ATOM     11  C   UNL     1       2.157  -1.217   0.012  0.00  0.00    +0.000 C 
ATOM     12  C   UNL     1       3.606  -0.800   2.135  0.00  0.00    +0.000 C 
ATOM     13  N   UNL     1       4.484   0.240   1.564  0.00  0.00    +0.000 NA
ATOM     14  C   UNL     1       3.304   0.927   0.985  0.00  0.00    +0.000 C 
ENDBRANCH   8  13
ENDBRANCH   2   8
ENDBRANCH   1   6
BRANCH   1  15
ATOM     15  C   UNL     1      10.258  -0.052   2.365  0.00  0.00    +0.000 C 
BRANCH  15  16
ATOM     16  N   UNL     1      11.614   0.229   2.845  0.00  0.00    +0.000 N 
ATOM     17  H   UNL     1      12.320  -0.336   2.376  0.00  0.00    +0.000 HD
BRANCH  16  18
ATOM     18  C   UNL     1      11.977   1.589   2.891  0.00  0.00    +0.000 A 
ATOM     19  C   UNL     1      11.060   2.617   3.142  0.00  0.00    +0.000 A 
ATOM     20  C   UNL     1      11.478   3.942   3.238  0.00  0.00    +0.000 A 
ATOM     21  C   UNL     1      12.829   4.211   3.112  0.00  0.00    +0.000 A 
ATOM     22  N   UNL     1      13.776   3.254   2.912  0.00  0.00    +0.000 NA
ATOM     23  C   UNL     1      13.320   1.977   2.828  0.00  0.00    +0.000 A 
BRANCH  21  24
ATOM     24  C   UNL     1      13.304   5.626   3.219  0.00  0.00    +0.000 C 
ATOM     25  N   UNL     1      14.654   5.801   3.099  0.00  0.00    +0.000 N 
ATOM     26  O   UNL     1      12.544   6.569   3.405  0.00  0.00    +0.000 OA
ATOM     27  H   UNL     1      15.252   4.991   2.979  0.00  0.00    +0.000 HD
ATOM     28  H   UNL     1      15.047   6.725   3.201  0.00  0.00    +0.000 HD
ENDBRANCH  21  24
ENDBRANCH  16  18
ENDBRANCH  15  16
ENDBRANCH   1  15
TORSDOF 7
