REMARK  Name = 
REMARK  6 active torsions:
REMARK  status: ('A' for Active; 'I' for Inactive)
REMARK    1  A    between atoms: N_1  and  C_2
REMARK    2  A    between atoms: C_2  and  C_3
REMARK    3  A    between atoms: C_3  and  O_4
REMARK    4  A    between atoms: O_4  and  C_5
REMARK    5  A    between atoms: C_8  and  C_9
REMARK    6  A    between atoms: C_9  and  C_10
REMARK                            x       y       z     vdW  Elec       q    Type
REMARK                         _______ _______ _______ _____ _____    ______ ____
ROOT
ATOM      1  C   UNL     1       4.973   0.878  -2.663  0.00  0.00    +0.000 A 
ATOM      2  C   UNL     1       4.567   2.022  -3.330  0.00  0.00    +0.000 A 
ATOM      3  C   UNL     1       5.273   2.411  -4.467  0.00  0.00    +0.000 A 
ATOM      4  C   UNL     1       6.357   1.645  -4.906  0.00  0.00    +0.000 A 
ATOM      5  C   UNL     1       6.628   0.474  -4.200  0.00  0.00    +0.000 A 
ATOM      6  N   UNL     1       5.965   0.073  -3.096  0.00  0.00    +0.000 NA
ENDROOT
BRANCH   1   7
ATOM      7  O   UNL     1       4.317   0.559  -1.488  0.00  0.00    +0.000 OA
BRANCH   7   8
ATOM      8  C   UNL     1       5.182  -0.169  -0.601  0.00  0.00    +0.000 C 
BRANCH   8   9
ATOM      9  C   UNL     1       4.458  -0.465   0.718  0.00  0.00    +0.000 C 
BRANCH   9  10
ATOM     10  N   UNL     1       4.101   0.747   1.460  0.00  0.00    +0.000 NA
ATOM     11  H   UNL     1       3.548   0.489   2.276  0.00  0.00    +0.000 HD
ATOM     12  H   UNL     1       3.494   1.316   0.869  0.00  0.00    +0.000 HD
ENDBRANCH   9  10
ENDBRANCH   8   9
ENDBRANCH   7   8
ENDBRANCH   1   7
BRANCH   4  13
ATOM     13  C   UNL     1       7.281   2.111  -6.011  0.00  0.00    +0.000 C 
BRANCH  13  14
ATOM     14  C   UNL     1       8.443   2.692  -5.264  0.00  0.00    +0.000 A 
ATOM     15  C   UNL     1       9.584   2.019  -4.866  0.00  0.00    +0.000 A 
ATOM     16  N   UNL     1      10.262   2.813  -3.981  0.00  0.00    +0.000 N 
ATOM     17  C   UNL     1       9.628   4.025  -3.853  0.00  0.00    +0.000 A 
ATOM     18  C   UNL     1       9.908   5.108  -3.030  0.00  0.00    +0.000 A 
ATOM     19  N   UNL     1       9.157   6.227  -3.136  0.00  0.00    +0.000 NA
ATOM     20  C   UNL     1       8.147   6.253  -4.032  0.00  0.00    +0.000 A 
ATOM     21  C   UNL     1       7.780   5.191  -4.844  0.00  0.00    +0.000 A 
ATOM     22  C   UNL     1       8.545   4.021  -4.730  0.00  0.00    +0.000 A 
ATOM     23  H   UNL     1      11.090   2.539  -3.469  0.00  0.00    +0.000 HD
ENDBRANCH  13  14
ENDBRANCH   4  13
TORSDOF 6
