REMARK  Name = 
REMARK  5 active torsions:
REMARK  status: ('A' for Active; 'I' for Inactive)
REMARK    1  A    between atoms: C_2  and  C_4
REMARK    2  A    between atoms: C_7  and  O_8
REMARK    3  A    between atoms: O_8  and  C_9
REMARK    4  A    between atoms: C_9  and  C_10
REMARK    5  A    between atoms: C_14  and  C_15
REMARK                            x       y       z     vdW  Elec       q    Type
REMARK                         _______ _______ _______ _____ _____    ______ ____
ROOT
ATOM      1  C   UNL     1       5.039  -3.617  -4.832  0.00  0.00    +0.000 C 
ATOM      2  C   UNL     1       5.077  -2.782  -6.106  0.00  0.00    +0.000 C 
ATOM      3  C   UNL     1       3.769  -3.278  -5.587  0.00  0.00    +0.000 C 
ENDROOT
BRANCH   1   4
ATOM      4  C   UNL     1       5.614  -5.024  -4.869  0.00  0.00    +0.000 A 
ATOM      5  C   UNL     1       6.997  -5.222  -4.997  0.00  0.00    +0.000 A 
ATOM      6  C   UNL     1       7.557  -6.496  -4.942  0.00  0.00    +0.000 A 
ATOM      7  C   UNL     1       6.741  -7.608  -4.731  0.00  0.00    +0.000 A 
ATOM      8  C   UNL     1       5.353  -7.470  -4.577  0.00  0.00    +0.000 A 
ATOM      9  C   UNL     1       4.814  -6.172  -4.693  0.00  0.00    +0.000 A 
BRANCH   8  10
ATOM     10  C   UNL     1       4.492  -8.620  -4.239  0.00  0.00    +0.000 A 
ATOM     11  C   UNL     1       4.914  -9.655  -3.400  0.00  0.00    +0.000 A 
ATOM     12  N   UNL     1       4.135 -10.705  -3.040  0.00  0.00    +0.000 NA
ATOM     13  C   UNL     1       2.890 -10.688  -3.554  0.00  0.00    +0.000 A 
ATOM     14  C   UNL     1       2.446  -9.671  -4.382  0.00  0.00    +0.000 A 
ATOM     15  N   UNL     1       3.228  -8.618  -4.734  0.00  0.00    +0.000 NA
ENDBRANCH   8  10
ENDBRANCH   1   4
BRANCH   1  16
ATOM     16  O   UNL     1       5.420  -2.805  -3.695  0.00  0.00    +0.000 OA
BRANCH  16  20
ATOM     17  C   UNL     1       3.342  -2.719  -0.083  0.00  0.00    +0.000 A 
ATOM     18  C   UNL     1       2.906  -3.598  -1.082  0.00  0.00    +0.000 A 
ATOM     19  C   UNL     1       3.589  -3.673  -2.302  0.00  0.00    +0.000 A 
ATOM     20  C   UNL     1       4.703  -2.870  -2.531  0.00  0.00    +0.000 A 
ATOM     21  C   UNL     1       5.149  -2.008  -1.525  0.00  0.00    +0.000 A 
ATOM     22  C   UNL     1       4.469  -1.923  -0.309  0.00  0.00    +0.000 A 
BRANCH  17  24
ATOM     23  N   UNL     1       1.894  -3.649   1.642  0.00  0.00    +0.000 N 
ATOM     24  C   UNL     1       2.612  -2.569   1.201  0.00  0.00    +0.000 C 
ATOM     25  O   UNL     1       2.668  -1.540   1.859  0.00  0.00    +0.000 OA
ATOM     26  H   UNL     1       1.480  -3.567   2.560  0.00  0.00    +0.000 HD
ATOM     27  H   UNL     1       2.025  -4.577   1.265  0.00  0.00    +0.000 HD
ENDBRANCH  17  24
ENDBRANCH  16  20
ENDBRANCH   1  16
TORSDOF 5
