REMARK  Name = 
REMARK  11 active torsions:
REMARK  status: ('A' for Active; 'I' for Inactive)
REMARK    1  A    between atoms: C_1  and  C_2
REMARK    2  A    between atoms: C_2  and  N_3
REMARK    3  A    between atoms: C_2  and  C_22
REMARK    4  A    between atoms: N_3  and  C_4
REMARK    5  A    between atoms: C_4  and  C_5
REMARK    6  A    between atoms: C_8  and  C_9
REMARK    7  A    between atoms: C_9  and  N_10
REMARK    8  A    between atoms: N_10  and  CA_11
REMARK    9  A    between atoms: CA_11  and  C_12
REMARK   10  A    between atoms: CA_11  and  C_14
REMARK   11  A    between atoms: C_12  and  O_13
REMARK                            x       y       z     vdW  Elec       q    Type
REMARK                         _______ _______ _______ _____ _____    ______ ____
ROOT
ATOM      1  C   UNL     1      -0.848   0.554   1.284  0.00  0.00    +0.000 A 
ATOM      2  C   UNL     1      -1.582  -0.389   1.990  0.00  0.00    +0.000 A 
ATOM      3  C   UNL     1      -2.967  -0.300   1.972  0.00  0.00    +0.000 A 
ATOM      4  C   UNL     1      -3.591   0.724   1.249  0.00  0.00    +0.000 A 
ATOM      5  C   UNL     1      -2.772   1.609   0.561  0.00  0.00    +0.000 A 
ATOM      6  N   UNL     1      -1.427   1.545   0.559  0.00  0.00    +0.000 NA
ENDROOT
BRANCH   1   7
ATOM      7  C   UNL     1       0.658   0.468   1.254  0.00  0.00    +0.000 C 
BRANCH   7   8
ATOM      8  N   UNL     1       1.296   1.667   1.802  0.00  0.00    +0.000 NA
ATOM      9  H   UNL     1       0.998   1.785   2.769  0.00  0.00    +0.000 HD
BRANCH   8  11
ATOM     10  C   UNL     1       3.245   1.376   0.298  0.00  0.00    +0.000 C 
ATOM     11  C   UNL     1       2.756   1.598   1.735  0.00  0.00    +0.000 C 
BRANCH  11  12
ATOM     12  C   UNL     1       3.325   2.877   2.321  0.00  0.00    +0.000 A 
ATOM     13  C   UNL     1       2.734   4.133   2.269  0.00  0.00    +0.000 A 
ATOM     14  S   UNL     1       3.667   5.354   3.019  0.00  0.00    +0.000 S 
ATOM     15  C   UNL     1       4.885   4.245   3.450  0.00  0.00    +0.000 A 
ATOM     16  N   UNL     1       5.990   4.638   4.140  0.00  0.00    +0.000 NA
ATOM     17  C   UNL     1       6.816   3.682   4.408  0.00  0.00    +0.000 A 
ATOM     18  N   UNL     1       6.640   2.373   4.043  0.00  0.00    +0.000 N 
ATOM     19  C   UNL     1       5.549   1.927   3.327  0.00  0.00    +0.000 A 
ATOM     20  O   UNL     1       5.434   0.753   2.996  0.00  0.00    +0.000 OA
ATOM     21  C   UNL     1       4.586   2.968   3.019  0.00  0.00    +0.000 A 
ATOM     22  H   UNL     1       7.337   1.665   4.283  0.00  0.00    +0.000 HD
ENDBRANCH  11  12
ENDBRANCH   8  11
ENDBRANCH   7   8
ENDBRANCH   1   7
BRANCH   4  23
ATOM     23  C   UNL     1      -5.089   0.850   1.161  0.00  0.00    +0.000 C 
BRANCH  23  24
ATOM     24  N   UNL     1      -5.679   1.006   2.486  0.00  0.00    +0.000 NA
ATOM     25  H   UNL     1      -5.282   1.850   2.905  0.00  0.00    +0.000 HD
BRANCH  24  26
ATOM     26  CA  UNL     1      -7.154   1.175   2.476  0.00  0.00    +0.000 C 
BRANCH  26  27
ATOM     27  C   UNL     1      -7.680   1.449   3.893  0.00  0.00    +0.000 A 
ATOM     28  C   UNL     1      -7.045   0.933   5.025  0.00  0.00    +0.000 A 
ATOM     29  C   UNL     1      -7.577   1.200   6.283  0.00  0.00    +0.000 A 
ATOM     30  C   UNL     1      -8.737   1.955   6.388  0.00  0.00    +0.000 A 
ATOM     31  C   UNL     1      -9.320   2.416   5.222  0.00  0.00    +0.000 A 
ATOM     32  N   UNL     1      -8.827   2.174   3.986  0.00  0.00    +0.000 NA
ENDBRANCH  26  27
BRANCH  26  33
ATOM     33  C   UNL     1      -7.936  -0.031   1.885  0.00  0.00    +0.000 C 
BRANCH  33  34
ATOM     34  O   UNL     1      -9.352   0.171   1.844  0.00  0.00    +0.000 OA
ATOM     35  H   UNL     1      -9.621   0.519   2.719  0.00  0.00    +0.000 HD
ENDBRANCH  33  34
ENDBRANCH  26  33
ENDBRANCH  24  26
ENDBRANCH  23  24
ENDBRANCH   4  23
TORSDOF 10
