REMARK  Name = 
REMARK  9 active torsions:
REMARK  status: ('A' for Active; 'I' for Inactive)
REMARK    1  A    between atoms: C_1  and  C_2
REMARK    2  A    between atoms: C_2  and  C_3
REMARK    3  A    between atoms: C_3  and  C_4
REMARK    4  A    between atoms: C_3  and  C_5
REMARK    5  A    between atoms: C_3  and  C_16
REMARK    6  A    between atoms: C_5  and  O_6
REMARK    7  A    between atoms: O_6  and  C_7
REMARK    8  A    between atoms: C_10  and  C_11
REMARK    9  A    between atoms: C_20  and  C_21
REMARK                            x       y       z     vdW  Elec       q    Type
REMARK                         _______ _______ _______ _____ _____    ______ ____
ROOT
ATOM      1  C   UNL     1       2.998   1.461   0.106  0.00  0.00    +0.000 C 
ATOM      2  C   UNL     1       2.542   2.233  -1.153  0.00  0.00    +0.000 C 
ENDROOT
BRANCH   1   3
ATOM      3  C   UNL     1       4.556   1.448   0.159  0.00  0.00    +0.000 A 
ATOM      4  C   UNL     1       5.283   2.657   0.187  0.00  0.00    +0.000 A 
ATOM      5  C   UNL     1       6.677   2.674   0.307  0.00  0.00    +0.000 A 
ATOM      6  C   UNL     1       7.383   1.481   0.429  0.00  0.00    +0.000 A 
ATOM      7  C   UNL     1       6.695   0.268   0.418  0.00  0.00    +0.000 A 
ATOM      8  C   UNL     1       5.301   0.256   0.243  0.00  0.00    +0.000 A 
BRANCH   7   9
ATOM      9  C   UNL     1       7.466  -0.986   0.636  0.00  0.00    +0.000 C 
ATOM     10  N   UNL     1       6.791  -2.053   1.167  0.00  0.00    +0.000 N 
ATOM     11  O   UNL     1       8.667  -1.054   0.411  0.00  0.00    +0.000 OA
ATOM     12  H   UNL     1       5.871  -1.970   1.578  0.00  0.00    +0.000 HD
ATOM     13  H   UNL     1       7.357  -2.841   1.450  0.00  0.00    +0.000 HD
ENDBRANCH   7   9
ENDBRANCH   1   3
BRANCH   1  15
ATOM     14  C   UNL     1       0.903  -0.179   0.005  0.00  0.00    +0.000 C 
ATOM     15  C   UNL     1       2.415   0.006   0.050  0.00  0.00    +0.000 C 
ENDBRANCH   1  15
BRANCH   1  16
ATOM     16  C   UNL     1       2.493   2.197   1.387  0.00  0.00    +0.000 C 
BRANCH  16  17
ATOM     17  O   UNL     1       1.068   2.366   1.388  0.00  0.00    +0.000 OA
BRANCH  17  18
ATOM     18  C   UNL     1       0.593   2.887   2.572  0.00  0.00    +0.000 A 
ATOM     19  C   UNL     1      -0.781   3.046   2.719  0.00  0.00    +0.000 A 
ATOM     20  N   UNL     1      -1.356   3.550   3.844  0.00  0.00    +0.000 NA
ATOM     21  C   UNL     1      -0.467   3.892   4.822  0.00  0.00    +0.000 A 
ATOM     22  C   UNL     1       0.903   3.734   4.677  0.00  0.00    +0.000 A 
ATOM     23  N   UNL     1       1.462   3.231   3.549  0.00  0.00    +0.000 NA
BRANCH  21  24
ATOM     24  C   UNL     1      -0.997   4.453   6.095  0.00  0.00    +0.000 C 
ATOM     25  N   UNL     1      -2.356   4.597   6.177  0.00  0.00    +0.000 N 
ATOM     26  O   UNL     1      -0.262   4.770   7.020  0.00  0.00    +0.000 OA
ATOM     27  H   UNL     1      -2.948   4.332   5.399  0.00  0.00    +0.000 HD
ATOM     28  H   UNL     1      -2.758   4.972   7.021  0.00  0.00    +0.000 HD
ENDBRANCH  21  24
ENDBRANCH  17  18
ENDBRANCH  16  17
ENDBRANCH   1  16
TORSDOF 7
