REMARK  Name = 
REMARK  6 active torsions:
REMARK  status: ('A' for Active; 'I' for Inactive)
REMARK    1  A    between atoms: C_1  and  C_2
REMARK    2  A    between atoms: C_2  and  C_3
REMARK    3  A    between atoms: C_7  and  C_8
REMARK    4  A    between atoms: C_8  and  C_9
REMARK    5  A    between atoms: C_9  and  N_10
REMARK    6  A    between atoms: C_14  and  C_15
REMARK                            x       y       z     vdW  Elec       q    Type
REMARK                         _______ _______ _______ _____ _____    ______ ____
ROOT
ATOM      1  C   UNL     1       4.725  -2.422   3.894  0.00  0.00    +0.000 C 
ENDROOT
BRANCH   1   6
ATOM      2  C   UNL     1       3.031  -0.039   1.417  0.00  0.00    +0.000 A 
ATOM      3  C   UNL     1       2.771   1.058   2.259  0.00  0.00    +0.000 A 
ATOM      4  C   UNL     1       3.177   1.054   3.593  0.00  0.00    +0.000 A 
ATOM      5  C   UNL     1       3.837  -0.054   4.121  0.00  0.00    +0.000 A 
ATOM      6  C   UNL     1       4.107  -1.166   3.315  0.00  0.00    +0.000 A 
ATOM      7  C   UNL     1       3.719  -1.137   1.963  0.00  0.00    +0.000 A 
BRANCH   2   9
ATOM      8  C   UNL     1       0.988   0.047  -0.070  0.00  0.00    +0.000 C 
ATOM      9  C   UNL     1       2.516  -0.023  -0.018  0.00  0.00    +0.000 C 
ATOM     10  C   UNL     1       3.179   1.035  -0.867  0.00  0.00    +0.000 C 
ATOM     11  C   UNL     1       3.822   0.468  -1.892  0.00  0.00    +0.000 C 
ATOM     12  N   UNL     1       3.707  -0.893  -1.932  0.00  0.00    +0.000 NA
ATOM     13  C   UNL     1       2.977  -1.174  -0.894  0.00  0.00    +0.000 C 
ATOM     14  F   UNL     1       2.634  -2.442  -0.642  0.00  0.00    +0.000 F 
ENDBRANCH   2   9
ENDBRANCH   1   6
BRANCH   1  15
ATOM     15  C   UNL     1       3.641  -3.400   4.370  0.00  0.00    +0.000 C 
BRANCH  15  16
ATOM     16  N   UNL     1       4.221  -4.635   4.920  0.00  0.00    +0.000 N 
ATOM     17  C   UNL     1       3.227  -5.539   5.364  0.00  0.00    +0.000 A 
ATOM     18  C   UNL     1       3.613  -6.760   5.909  0.00  0.00    +0.000 A 
ATOM     19  C   UNL     1       2.640  -7.662   6.341  0.00  0.00    +0.000 A 
ATOM     20  C   UNL     1       1.313  -7.295   6.210  0.00  0.00    +0.000 A 
ATOM     21  N   UNL     1       0.942  -6.117   5.674  0.00  0.00    +0.000 NA
ATOM     22  N   UNL     1       1.910  -5.248   5.241  0.00  0.00    +0.000 NA
ATOM     23  H   UNL     1       4.864  -4.456   5.688  0.00  0.00    +0.000 HD
BRANCH  20  24
ATOM     24  C   UNL     1       0.213  -8.189   6.675  0.00  0.00    +0.000 C 
ATOM     25  N   UNL     1      -1.062  -7.709   6.519  0.00  0.00    +0.000 N 
ATOM     26  O   UNL     1       0.429  -9.284   7.177  0.00  0.00    +0.000 OA
ATOM     27  H   UNL     1      -1.230  -6.800   6.101  0.00  0.00    +0.000 HD
ATOM     28  H   UNL     1      -1.841  -8.274   6.824  0.00  0.00    +0.000 HD
ENDBRANCH  20  24
ENDBRANCH  15  16
ENDBRANCH   1  15
TORSDOF 5
