REMARK  Name = 
REMARK  7 active torsions:
REMARK  status: ('A' for Active; 'I' for Inactive)
REMARK    1  A    between atoms: C_2  and  C_19
REMARK    2  A    between atoms: N_3  and  C_4
REMARK    3  A    between atoms: C_4  and  C_5
REMARK    4  A    between atoms: C_8  and  C_9
REMARK    5  A    between atoms: C_9  and  N_10
REMARK    6  A    between atoms: N_10  and  C_11
REMARK    7  A    between atoms: C_11  and  C_12
REMARK                            x       y       z     vdW  Elec       q    Type
REMARK                         _______ _______ _______ _____ _____    ______ ____
ROOT
ATOM      1  C   UNL     1      -1.019  15.264  -6.348  0.00  0.00    +0.000 C 
ENDROOT
BRANCH   1   2
ATOM      2  C   UNL     1      -0.110  14.062  -6.374  0.00  0.00    +0.000 A 
ATOM      3  C   UNL     1       0.886  13.918  -5.405  0.00  0.00    +0.000 A 
ATOM      4  C   UNL     1       1.724  12.801  -5.409  0.00  0.00    +0.000 A 
ATOM      5  C   UNL     1       1.586  11.803  -6.384  0.00  0.00    +0.000 A 
ATOM      6  C   UNL     1       0.613  11.968  -7.380  0.00  0.00    +0.000 A 
ATOM      7  C   UNL     1      -0.224  13.090  -7.377  0.00  0.00    +0.000 A 
BRANCH   5   8
ATOM      8  C   UNL     1       2.488  10.587  -6.367  0.00  0.00    +0.000 C 
BRANCH   8   9
ATOM      9  N   UNL     1       2.372   9.868  -5.097  0.00  0.00    +0.000 NA
ATOM     10  H   UNL     1       1.390   9.635  -4.942  0.00  0.00    +0.000 HD
BRANCH   9  11
ATOM     11  C   UNL     1       3.173   8.636  -5.087  0.00  0.00    +0.000 C 
BRANCH  11  12
ATOM     12  C   UNL     1       2.959   7.860  -3.758  0.00  0.00    +0.000 C 
ATOM     13  C   UNL     1       3.812   6.608  -3.642  0.00  0.00    +0.000 C 
ATOM     14  C   UNL     1       5.124   7.112  -3.073  0.00  0.00    +0.000 C 
ATOM     15  C   UNL     1       4.750   8.358  -2.283  0.00  0.00    +0.000 C 
ATOM     16  N   UNL     1       3.344   8.647  -2.575  0.00  0.00    +0.000 NA
ATOM     17  H   UNL     1       3.218   9.639  -2.794  0.00  0.00    +0.000 HD
ENDBRANCH  11  12
ENDBRANCH   9  11
ENDBRANCH   8   9
ENDBRANCH   5   8
ENDBRANCH   1   2
BRANCH   1  20
ATOM     18  O   UNL     1       0.534  17.435  -5.424  0.00  0.00    +0.000 OA
ATOM     19  C   UNL     1       0.308  17.327  -6.626  0.00  0.00    +0.000 C 
ATOM     20  N   UNL     1      -0.489  16.340  -7.145  0.00  0.00    +0.000 N 
ATOM     21  H   UNL     1      -0.493  16.188  -8.146  0.00  0.00    +0.000 HD
BRANCH  19  22
ATOM     22  C   UNL     1       0.834  18.299  -7.595  0.00  0.00    +0.000 A 
ATOM     23  C   UNL     1       1.208  19.567  -7.171  0.00  0.00    +0.000 A 
ATOM     24  S   UNL     1       1.755  20.576  -8.434  0.00  0.00    +0.000 S 
ATOM     25  C   UNL     1       1.560  19.336  -9.584  0.00  0.00    +0.000 A 
ATOM     26  N   UNL     1       1.879  19.537 -10.891  0.00  0.00    +0.000 NA
ATOM     27  C   UNL     1       1.729  18.497 -11.642  0.00  0.00    +0.000 A 
ATOM     28  N   UNL     1       1.280  17.277 -11.207  0.00  0.00    +0.000 N 
ATOM     29  C   UNL     1       0.873  17.052  -9.915  0.00  0.00    +0.000 A 
ATOM     30  O   UNL     1       0.351  15.989  -9.596  0.00  0.00    +0.000 OA
ATOM     31  C   UNL     1       1.064  18.176  -9.016  0.00  0.00    +0.000 A 
ATOM     32  H   UNL     1       1.159  16.510 -11.851  0.00  0.00    +0.000 HD
ENDBRANCH  19  22
ENDBRANCH   1  20
TORSDOF 7
