REMARK  Name = 
REMARK  10 active torsions:
REMARK  status: ('A' for Active; 'I' for Inactive)
REMARK    1  A    between atoms: C_1  and  O_2
REMARK    2  A    between atoms: O_2  and  C_3
REMARK    3  A    between atoms: C_10  and  C_11
REMARK    4  A    between atoms: N_13  and  C_14
REMARK    5  A    between atoms: C_14  and  C_15
REMARK    6  A    between atoms: C_18  and  N_19
REMARK    7  A    between atoms: N_19  and  C_20
REMARK    8  A    between atoms: C_20  and  C_21
REMARK    9  A    between atoms: C_21  and  N_22
REMARK   10  A    between atoms: N_25  and  C_26
REMARK                            x       y       z     vdW  Elec       q    Type
REMARK                         _______ _______ _______ _____ _____    ______ ____
ROOT
ATOM      1  C   UNL     1       1.510   2.993  -1.062  0.00  0.00    +0.000 A 
ATOM      2  C   UNL     1       1.294   1.737  -1.638  0.00  0.00    +0.000 A 
ATOM      3  C   UNL     1       0.089   1.450  -2.291  0.00  0.00    +0.000 A 
ATOM      4  C   UNL     1      -0.934   2.399  -2.371  0.00  0.00    +0.000 A 
ATOM      5  C   UNL     1      -0.649   3.697  -1.935  0.00  0.00    +0.000 A 
ATOM      6  C   UNL     1       0.552   3.991  -1.273  0.00  0.00    +0.000 A 
ENDROOT
BRANCH   4   7
ATOM      7  N   UNL     1      -2.194   2.140  -2.930  0.00  0.00    +0.000 N 
ATOM      8  H   UNL     1      -2.231   2.388  -3.920  0.00  0.00    +0.000 HD
BRANCH   7   9
ATOM      9  C   UNL     1      -2.753   0.801  -2.705  0.00  0.00    +0.000 C 
BRANCH   9  10
ATOM     10  C   UNL     1      -4.133   0.646  -3.384  0.00  0.00    +0.000 C 
BRANCH  10  11
ATOM     11  N   UNL     1      -4.137   0.855  -4.847  0.00  0.00    +0.000 NA
ATOM     12  C   UNL     1      -3.265  -0.093  -5.566  0.00  0.00    +0.000 C 
ATOM     13  C   UNL     1      -3.316   0.124  -7.096  0.00  0.00    +0.000 C 
ATOM     14  N   UNL     1      -4.665   0.065  -7.689  0.00  0.00    +0.000 NA
ATOM     15  C   UNL     1      -5.159  -1.306  -7.769  0.00  0.00    +0.000 C 
ATOM     16  C   UNL     1      -5.573   0.934  -6.913  0.00  0.00    +0.000 C 
ATOM     17  C   UNL     1      -5.514   0.742  -5.377  0.00  0.00    +0.000 C 
ENDBRANCH  10  11
ENDBRANCH   9  10
ENDBRANCH   7   9
ENDBRANCH   4   7
BRANCH   1  18
ATOM     18  C   UNL     1       2.732   3.247  -0.217  0.00  0.00    +0.000 C 
BRANCH  18  21
ATOM     19  C   UNL     1       5.048   4.029  -0.413  0.00  0.00    +0.000 C 
ATOM     20  O   UNL     1       5.247   3.832   0.783  0.00  0.00    +0.000 OA
ATOM     21  N   UNL     1       3.834   3.756  -0.986  0.00  0.00    +0.000 N 
ATOM     22  H   UNL     1       3.683   3.917  -1.972  0.00  0.00    +0.000 HD
BRANCH  19  30
ATOM     23  C   UNL     1       5.227   4.671  -3.785  0.00  0.00    +0.000 A 
ATOM     24  N   UNL     1       5.526   5.082  -5.032  0.00  0.00    +0.000 NA
ATOM     25  C   UNL     1       6.720   5.657  -5.230  0.00  0.00    +0.000 A 
ATOM     26  N   UNL     1       7.673   5.858  -4.325  0.00  0.00    +0.000 NA
ATOM     27  C   UNL     1       7.326   5.444  -3.094  0.00  0.00    +0.000 A 
ATOM     28  S   UNL     1       8.426   5.605  -1.812  0.00  0.00    +0.000 S 
ATOM     29  C   UNL     1       7.318   4.934  -0.711  0.00  0.00    +0.000 A 
ATOM     30  C   UNL     1       6.099   4.586  -1.282  0.00  0.00    +0.000 A 
ATOM     31  C   UNL     1       6.120   4.862  -2.716  0.00  0.00    +0.000 A 
BRANCH  23  33
ATOM     32  C   UNL     1       3.458   3.471  -4.742  0.00  0.00    +0.000 C 
ATOM     33  O   UNL     1       4.003   4.076  -3.573  0.00  0.00    +0.000 OA
ENDBRANCH  23  33
ENDBRANCH  19  30
ENDBRANCH  18  21
ENDBRANCH   1  18
TORSDOF 8
