REMARK  Name = 
REMARK  6 active torsions:
REMARK  status: ('A' for Active; 'I' for Inactive)
REMARK    1  A    between atoms: C_1  and  N_2
REMARK    2  A    between atoms: C_5  and  C_6
REMARK    3  A    between atoms: C_6  and  N_7
REMARK    4  A    between atoms: N_7  and  C_8
REMARK    5  A    between atoms: C_11  and  C_12
REMARK    6  A    between atoms: C_16  and  N_17
REMARK                            x       y       z     vdW  Elec       q    Type
REMARK                         _______ _______ _______ _____ _____    ______ ____
ROOT
ATOM      1  C   UNL     1       2.042  -2.405  -2.882  0.00  0.00    +0.000 A 
ATOM      2  N   UNL     1       0.841  -2.286  -3.492  0.00  0.00    +0.000 NA
ATOM      3  C   UNL     1       0.545  -3.227  -4.440  0.00  0.00    +0.000 A 
ATOM      4  C   UNL     1       1.444  -4.218  -4.820  0.00  0.00    +0.000 A 
ATOM      5  N   UNL     1       2.639  -4.382  -4.209  0.00  0.00    +0.000 NA
ATOM      6  C   UNL     1       2.902  -3.510  -3.214  0.00  0.00    +0.000 A 
ENDROOT
BRANCH   4   7
ATOM      7  C   UNL     1       1.138  -5.145  -5.960  0.00  0.00    +0.000 C 
ATOM      8  N   UNL     1       2.164  -5.965  -6.344  0.00  0.00    +0.000 N 
ATOM      9  O   UNL     1       0.057  -5.144  -6.524  0.00  0.00    +0.000 OA
ATOM     10  H   UNL     1       3.057  -5.927  -5.855  0.00  0.00    +0.000 HD
ATOM     11  H   UNL     1       2.047  -6.586  -7.128  0.00  0.00    +0.000 HD
ENDBRANCH   4   7
BRANCH   6  12
ATOM     12  N   UNL     1       4.029  -3.831  -2.463  0.00  0.00    +0.000 N 
ATOM     13  H   UNL     1       4.524  -4.585  -2.923  0.00  0.00    +0.000 HD
ATOM     14  H   UNL     1       4.611  -3.054  -2.194  0.00  0.00    +0.000 HD
ENDBRANCH   6  12
BRANCH   1  15
ATOM     15  N   UNL     1       2.432  -1.520  -1.858  0.00  0.00    +0.000 N 
ATOM     16  H   UNL     1       3.440  -1.417  -1.872  0.00  0.00    +0.000 HD
BRANCH  15  17
ATOM     17  C   UNL     1       1.779  -0.215  -1.716  0.00  0.00    +0.000 C 
BRANCH  17  22
ATOM     18  C   UNL     1      -2.497   0.792   0.169  0.00  0.00    +0.000 C 
ATOM     19  N   UNL     1      -1.081   0.712   0.547  0.00  0.00    +0.000 NA
ATOM     20  C   UNL     1      -0.595  -0.659   0.330  0.00  0.00    +0.000 C 
ATOM     21  C   UNL     1       0.899  -0.800   0.619  0.00  0.00    +0.000 C 
ATOM     22  C   UNL     1       1.740   0.173  -0.214  0.00  0.00    +0.000 C 
ATOM     23  C   UNL     1       1.202   1.593   0.044  0.00  0.00    +0.000 C 
ATOM     24  C   UNL     1      -0.306   1.716  -0.197  0.00  0.00    +0.000 C 
ENDBRANCH  17  22
ENDBRANCH  15  17
ENDBRANCH   1  15
TORSDOF 5
