REMARK  Name = 
REMARK  13 active torsions:
REMARK  status: ('A' for Active; 'I' for Inactive)
REMARK    1  A    between atoms: C_1  and  N_2
REMARK    2  A    between atoms: N_2  and  C_3
REMARK    3  A    between atoms: N_2  and  C_4
REMARK    4  A    between atoms: C_4  and  C_5
REMARK    5  A    between atoms: C_5  and  N_6
REMARK    6  A    between atoms: C_7  and  C_9
REMARK    7  A    between atoms: C_12  and  O_13
REMARK    8  A    between atoms: O_13  and  C_14
REMARK    9  A    between atoms: C_14  and  C_15
REMARK   10  A    between atoms: C_15  and  C_16
REMARK   11  A    between atoms: C_15  and  C_17
REMARK   12  A    between atoms: C_15  and  C_18
REMARK   13  A    between atoms: C_22  and  C_23
REMARK                            x       y       z     vdW  Elec       q    Type
REMARK                         _______ _______ _______ _____ _____    ______ ____
ROOT
ATOM      1  O   UNL     1       8.468   5.726   5.866  0.00  0.00    +0.000 OA
ENDROOT
BRANCH   1   5
ATOM      2  C   UNL     1       6.985   3.150   3.021  0.00  0.00    +0.000 A 
ATOM      3  C   UNL     1       6.310   3.206   4.236  0.00  0.00    +0.000 A 
ATOM      4  C   UNL     1       6.775   4.066   5.229  0.00  0.00    +0.000 A 
ATOM      5  C   UNL     1       7.900   4.847   4.986  0.00  0.00    +0.000 A 
ATOM      6  C   UNL     1       8.506   4.726   3.734  0.00  0.00    +0.000 A 
ATOM      7  N   UNL     1       8.085   3.899   2.740  0.00  0.00    +0.000 NA
BRANCH   2   9
ATOM      8  N   UNL     1       7.172   2.199   0.774  0.00  0.00    +0.000 N 
ATOM      9  C   UNL     1       6.468   2.230   1.959  0.00  0.00    +0.000 C 
ATOM     10  O   UNL     1       5.467   1.544   2.157  0.00  0.00    +0.000 OA
ATOM     11  H   UNL     1       8.064   2.686   0.729  0.00  0.00    +0.000 HD
BRANCH   8  12
ATOM     12  C   UNL     1       6.776   1.302  -0.291  0.00  0.00    +0.000 C 
BRANCH  12  13
ATOM     13  C   UNL     1       7.681   1.370  -1.532  0.00  0.00    +0.000 C 
BRANCH  13  15
ATOM     14  C   UNL     1       9.288  -0.302  -0.787  0.00  0.00    +0.000 C 
ATOM     15  N   UNL     1       9.106   1.066  -1.281  0.00  0.00    +0.000 NA
ATOM     16  C   UNL     1       9.876   1.241  -2.517  0.00  0.00    +0.000 C 
ENDBRANCH  13  15
ENDBRANCH  12  13
ENDBRANCH   8  12
ENDBRANCH   2   9
ENDBRANCH   1   5
BRANCH   1  17
ATOM     17  C   UNL     1       7.858   5.832   7.163  0.00  0.00    +0.000 C 
BRANCH  17  18
ATOM     18  C   UNL     1       8.627   6.849   8.061  0.00  0.00    +0.000 C 
ATOM     19  C   UNL     1      10.086   6.373   8.251  0.00  0.00    +0.000 C 
ATOM     20  C   UNL     1       8.688   8.203   7.313  0.00  0.00    +0.000 C 
BRANCH  18  21
ATOM     21  C   UNL     1       7.941   6.952   9.440  0.00  0.00    +0.000 A 
ATOM     22  C   UNL     1       7.410   8.150   9.940  0.00  0.00    +0.000 A 
ATOM     23  C   UNL     1       6.811   8.173  11.198  0.00  0.00    +0.000 A 
ATOM     24  N   UNL     1       6.696   7.097  12.000  0.00  0.00    +0.000 NA
ATOM     25  C   UNL     1       7.214   5.937  11.514  0.00  0.00    +0.000 A 
ATOM     26  C   UNL     1       7.830   5.822  10.269  0.00  0.00    +0.000 A 
BRANCH  25  27
ATOM     27  C   UNL     1       7.094   4.733  12.395  0.00  0.00    +0.000 C 
ATOM     28  N   UNL     1       6.476   4.942  13.599  0.00  0.00    +0.000 N 
ATOM     29  O   UNL     1       7.515   3.631  12.068  0.00  0.00    +0.000 OA
ATOM     30  H   UNL     1       6.140   5.868  13.835  0.00  0.00    +0.000 HD
ATOM     31  H   UNL     1       6.363   4.173  14.245  0.00  0.00    +0.000 HD
ENDBRANCH  25  27
ENDBRANCH  18  21
ENDBRANCH  17  18
ENDBRANCH   1  17
TORSDOF 9
