REMARK  Name = 
REMARK  5 active torsions:
REMARK  status: ('A' for Active; 'I' for Inactive)
REMARK    1  A    between atoms: N_1  and  C_2
REMARK    2  A    between atoms: C_2  and  C_3
REMARK    3  A    between atoms: C_3  and  C_4
REMARK    4  A    between atoms: C_7  and  C_8
REMARK    5  A    between atoms: C_8  and  N_9
REMARK                            x       y       z     vdW  Elec       q    Type
REMARK                         _______ _______ _______ _____ _____    ______ ____
ROOT
ATOM      1  C   UNL     1       4.484  -0.583  -1.307  0.00  0.00    +0.000 C 
ATOM      2  C   UNL     1       4.968  -0.254   0.114  0.00  0.00    +0.000 C 
ATOM      3  C   UNL     1       6.489  -0.221   0.207  0.00  0.00    +0.000 C 
ATOM      4  C   UNL     1       7.109   0.768  -0.794  0.00  0.00    +0.000 C 
ATOM      5  C   UNL     1       6.618   0.463  -2.218  0.00  0.00    +0.000 C 
ATOM      6  C   UNL     1       5.090   0.412  -2.309  0.00  0.00    +0.000 C 
ENDROOT
BRANCH   1   7
ATOM      7  C   UNL     1       2.940  -0.599  -1.326  0.00  0.00    +0.000 C 
BRANCH   7   8
ATOM      8  C   UNL     1       2.295  -0.938  -2.673  0.00  0.00    +0.000 C 
BRANCH   8   9
ATOM      9  N   UNL     1       2.718  -2.240  -3.173  0.00  0.00    +0.000 NA
ATOM     10  H   UNL     1       2.223  -2.444  -4.040  0.00  0.00    +0.000 HD
ATOM     11  H   UNL     1       2.443  -2.965  -2.511  0.00  0.00    +0.000 HD
ENDBRANCH   8   9
ENDBRANCH   7   8
ENDBRANCH   1   7
BRANCH   4  12
ATOM     12  C   UNL     1       8.652   0.750  -0.733  0.00  0.00    +0.000 C 
BRANCH  12  13
ATOM     13  N   UNL     1       9.177   1.082   0.587  0.00  0.00    +0.000 N 
ATOM     14  C   UNL     1       9.010   2.307   1.189  0.00  0.00    +0.000 A 
ATOM     15  C   UNL     1       9.417   2.194   2.500  0.00  0.00    +0.000 A 
ATOM     16  C   UNL     1       9.893   0.880   2.683  0.00  0.00    +0.000 A 
ATOM     17  N   UNL     1      10.372   0.304   3.814  0.00  0.00    +0.000 NA
ATOM     18  C   UNL     1      10.777  -0.975   3.671  0.00  0.00    +0.000 A 
ATOM     19  C   UNL     1      10.766  -1.696   2.486  0.00  0.00    +0.000 A 
ATOM     20  C   UNL     1      10.268  -1.100   1.329  0.00  0.00    +0.000 A 
ATOM     21  C   UNL     1       9.802   0.213   1.459  0.00  0.00    +0.000 A 
ENDBRANCH  12  13
ENDBRANCH   4  12
TORSDOF 5
