REMARK  Name = 
REMARK  10 active torsions:
REMARK  status: ('A' for Active; 'I' for Inactive)
REMARK    1  A    between atoms: C_1  and  C_2
REMARK    2  A    between atoms: C_5  and  O_6
REMARK    3  A    between atoms: O_6  and  C_7
REMARK    4  A    between atoms: C_12  and  C_13
REMARK    5  A    between atoms: C_13  and  C_14
REMARK    6  A    between atoms: C_13  and  C_15
REMARK    7  A    between atoms: C_13  and  C_16
REMARK    8  A    between atoms: C_16  and  N_17
REMARK    9  A    between atoms: N_17  and  C_18
REMARK   10  A    between atoms: C_21  and  C_22
REMARK                            x       y       z     vdW  Elec       q    Type
REMARK                         _______ _______ _______ _____ _____    ______ ____
ROOT
ATOM      1  C   UNL     1       0.470   5.969   2.973  0.00  0.00    +0.000 C 
ATOM      2  C   UNL     1       0.496   7.175   2.005  0.00  0.00    +0.000 C 
ATOM      3  C   UNL     1      -0.826   6.070   3.810  0.00  0.00    +0.000 C 
ENDROOT
BRANCH   1   9
ATOM      4  C   UNL     1       0.669   3.216   0.227  0.00  0.00    +0.000 A 
ATOM      5  C   UNL     1       0.647   2.059   0.994  0.00  0.00    +0.000 A 
ATOM      6  C   UNL     1       0.546   2.170   2.371  0.00  0.00    +0.000 A 
ATOM      7  F   UNL     1       0.534   1.060   3.120  0.00  0.00    +0.000 F 
ATOM      8  C   UNL     1       0.468   3.412   2.993  0.00  0.00    +0.000 A 
ATOM      9  C   UNL     1       0.491   4.604   2.243  0.00  0.00    +0.000 A 
ATOM     10  C   UNL     1       0.570   4.474   0.842  0.00  0.00    +0.000 A 
BRANCH   4  11
ATOM     11  O   UNL     1       0.750   3.212  -1.145  0.00  0.00    +0.000 OA
BRANCH  11  16
ATOM     12  C   UNL     1       3.810   3.374  -0.926  0.00  0.00    +0.000 C 
ATOM     13  C   UNL     1       3.111   2.407  -1.860  0.00  0.00    +0.000 C 
ATOM     14  N   UNL     1       2.907   2.997  -3.207  0.00  0.00    +0.000 NA
ATOM     15  C   UNL     1       1.641   2.246  -3.321  0.00  0.00    +0.000 C 
ATOM     16  C   UNL     1       1.569   2.188  -1.775  0.00  0.00    +0.000 C 
ATOM     17  H   UNL     1       3.617   2.765  -3.899  0.00  0.00    +0.000 HD
ENDBRANCH  11  16
ENDBRANCH   4  11
ENDBRANCH   1   9
BRANCH   1  18
ATOM     18  C   UNL     1       1.739   6.038   3.886  0.00  0.00    +0.000 C 
BRANCH  18  19
ATOM     19  N   UNL     1       1.832   7.281   4.667  0.00  0.00    +0.000 N 
ATOM     20  H   UNL     1       0.965   7.508   5.150  0.00  0.00    +0.000 HD
BRANCH  19  21
ATOM     21  C   UNL     1       2.934   7.423   5.522  0.00  0.00    +0.000 A 
ATOM     22  C   UNL     1       4.198   6.898   5.293  0.00  0.00    +0.000 A 
ATOM     23  N   UNL     1       5.276   7.089   6.088  0.00  0.00    +0.000 NA
ATOM     24  C   UNL     1       5.067   7.889   7.159  0.00  0.00    +0.000 A 
ATOM     25  N   UNL     1       3.911   8.497   7.475  0.00  0.00    +0.000 NA
ATOM     26  C   UNL     1       2.883   8.259   6.630  0.00  0.00    +0.000 A 
BRANCH  24  27
ATOM     27  C   UNL     1       6.262   8.120   8.055  0.00  0.00    +0.000 C 
ATOM     28  N   UNL     1       7.425   7.499   7.656  0.00  0.00    +0.000 N 
ATOM     29  O   UNL     1       6.240   8.803   9.072  0.00  0.00    +0.000 OA
ATOM     30  H   UNL     1       7.440   6.953   6.804  0.00  0.00    +0.000 HD
ATOM     31  H   UNL     1       8.265   7.633   8.199  0.00  0.00    +0.000 HD
ENDBRANCH  24  27
ENDBRANCH  19  21
ENDBRANCH  18  19
ENDBRANCH   1  18
TORSDOF 7
