REMARK  Name = 
REMARK  6 active torsions:
REMARK  status: ('A' for Active; 'I' for Inactive)
REMARK    1  A    between atoms: C_1  and  C_2
REMARK    2  A    between atoms: C_2  and  C_3
REMARK    3  A    between atoms: C_5  and  C_6
REMARK    4  A    between atoms: N_12  and  C_13
REMARK    5  A    between atoms: C_13  and  C_14
REMARK    6  A    between atoms: C_14  and  C_17
REMARK                            x       y       z     vdW  Elec       q    Type
REMARK                         _______ _______ _______ _____ _____    ______ ____
ROOT
ATOM      1  C   UNL     1       2.930   0.278   1.378  0.00  0.00    +0.000 A 
ATOM      2  C   UNL     1       2.682   1.532   1.907  0.00  0.00    +0.000 A 
ATOM      3  C   UNL     1       3.068   1.759   3.216  0.00  0.00    +0.000 A 
ATOM      4  N   UNL     1       3.688   0.801   3.947  0.00  0.00    +0.000 NA
ATOM      5  C   UNL     1       3.900  -0.383   3.371  0.00  0.00    +0.000 A 
ATOM      6  N   UNL     1       4.504  -1.409   4.080  0.00  0.00    +0.000 N 
ATOM      7  N   UNL     1       3.547  -0.673   2.113  0.00  0.00    +0.000 NA
ATOM      8  H   UNL     1       4.895  -2.043   3.389  0.00  0.00    +0.000 HD
ENDROOT
BRANCH   1  10
ATOM      9  C   UNL     1       0.881  -0.035   0.007  0.00  0.00    +0.000 C 
ATOM     10  C   UNL     1       2.428  -0.099  -0.028  0.00  0.00    +0.000 C 
ATOM     11  C   UNL     1       2.996   0.878  -1.086  0.00  0.00    +0.000 C 
ATOM     12  C   UNL     1       2.686   0.433  -2.512  0.00  0.00    +0.000 C 
ATOM     13  O   UNL     1       3.161  -0.887  -2.750  0.00  0.00    +0.000 OA
ATOM     14  C   UNL     1       2.562  -1.850  -1.885  0.00  0.00    +0.000 C 
ATOM     15  C   UNL     1       2.872  -1.531  -0.427  0.00  0.00    +0.000 C 
ENDBRANCH   1  10
BRANCH   3  16
ATOM     16  C   UNL     1       2.762   3.093   3.875  0.00  0.00    +0.000 C 
ATOM     17  F   UNL     1       2.088   3.953   3.053  0.00  0.00    +0.000 F 
ATOM     18  F   UNL     1       1.984   2.974   4.988  0.00  0.00    +0.000 F 
ATOM     19  F   UNL     1       3.881   3.766   4.262  0.00  0.00    +0.000 F 
ENDBRANCH   3  16
BRANCH   6  20
ATOM     20  C   UNL     1       5.416  -0.975   5.148  0.00  0.00    +0.000 C 
BRANCH  20  21
ATOM     21  C   UNL     1       6.063  -2.152   5.907  0.00  0.00    +0.000 C 
ATOM     22  F   UNL     1       6.740  -2.913   4.984  0.00  0.00    +0.000 F 
ATOM     23  F   UNL     1       7.046  -1.645   6.715  0.00  0.00    +0.000 F 
BRANCH  21  24
ATOM     24  C   UNL     1       5.047  -2.957   6.693  0.00  0.00    +0.000 A 
ATOM     25  C   UNL     1       4.898  -4.317   6.434  0.00  0.00    +0.000 A 
ATOM     26  N   UNL     1       4.016  -5.110   7.094  0.00  0.00    +0.000 NA
ATOM     27  C   UNL     1       3.279  -4.486   8.036  0.00  0.00    +0.000 A 
ATOM     28 CL   UNL     1       2.160  -5.476   8.869  0.00  0.00    +0.000 Cl
ATOM     29  C   UNL     1       3.415  -3.138   8.317  0.00  0.00    +0.000 A 
ATOM     30  N   UNL     1       4.303  -2.345   7.662  0.00  0.00    +0.000 NA
ENDBRANCH  21  24
ENDBRANCH  20  21
ENDBRANCH   6  20
TORSDOF 5
