REMARK  Name = 
REMARK  7 active torsions:
REMARK  status: ('A' for Active; 'I' for Inactive)
REMARK    1  A    between atoms: C_1  and  C_2
REMARK    2  A    between atoms: C_9  and  C_10
REMARK    3  A    between atoms: C_10  and  C_11
REMARK    4  A    between atoms: C_10  and  C_12
REMARK    5  A    between atoms: C_12  and  N_13
REMARK    6  A    between atoms: C_18  and  C_19
REMARK    7  A    between atoms: C_25  and  C_26
REMARK                            x       y       z     vdW  Elec       q    Type
REMARK                         _______ _______ _______ _____ _____    ______ ____
ROOT
ATOM      1  C   UNL     1       7.068  -4.694   1.572  0.00  0.00    +0.000 C 
ATOM      2  C   UNL     1       7.952  -4.102   0.459  0.00  0.00    +0.000 C 
ENDROOT
BRANCH   1  11
ATOM      3  C   UNL     1       3.314   2.691   0.786  0.00  0.00    +0.000 C 
ATOM      4  C   UNL     1       3.387   1.195   0.526  0.00  0.00    +0.000 C 
ATOM      5  C   UNL     1       3.769   0.397   1.778  0.00  0.00    +0.000 C 
ATOM      6  N   UNL     1       4.284  -0.847   1.238  0.00  0.00    +0.000 N 
ATOM      7  C   UNL     1       5.000  -1.687   2.057  0.00  0.00    +0.000 A 
ATOM      8  N   UNL     1       5.058  -1.419   3.368  0.00  0.00    +0.000 NA
ATOM      9  C   UNL     1       5.800  -2.237   4.133  0.00  0.00    +0.000 A 
ATOM     10  C   UNL     1       6.485  -3.320   3.646  0.00  0.00    +0.000 A 
ATOM     11  C   UNL     1       6.372  -3.553   2.293  0.00  0.00    +0.000 A 
ATOM     12  N   UNL     1       5.621  -2.744   1.506  0.00  0.00    +0.000 NA
ATOM     13  C   UNL     1       4.626  -0.749  -0.173  0.00  0.00    +0.000 C 
ATOM     14  C   UNL     1       4.426   0.741  -0.518  0.00  0.00    +0.000 C 
ATOM     15  C   UNL     1       5.751   1.504  -0.478  0.00  0.00    +0.000 C 
ENDBRANCH   1  11
BRANCH   1  16
ATOM     16  C   UNL     1       7.935  -5.636   2.435  0.00  0.00    +0.000 C 
BRANCH  16  17
ATOM     17  N   UNL     1       7.139  -6.352   3.441  0.00  0.00    +0.000 N 
ATOM     18  C   UNL     1       7.876  -7.234   4.250  0.00  0.00    +0.000 A 
ATOM     19  C   UNL     1       7.200  -7.924   5.258  0.00  0.00    +0.000 A 
ATOM     20  C   UNL     1       7.895  -8.814   6.076  0.00  0.00    +0.000 A 
ATOM     21  C   UNL     1       9.255  -8.993   5.876  0.00  0.00    +0.000 A 
ATOM     22  C   UNL     1       9.859  -8.254   4.870  0.00  0.00    +0.000 A 
ATOM     23  N   UNL     1       9.201  -7.375   4.064  0.00  0.00    +0.000 NA
ATOM     24  H   UNL     1       6.349  -6.851   3.037  0.00  0.00    +0.000 HD
BRANCH  22  25
ATOM     25  C   UNL     1      11.326  -8.415   4.613  0.00  0.00    +0.000 C 
ATOM     26  N   UNL     1      11.829  -7.648   3.595  0.00  0.00    +0.000 N 
ATOM     27  O   UNL     1      12.031  -9.178   5.254  0.00  0.00    +0.000 OA
ATOM     28  H   UNL     1      11.211  -7.029   3.083  0.00  0.00    +0.000 HD
ATOM     29  H   UNL     1      12.808  -7.715   3.359  0.00  0.00    +0.000 HD
ENDBRANCH  22  25
ENDBRANCH  16  17
ENDBRANCH   1  16
TORSDOF 4
