REMARK  Name = 
REMARK  6 active torsions:
REMARK  status: ('A' for Active; 'I' for Inactive)
REMARK    1  A    between atoms: N_1  and  C_2
REMARK    2  A    between atoms: C_2  and  C_3
REMARK    3  A    between atoms: C_6  and  C_7
REMARK    4  A    between atoms: C_7  and  N_8
REMARK    5  A    between atoms: CA_13  and  C_14
REMARK    6  A    between atoms: C_14  and  O_15
REMARK                            x       y       z     vdW  Elec       q    Type
REMARK                         _______ _______ _______ _____ _____    ______ ____
ROOT
ATOM      1  C   UNL     1       3.886  -5.120   1.913  0.00  0.00    +0.000 C 
ENDROOT
BRANCH   1   2
ATOM      2  N   UNL     1       3.033  -6.141   1.332  0.00  0.00    +0.000 N 
ATOM      3  C   UNL     1       3.503  -6.744   0.184  0.00  0.00    +0.000 A 
ATOM      4  N   UNL     1       2.584  -7.108  -0.717  0.00  0.00    +0.000 NA
ATOM      5  C   UNL     1       3.033  -7.727  -1.825  0.00  0.00    +0.000 A 
ATOM      6  C   UNL     1       4.359  -7.985  -2.068  0.00  0.00    +0.000 A 
ATOM      7  CA  UNL     1       5.238  -7.562  -1.096  0.00  0.00    +0.000 A 
ATOM      8  N   UNL     1       4.820  -6.941   0.028  0.00  0.00    +0.000 NA
ATOM      9  H   UNL     1       2.075  -5.849   1.171  0.00  0.00    +0.000 HD
BRANCH   7  10
ATOM     10  C   UNL     1       6.718  -7.805  -1.235  0.00  0.00    +0.000 C 
BRANCH  10  11
ATOM     11  O   UNL     1       7.006  -9.199  -1.206  0.00  0.00    +0.000 OA
ATOM     12  H   UNL     1       6.665  -9.528  -0.355  0.00  0.00    +0.000 HD
ENDBRANCH  10  11
ENDBRANCH   7  10
ENDBRANCH   1   2
BRANCH   1  16
ATOM     13  C   UNL     1       3.110  -1.264   0.398  0.00  0.00    +0.000 A 
ATOM     14  C   UNL     1       2.459  -1.747   1.528  0.00  0.00    +0.000 A 
ATOM     15  N   UNL     1       2.672  -2.987   2.028  0.00  0.00    +0.000 NA
ATOM     16  C   UNL     1       3.584  -3.745   1.365  0.00  0.00    +0.000 A 
ATOM     17  C   UNL     1       4.215  -3.273   0.219  0.00  0.00    +0.000 A 
ATOM     18  N   UNL     1       4.001  -2.031  -0.283  0.00  0.00    +0.000 NA
BRANCH  13  19
ATOM     19  C   UNL     1       2.854   0.143  -0.085  0.00  0.00    +0.000 C 
BRANCH  19  20
ATOM     20  N   UNL     1       3.244   1.155   0.902  0.00  0.00    +0.000 NA
ATOM     21  H   UNL     1       3.128   2.078   0.487  0.00  0.00    +0.000 HD
ATOM     22  H   UNL     1       4.244   1.056   1.080  0.00  0.00    +0.000 HD
ENDBRANCH  19  20
ENDBRANCH  13  19
ENDBRANCH   1  16
TORSDOF 6
