REMARK  Name = 
REMARK  3 active torsions:
REMARK  status: ('A' for Active; 'I' for Inactive)
REMARK    1  A    between atoms: C_3  and  N_4
REMARK    2  A    between atoms: N_4  and  C_5
REMARK    3  A    between atoms: C_5  and  C_6
REMARK                            x       y       z     vdW  Elec       q    Type
REMARK                         _______ _______ _______ _____ _____    ______ ____
ROOT
ATOM      1  C   UNL     1       1.468   0.063   0.082  0.00  0.00    +0.000 A 
ATOM      2  C   UNL     1       0.716   1.224   0.022  0.00  0.00    +0.000 A 
ATOM      3  C   UNL     1      -0.668   1.133   0.020  0.00  0.00    +0.000 A 
ATOM      4  N   UNL     1      -1.300  -0.059   0.032  0.00  0.00    +0.000 NA
ATOM      5  C   UNL     1      -0.581  -1.206   0.035  0.00  0.00    +0.000 A 
ATOM      6  N   UNL     1      -1.234  -2.414  -0.131  0.00  0.00    +0.000 N 
ATOM      7  C   UNL     1      -0.810  -3.647   0.542  0.00  0.00    +0.000 C 
ATOM      8  C   UNL     1      -1.133  -4.837  -0.378  0.00  0.00    +0.000 C 
ATOM      9  O   UNL     1      -2.528  -4.872  -0.727  0.00  0.00    +0.000 OA
ATOM     10  C   UNL     1      -2.916  -3.648  -1.383  0.00  0.00    +0.000 C 
ATOM     11  C   UNL     1      -2.657  -2.416  -0.495  0.00  0.00    +0.000 C 
ATOM     12  C   UNL     1       0.810  -1.160   0.087  0.00  0.00    +0.000 A 
ENDROOT
BRANCH   3  13
ATOM     13  N   UNL     1      -1.394   2.323   0.016  0.00  0.00    +0.000 N 
ATOM     14  H   UNL     1      -1.212   2.906  -0.791  0.00  0.00    +0.000 HD
BRANCH  13  15
ATOM     15  C   UNL     1      -2.753   2.310   0.520  0.00  0.00    +0.000 C 
BRANCH  15  16
ATOM     16  C   UNL     1      -3.853   1.951  -0.439  0.00  0.00    +0.000 A 
ATOM     17  C   UNL     1      -5.177   2.028   0.008  0.00  0.00    +0.000 A 
ATOM     18  C   UNL     1      -6.200   1.687  -0.856  0.00  0.00    +0.000 A 
ATOM     19  N   UNL     1      -5.972   1.289  -2.120  0.00  0.00    +0.000 NA
ATOM     20  N   UNL     1      -4.690   1.207  -2.570  0.00  0.00    +0.000 NA
ATOM     21  C   UNL     1      -3.666   1.524  -1.741  0.00  0.00    +0.000 A 
ENDBRANCH  15  16
ENDBRANCH  13  15
ENDBRANCH   3  13
TORSDOF 3
