REMARK  Name = 
REMARK  7 active torsions:
REMARK  status: ('A' for Active; 'I' for Inactive)
REMARK    1  A    between atoms: C_1  and  N_2
REMARK    2  A    between atoms: N_2  and  C_3
REMARK    3  A    between atoms: C_3  and  C_4
REMARK    4  A    between atoms: C_7  and  C_8
REMARK    5  A    between atoms: C_8  and  N_9
REMARK    6  A    between atoms: C_10  and  C_12
REMARK    7  A    between atoms: C_24  and  C_26
REMARK                            x       y       z     vdW  Elec       q    Type
REMARK                         _______ _______ _______ _____ _____    ______ ____
ROOT
ATOM      1  C   UNL     1       2.104  -0.541  -2.418  0.00  0.00    +0.000 A 
ATOM      2  C   UNL     1       1.872  -1.864  -2.824  0.00  0.00    +0.000 A 
ATOM      3  C   UNL     1       0.962  -2.143  -3.843  0.00  0.00    +0.000 A 
ATOM      4  C   UNL     1       0.277  -1.103  -4.484  0.00  0.00    +0.000 A 
ATOM      5  C   UNL     1       0.507   0.218  -4.076  0.00  0.00    +0.000 A 
ATOM      6  C   UNL     1       1.419   0.499  -3.059  0.00  0.00    +0.000 A 
ENDROOT
BRANCH   1   7
ATOM      7  C   UNL     1       3.054  -0.255  -1.286  0.00  0.00    +0.000 C 
BRANCH   7   9
ATOM      8  C   UNL     1       4.977  -0.126  -2.954  0.00  0.00    +0.000 C 
ATOM      9  N   UNL     1       4.448   0.061  -1.611  0.00  0.00    +0.000 N 
ATOM     10  C   UNL     1       5.358   0.531  -0.640  0.00  0.00    +0.000 C 
ATOM     11  O   UNL     1       6.489   0.888  -0.974  0.00  0.00    +0.000 OA
BRANCH  10  12
ATOM     12  C   UNL     1       4.929   0.632   0.750  0.00  0.00    +0.000 A 
ATOM     13  C   UNL     1       5.353   1.482   1.757  0.00  0.00    +0.000 A 
ATOM     14  C   UNL     1       4.612   1.151   2.919  0.00  0.00    +0.000 A 
ATOM     15  C   UNL     1       3.811   0.092   2.572  0.00  0.00    +0.000 A 
ATOM     16  O   UNL     1       4.004  -0.237   1.271  0.00  0.00    +0.000 OA
ENDBRANCH  10  12
ENDBRANCH   7   9
ENDBRANCH   1   7
BRANCH   4  17
ATOM     17  C   UNL     1      -0.747  -1.399  -5.547  0.00  0.00    +0.000 C 
BRANCH  17  18
ATOM     18  N   UNL     1      -2.054  -1.560  -4.962  0.00  0.00    +0.000 N 
ATOM     19  C   UNL     1      -3.134  -1.919  -5.724  0.00  0.00    +0.000 C 
ATOM     20  O   UNL     1      -3.031  -2.157  -6.925  0.00  0.00    +0.000 OA
ATOM     21  H   UNL     1      -2.199  -1.163  -4.039  0.00  0.00    +0.000 HD
BRANCH  19  22
ATOM     22  C   UNL     1      -4.413  -2.070  -5.019  0.00  0.00    +0.000 A 
ATOM     23  C   UNL     1      -5.410  -2.860  -5.575  0.00  0.00    +0.000 A 
ATOM     24  S   UNL     1      -6.809  -2.979  -4.608  0.00  0.00    +0.000 S 
ATOM     25  C   UNL     1      -6.150  -1.939  -3.433  0.00  0.00    +0.000 A 
ATOM     26  N   UNL     1      -6.861  -1.601  -2.323  0.00  0.00    +0.000 NA
ATOM     27  C   UNL     1      -6.256  -0.779  -1.533  0.00  0.00    +0.000 A 
ATOM     28  N   UNL     1      -5.003  -0.268  -1.747  0.00  0.00    +0.000 N 
ATOM     29  C   UNL     1      -4.236  -0.603  -2.840  0.00  0.00    +0.000 A 
ATOM     30  O   UNL     1      -3.102  -0.156  -2.982  0.00  0.00    +0.000 OA
ATOM     31  C   UNL     1      -4.875  -1.517  -3.767  0.00  0.00    +0.000 A 
ATOM     32  H   UNL     1      -4.583   0.368  -1.086  0.00  0.00    +0.000 HD
ENDBRANCH  19  22
ENDBRANCH  17  18
ENDBRANCH   4  17
TORSDOF 6
