REMARK  Name = 
REMARK  5 active torsions:
REMARK  status: ('A' for Active; 'I' for Inactive)
REMARK    1  A    between atoms: C_2  and  C_4
REMARK    2  A    between atoms: C_8  and  O_9
REMARK    3  A    between atoms: O_9  and  C_10
REMARK    4  A    between atoms: C_10  and  C_11
REMARK    5  A    between atoms: C_15  and  C_16
REMARK                            x       y       z     vdW  Elec       q    Type
REMARK                         _______ _______ _______ _____ _____    ______ ____
ROOT
ATOM      1  C   UNL     1       4.060   5.579  -1.779  0.00  0.00    +0.000 C 
ENDROOT
BRANCH   1   2
ATOM      2  C   UNL     1       3.574   6.975  -1.479  0.00  0.00    +0.000 A 
ATOM      3  C   UNL     1       4.324   8.092  -1.840  0.00  0.00    +0.000 A 
ATOM      4  C   UNL     1       3.795   9.346  -1.590  0.00  0.00    +0.000 A 
ATOM      5  N   UNL     1       2.597   9.557  -0.998  0.00  0.00    +0.000 NA
ATOM      6  C   UNL     1       1.879   8.473  -0.617  0.00  0.00    +0.000 A 
ATOM      7  C   UNL     1       2.340   7.176  -0.850  0.00  0.00    +0.000 A 
BRANCH   6   8
ATOM      8  C   UNL     1       0.591   8.752   0.040  0.00  0.00    +0.000 A 
ATOM      9  C   UNL     1      -0.142   9.909  -0.243  0.00  0.00    +0.000 A 
ATOM     10  N   UNL     1      -1.347  10.225   0.303  0.00  0.00    +0.000 NA
ATOM     11  C   UNL     1      -1.853   9.346   1.197  0.00  0.00    +0.000 A 
ATOM     12  C   UNL     1      -1.210   8.179   1.566  0.00  0.00    +0.000 A 
ATOM     13 CL   UNL     1      -1.907   7.108   2.714  0.00  0.00    +0.000 Cl
ATOM     14  C   UNL     1       0.022   7.884   0.986  0.00  0.00    +0.000 A 
ENDBRANCH   6   8
ENDBRANCH   1   2
BRANCH   1  15
ATOM     15  O   UNL     1       4.849   5.094  -0.688  0.00  0.00    +0.000 OA
BRANCH  15  20
ATOM     16  C   UNL     1       5.389   1.927  -2.193  0.00  0.00    +0.000 A 
ATOM     17  N   UNL     1       6.160   1.252  -1.309  0.00  0.00    +0.000 NA
ATOM     18  C   UNL     1       6.482   1.932  -0.192  0.00  0.00    +0.000 A 
ATOM     19  C   UNL     1       6.068   3.222   0.063  0.00  0.00    +0.000 A 
ATOM     20  C   UNL     1       5.289   3.802  -0.911  0.00  0.00    +0.000 A 
ATOM     21  N   UNL     1       4.937   3.183  -2.045  0.00  0.00    +0.000 NA
BRANCH  16  23
ATOM     22  N   UNL     1       5.410  -0.097  -3.570  0.00  0.00    +0.000 N 
ATOM     23  C   UNL     1       4.976   1.201  -3.453  0.00  0.00    +0.000 C 
ATOM     24  O   UNL     1       4.290   1.711  -4.332  0.00  0.00    +0.000 OA
ATOM     25  H   UNL     1       5.132  -0.629  -4.382  0.00  0.00    +0.000 HD
ATOM     26  H   UNL     1       5.960  -0.526  -2.835  0.00  0.00    +0.000 HD
ENDBRANCH  16  23
ENDBRANCH  15  20
ENDBRANCH   1  15
TORSDOF 5
