REMARK  Name = 
REMARK  9 active torsions:
REMARK  status: ('A' for Active; 'I' for Inactive)
REMARK    1  A    between atoms: N_1  and  C_2
REMARK    2  A    between atoms: C_2  and  C_3
REMARK    3  A    between atoms: C_2  and  C_24
REMARK    4  A    between atoms: C_3  and  C_4
REMARK    5  A    between atoms: C_7  and  C_8
REMARK    6  A    between atoms: C_8  and  N_9
REMARK    7  A    between atoms: C_10  and  C_12
REMARK    8  A    between atoms: N_26  and  C_27
REMARK    9  A    between atoms: C_27  and  C_28
REMARK                            x       y       z     vdW  Elec       q    Type
REMARK                         _______ _______ _______ _____ _____    ______ ____
ROOT
ATOM      1  C   UNL     1       2.531  -0.349   2.507  0.00  0.00    +0.000 A 
ATOM      2  C   UNL     1       2.172  -1.257   3.511  0.00  0.00    +0.000 A 
ATOM      3  C   UNL     1       1.828  -0.815   4.795  0.00  0.00    +0.000 A 
ATOM      4  C   UNL     1       1.841   0.552   5.106  0.00  0.00    +0.000 A 
ATOM      5  C   UNL     1       2.214   1.457   4.101  0.00  0.00    +0.000 A 
ATOM      6  C   UNL     1       2.546   1.016   2.816  0.00  0.00    +0.000 A 
ENDROOT
BRANCH   1   7
ATOM      7  C   UNL     1       2.924  -0.857   1.137  0.00  0.00    +0.000 C 
BRANCH   7   8
ATOM      8  C   UNL     1       1.763  -1.031   0.131  0.00  0.00    +0.000 C 
BRANCH   8   9
ATOM      9  C   UNL     1       2.344  -1.510  -1.220  0.00  0.00    +0.000 C 
ATOM     10  O   UNL     1       3.497  -1.259  -1.565  0.00  0.00    +0.000 OA
ATOM     11  N   UNL     1       1.470  -2.194  -2.031  0.00  0.00    +0.000 N 
ATOM     12  H   UNL     1       0.633  -2.574  -1.599  0.00  0.00    +0.000 HD
BRANCH  11  13
ATOM     13  C   UNL     1       1.904  -2.688  -3.316  0.00  0.00    +0.000 C 
BRANCH  13  14
ATOM     14  C   UNL     1       0.755  -2.739  -4.246  0.00  0.00    +0.000 A 
ATOM     15  C   UNL     1       0.217  -1.825  -5.129  0.00  0.00    +0.000 A 
ATOM     16  C   UNL     1      -0.846  -2.485  -5.790  0.00  0.00    +0.000 A 
ATOM     17  C   UNL     1      -0.893  -3.754  -5.264  0.00  0.00    +0.000 A 
ATOM     18  O   UNL     1       0.070  -3.917  -4.319  0.00  0.00    +0.000 OA
ENDBRANCH  13  14
ENDBRANCH  11  13
ENDBRANCH   8   9
BRANCH   8  19
ATOM     19  N   UNL     1       0.726  -1.992   0.586  0.00  0.00    +0.000 NA
ATOM     20  H   UNL     1       0.485  -1.752   1.550  0.00  0.00    +0.000 HD
ATOM     21  H   UNL     1       1.148  -2.920   0.638  0.00  0.00    +0.000 HD
ENDBRANCH   8  19
ENDBRANCH   7   8
ENDBRANCH   1   7
BRANCH   4  22
ATOM     22  C   UNL     1       1.478   1.073   6.478  0.00  0.00    +0.000 C 
BRANCH  22  23
ATOM     23  N   UNL     1       2.625   1.178   7.345  0.00  0.00    +0.000 N 
ATOM     24  C   UNL     1       2.509   1.629   8.639  0.00  0.00    +0.000 C 
ATOM     25  O   UNL     1       1.437   1.939   9.136  0.00  0.00    +0.000 OA
ATOM     26  H   UNL     1       3.520   1.301   6.885  0.00  0.00    +0.000 HD
BRANCH  24  27
ATOM     27  C   UNL     1       3.762   1.663   9.409  0.00  0.00    +0.000 A 
ATOM     28  C   UNL     1       3.737   1.500  10.788  0.00  0.00    +0.000 A 
ATOM     29  S   UNL     1       5.282   1.567  11.511  0.00  0.00    +0.000 S 
ATOM     30  C   UNL     1       6.039   1.860  10.011  0.00  0.00    +0.000 A 
ATOM     31  N   UNL     1       7.379   2.056   9.925  0.00  0.00    +0.000 NA
ATOM     32  C   UNL     1       7.804   2.286   8.725  0.00  0.00    +0.000 A 
ATOM     33  N   UNL     1       7.016   2.317   7.605  0.00  0.00    +0.000 N 
ATOM     34  C   UNL     1       5.661   2.074   7.640  0.00  0.00    +0.000 A 
ATOM     35  O   UNL     1       4.998   2.029   6.608  0.00  0.00    +0.000 OA
ATOM     36  C   UNL     1       5.125   1.855   8.968  0.00  0.00    +0.000 A 
ATOM     37  H   UNL     1       7.414   2.470   6.693  0.00  0.00    +0.000 HD
ENDBRANCH  24  27
ENDBRANCH  22  23
ENDBRANCH   4  22
TORSDOF 9
