REMARK  Name = 
REMARK  8 active torsions:
REMARK  status: ('A' for Active; 'I' for Inactive)
REMARK    1  A    between atoms: C_1  and  C_2
REMARK    2  A    between atoms: C_2  and  C_3
REMARK    3  A    between atoms: C_2  and  C_4
REMARK    4  A    between atoms: C_2  and  C_5
REMARK    5  A    between atoms: C_8  and  C_9
REMARK    6  A    between atoms: C_9  and  N_10
REMARK    7  A    between atoms: C_12  and  C_13
REMARK    8  A    between atoms: C_13  and  O_14
REMARK                            x       y       z     vdW  Elec       q    Type
REMARK                         _______ _______ _______ _____ _____    ______ ____
ROOT
ATOM      1  N   UNL     1       4.763   6.126   0.679  0.00  0.00    +0.000 N 
ATOM      2  N   UNL     1       6.031   5.962   1.130  0.00  0.00    +0.000 NA
ATOM      3  C   UNL     1       6.003   6.486   2.366  0.00  0.00    +0.000 A 
ATOM      4  C   UNL     1       4.744   7.072   2.666  0.00  0.00    +0.000 A 
ATOM      5  C   UNL     1       4.179   7.752   3.752  0.00  0.00    +0.000 A 
ATOM      6  C   UNL     1       2.860   8.157   3.606  0.00  0.00    +0.000 A 
ATOM      7  N   UNL     1       2.106   7.939   2.505  0.00  0.00    +0.000 NA
ATOM      8  C   UNL     1       2.645   7.275   1.458  0.00  0.00    +0.000 A 
ATOM      9  C   UNL     1       3.961   6.840   1.539  0.00  0.00    +0.000 A 
ENDROOT
BRANCH   1  10
ATOM     10  C   UNL     1       4.382   5.567  -0.612  0.00  0.00    +0.000 C 
BRANCH  10  14
ATOM     11  C   UNL     1       3.000   1.456  -0.138  0.00  0.00    +0.000 A 
ATOM     12  C   UNL     1       2.106   2.537  -0.101  0.00  0.00    +0.000 A 
ATOM     13  C   UNL     1       2.545   3.856  -0.267  0.00  0.00    +0.000 A 
ATOM     14  C   UNL     1       3.897   4.142  -0.477  0.00  0.00    +0.000 A 
ATOM     15  C   UNL     1       4.799   3.074  -0.522  0.00  0.00    +0.000 A 
ATOM     16  C   UNL     1       4.356   1.754  -0.363  0.00  0.00    +0.000 A 
BRANCH  11  18
ATOM     17  C   UNL     1       1.035  -0.147   0.358  0.00  0.00    +0.000 C 
ATOM     18  C   UNL     1       2.549  -0.002   0.082  0.00  0.00    +0.000 C 
ATOM     19  C   UNL     1       3.291  -0.592   1.302  0.00  0.00    +0.000 C 
ATOM     20  C   UNL     1       2.869  -0.857  -1.163  0.00  0.00    +0.000 C 
ENDBRANCH  11  18
ENDBRANCH  10  14
ENDBRANCH   1  10
BRANCH   3  21
ATOM     21  C   UNL     1       7.208   6.393   3.245  0.00  0.00    +0.000 C 
BRANCH  21  22
ATOM     22  O   UNL     1       8.345   7.041   2.679  0.00  0.00    +0.000 OA
ATOM     23  H   UNL     1       8.389   6.704   1.764  0.00  0.00    +0.000 HD
ENDBRANCH  21  22
ENDBRANCH   3  21
TORSDOF 5
