REMARK  Name = 
REMARK  6 active torsions:
REMARK  status: ('A' for Active; 'I' for Inactive)
REMARK    1  A    between atoms: N_1  and  C_2
REMARK    2  A    between atoms: C_2  and  C_3
REMARK    3  A    between atoms: C_6  and  C_7
REMARK    4  A    between atoms: C_7  and  N_8
REMARK    5  A    between atoms: C_13  and  C_14
REMARK    6  A    between atoms: C_14  and  O_16
REMARK                            x       y       z     vdW  Elec       q    Type
REMARK                         _______ _______ _______ _____ _____    ______ ____
ROOT
ATOM      1  N   UNL     1       3.830  -6.228  -1.725  0.00  0.00    +0.000 N 
ATOM      2  C   UNL     1       4.496  -7.162  -0.970  0.00  0.00    +0.000 A 
ATOM      3  C   UNL     1       3.614  -8.184  -0.686  0.00  0.00    +0.000 A 
ATOM      4  C   UNL     1       2.375  -7.869  -1.303  0.00  0.00    +0.000 A 
ATOM      5  C   UNL     1       1.102  -8.461  -1.352  0.00  0.00    +0.000 A 
ATOM      6  C   UNL     1       0.107  -7.805  -2.085  0.00  0.00    +0.000 A 
ATOM      7  C   UNL     1       0.440  -6.651  -2.784  0.00  0.00    +0.000 A 
ATOM      8  N   UNL     1       1.647  -6.039  -2.765  0.00  0.00    +0.000 NA
ATOM      9  C   UNL     1       2.557  -6.674  -1.997  0.00  0.00    +0.000 A 
ENDROOT
BRANCH   6  10
ATOM     10  C   UNL     1      -1.250  -8.386  -2.127  0.00  0.00    +0.000 C 
ATOM     11  O   UNL     1      -1.451  -9.585  -2.042  0.00  0.00    +0.000 OA
BRANCH  10  12
ATOM     12  O   UNL     1      -2.246  -7.479  -2.217  0.00  0.00    +0.000 OA
ATOM     13  H   UNL     1      -2.004  -6.548  -2.055  0.00  0.00    +0.000 HD
ENDBRANCH  10  12
ENDBRANCH   6  10
BRANCH   1  14
ATOM     14  C   UNL     1       4.390  -4.961  -2.165  0.00  0.00    +0.000 C 
BRANCH  14  18
ATOM     15  C   UNL     1       3.009  -0.978  -1.042  0.00  0.00    +0.000 C 
ATOM     16  C   UNL     1       2.270  -2.165  -0.413  0.00  0.00    +0.000 C 
ATOM     17  C   UNL     1       2.608  -3.491  -1.087  0.00  0.00    +0.000 C 
ATOM     18  C   UNL     1       4.115  -3.777  -1.205  0.00  0.00    +0.000 C 
ATOM     19  C   UNL     1       4.915  -2.549  -1.682  0.00  0.00    +0.000 C 
ATOM     20  C   UNL     1       4.517  -1.254  -0.975  0.00  0.00    +0.000 C 
BRANCH  15  21
ATOM     21  C   UNL     1       2.563  -0.667  -2.485  0.00  0.00    +0.000 C 
BRANCH  21  22
ATOM     22  N   UNL     1       1.155  -0.286  -2.556  0.00  0.00    +0.000 NA
ATOM     23  H   UNL     1       0.893  -0.136  -3.530  0.00  0.00    +0.000 HD
ATOM     24  H   UNL     1       1.018   0.610  -2.087  0.00  0.00    +0.000 HD
ENDBRANCH  21  22
ENDBRANCH  15  21
ENDBRANCH  14  18
ENDBRANCH   1  14
TORSDOF 6
