REMARK  Name = 
REMARK  4 active torsions:
REMARK  status: ('A' for Active; 'I' for Inactive)
REMARK    1  A    between atoms: C_2  and  O_3
REMARK    2  A    between atoms: C_2  and  C_4
REMARK    3  A    between atoms: C_7  and  C_8
REMARK    4  A    between atoms: C_8  and  N_9
REMARK                            x       y       z     vdW  Elec       q    Type
REMARK                         _______ _______ _______ _____ _____    ______ ____
ROOT
ATOM      1  C   UNL     1       2.832   0.314   1.373  0.00  0.00    +0.000 A 
ATOM      2  C   UNL     1       3.838  -0.580   1.746  0.00  0.00    +0.000 A 
ATOM      3  C   UNL     1       4.619  -0.298   2.867  0.00  0.00    +0.000 A 
ATOM      4  C   UNL     1       4.393   0.885   3.571  0.00  0.00    +0.000 A 
ATOM      5  N   UNL     1       3.426   1.768   3.207  0.00  0.00    +0.000 NA
ATOM      6  C   UNL     1       2.674   1.471   2.119  0.00  0.00    +0.000 A 
ENDROOT
BRANCH   1   8
ATOM      7  O   UNL     1       1.546   1.024  -0.482  0.00  0.00    +0.000 OA
ATOM      8  C   UNL     1       1.966   0.106   0.199  0.00  0.00    +0.000 C 
BRANCH   8   9
ATOM      9  O   UNL     1       1.660  -1.189  -0.026  0.00  0.00    +0.000 OA
ATOM     10  H   UNL     1       1.896  -1.806   0.691  0.00  0.00    +0.000 HD
ENDBRANCH   8   9
ENDBRANCH   1   8
BRANCH   4  11
ATOM     11  C   UNL     1       5.255   1.241   4.769  0.00  0.00    +0.000 C 
BRANCH  11  12
ATOM     12  N   UNL     1       4.690   0.730   6.005  0.00  0.00    +0.000 N 
ATOM     13  C   UNL     1       5.320   0.963   7.214  0.00  0.00    +0.000 A 
ATOM     14  C   UNL     1       6.062   2.097   7.478  0.00  0.00    +0.000 A 
ATOM     15  C   UNL     1       6.593   2.215   8.743  0.00  0.00    +0.000 A 
ATOM     16  N   UNL     1       6.405   1.305   9.712  0.00  0.00    +0.000 NA
ATOM     17  C   UNL     1       5.653   0.254   9.363  0.00  0.00    +0.000 A 
ATOM     18  N   UNL     1       5.112   0.029   8.154  0.00  0.00    +0.000 NA
ATOM     19  H   UNL     1       4.316  -0.213   5.990  0.00  0.00    +0.000 HD
ENDBRANCH  11  12
ENDBRANCH   4  11
TORSDOF 4
