REMARK  Name = 
REMARK  6 active torsions:
REMARK  status: ('A' for Active; 'I' for Inactive)
REMARK    1  A    between atoms: C_2  and  C_20
REMARK    2  A    between atoms: N_3  and  C_4
REMARK    3  A    between atoms: C_4  and  C_5
REMARK    4  A    between atoms: C_8  and  C_9
REMARK    5  A    between atoms: C_9  and  C_10
REMARK    6  A    between atoms: C_10  and  C_11
REMARK                            x       y       z     vdW  Elec       q    Type
REMARK                         _______ _______ _______ _____ _____    ______ ____
ROOT
ATOM      1  C   UNL     1       2.290  -0.909   2.418  0.00  0.00    +0.000 C 
ENDROOT
BRANCH   1   2
ATOM      2  C   UNL     1       3.217  -1.272   3.549  0.00  0.00    +0.000 A 
ATOM      3  C   UNL     1       3.904  -0.272   4.249  0.00  0.00    +0.000 A 
ATOM      4  C   UNL     1       4.740  -0.598   5.321  0.00  0.00    +0.000 A 
ATOM      5  C   UNL     1       4.909  -1.931   5.719  0.00  0.00    +0.000 A 
ATOM      6  C   UNL     1       4.248  -2.933   4.996  0.00  0.00    +0.000 A 
ATOM      7  C   UNL     1       3.417  -2.608   3.918  0.00  0.00    +0.000 A 
BRANCH   5   8
ATOM      8  C   UNL     1       5.817  -2.297   6.874  0.00  0.00    +0.000 C 
BRANCH   8   9
ATOM      9  C   UNL     1       5.397  -1.650   8.198  0.00  0.00    +0.000 C 
BRANCH   9  10
ATOM     10  C   UNL     1       6.328  -2.018   9.336  0.00  0.00    +0.000 C 
ATOM     11  O   UNL     1       7.258  -2.813   9.206  0.00  0.00    +0.000 OA
ATOM     12  N   UNL     1       6.088  -1.372  10.539  0.00  0.00    +0.000 N 
ATOM     13  C   UNL     1       5.010  -0.457  10.860  0.00  0.00    +0.000 C 
ATOM     14  C   UNL     1       5.662   0.500  11.840  0.00  0.00    +0.000 C 
ATOM     15  C   UNL     1       6.595  -0.403  12.641  0.00  0.00    +0.000 C 
ATOM     16  C   UNL     1       7.001  -1.505  11.663  0.00  0.00    +0.000 C 
ENDBRANCH   9  10
ENDBRANCH   8   9
ENDBRANCH   5   8
ENDBRANCH   1   2
BRANCH   1  19
ATOM     17  O   UNL     1       3.244   1.461   1.244  0.00  0.00    +0.000 OA
ATOM     18  C   UNL     1       3.453   0.392   0.676  0.00  0.00    +0.000 C 
ATOM     19  N   UNL     1       2.987  -0.802   1.162  0.00  0.00    +0.000 N 
ATOM     20  H   UNL     1       3.315  -1.671   0.752  0.00  0.00    +0.000 HD
BRANCH  18  21
ATOM     21  C   UNL     1       4.177   0.339  -0.600  0.00  0.00    +0.000 A 
ATOM     22  C   UNL     1       4.236   1.468  -1.407  0.00  0.00    +0.000 A 
ATOM     23  S   UNL     1       5.134   1.240  -2.839  0.00  0.00    +0.000 S 
ATOM     24  C   UNL     1       5.507  -0.365  -2.413  0.00  0.00    +0.000 A 
ATOM     25  N   UNL     1       6.303  -1.132  -3.206  0.00  0.00    +0.000 NA
ATOM     26  C   UNL     1       6.541  -2.312  -2.738  0.00  0.00    +0.000 A 
ATOM     27  N   UNL     1       6.038  -2.803  -1.561  0.00  0.00    +0.000 N 
ATOM     28  C   UNL     1       5.156  -2.100  -0.777  0.00  0.00    +0.000 A 
ATOM     29  O   UNL     1       4.595  -2.625   0.179  0.00  0.00    +0.000 OA
ATOM     30  C   UNL     1       4.917  -0.737  -1.218  0.00  0.00    +0.000 A 
ATOM     31  H   UNL     1       6.227  -3.750  -1.273  0.00  0.00    +0.000 HD
ENDBRANCH  18  21
ENDBRANCH   1  19
TORSDOF 6
