REMARK  Name = 
REMARK  6 active torsions:
REMARK  status: ('A' for Active; 'I' for Inactive)
REMARK    1  A    between atoms: C_2  and  C_19
REMARK    2  A    between atoms: N_3  and  C_4
REMARK    3  A    between atoms: C_4  and  C_5
REMARK    4  A    between atoms: C_8  and  N_9
REMARK    5  A    between atoms: N_9  and  C_10
REMARK    6  A    between atoms: C_10  and  C_11
REMARK                            x       y       z     vdW  Elec       q    Type
REMARK                         _______ _______ _______ _____ _____    ______ ____
ROOT
ATOM      1  C   UNL     1       3.133   3.429  -3.236  0.00  0.00    +0.000 C 
ENDROOT
BRANCH   1   2
ATOM      2  C   UNL     1       3.118   3.393  -1.692  0.00  0.00    +0.000 C 
ATOM      3  C   UNL     1       4.472   3.015  -1.072  0.00  0.00    +0.000 C 
ATOM      4  C   UNL     1       5.540   4.083  -1.302  0.00  0.00    +0.000 C 
ATOM      5  C   UNL     1       5.122   5.453  -0.739  0.00  0.00    +0.000 C 
ATOM      6  C   UNL     1       3.692   5.846  -1.155  0.00  0.00    +0.000 C 
ATOM      7  C   UNL     1       2.657   4.727  -1.089  0.00  0.00    +0.000 C 
BRANCH   5   8
ATOM      8  N   UNL     1       6.115   6.454  -1.174  0.00  0.00    +0.000 NA
ATOM      9  H   UNL     1       6.108   6.519  -2.193  0.00  0.00    +0.000 HD
BRANCH   8  10
ATOM     10  C   UNL     1       5.833   7.802  -0.650  0.00  0.00    +0.000 C 
BRANCH  10  11
ATOM     11  C   UNL     1       6.794   8.854  -1.170  0.00  0.00    +0.000 A 
ATOM     12  C   UNL     1       8.153   8.775  -0.881  0.00  0.00    +0.000 A 
ATOM     13  C   UNL     1       8.997   9.782  -1.342  0.00  0.00    +0.000 A 
ATOM     14  C   UNL     1       8.463  10.836  -2.076  0.00  0.00    +0.000 A 
ATOM     15  C   UNL     1       7.102  10.834  -2.330  0.00  0.00    +0.000 A 
ATOM     16  N   UNL     1       6.260   9.870  -1.899  0.00  0.00    +0.000 NA
ENDBRANCH  10  11
ENDBRANCH   8  10
ENDBRANCH   5   8
ENDBRANCH   1   2
BRANCH   1  19
ATOM     17  O   UNL     1       1.345   1.249  -3.778  0.00  0.00    +0.000 OA
ATOM     18  C   UNL     1       2.530   1.146  -4.061  0.00  0.00    +0.000 C 
ATOM     19  N   UNL     1       3.459   2.146  -3.836  0.00  0.00    +0.000 N 
ATOM     20  H   UNL     1       4.388   2.029  -4.215  0.00  0.00    +0.000 HD
BRANCH  18  21
ATOM     21  C   UNL     1       3.112  -0.075  -4.635  0.00  0.00    +0.000 A 
ATOM     22  C   UNL     1       4.353  -0.558  -4.244  0.00  0.00    +0.000 A 
ATOM     23  S   UNL     1       4.791  -2.015  -5.015  0.00  0.00    +0.000 S 
ATOM     24  C   UNL     1       3.326  -2.060  -5.881  0.00  0.00    +0.000 A 
ATOM     25  N   UNL     1       3.057  -3.082  -6.737  0.00  0.00    +0.000 NA
ATOM     26  C   UNL     1       1.905  -2.998  -7.314  0.00  0.00    +0.000 A 
ATOM     27  N   UNL     1       1.006  -1.982  -7.119  0.00  0.00    +0.000 N 
ATOM     28  C   UNL     1       1.268  -0.884  -6.326  0.00  0.00    +0.000 A 
ATOM     29  O   UNL     1       0.508   0.083  -6.312  0.00  0.00    +0.000 OA
ATOM     30  C   UNL     1       2.525  -0.967  -5.604  0.00  0.00    +0.000 A 
ATOM     31  H   UNL     1       0.143  -1.949  -7.640  0.00  0.00    +0.000 HD
ENDBRANCH  18  21
ENDBRANCH   1  19
TORSDOF 6
