REMARK  Name = 
REMARK  6 active torsions:
REMARK  status: ('A' for Active; 'I' for Inactive)
REMARK    1  A    between atoms: C_2  and  C_4
REMARK    2  A    between atoms: C_7  and  CA_8
REMARK    3  A    between atoms: CA_8  and  C_9
REMARK    4  A    between atoms: CA_8  and  N_11
REMARK    5  A    between atoms: C_9  and  O_10
REMARK    6  A    between atoms: N_11  and  C_12
REMARK                            x       y       z     vdW  Elec       q    Type
REMARK                         _______ _______ _______ _____ _____    ______ ____
ROOT
ATOM      1  CA  UNL     1       5.535   2.591   3.946  0.00  0.00    +0.000 C 
ENDROOT
BRANCH   1   5
ATOM      2  C   UNL     1       2.961   0.695   1.094  0.00  0.00    +0.000 A 
ATOM      3  C   UNL     1       4.340   0.663   0.886  0.00  0.00    +0.000 A 
ATOM      4  C   UNL     1       5.185   1.279   1.810  0.00  0.00    +0.000 A 
ATOM      5  C   UNL     1       4.629   1.922   2.917  0.00  0.00    +0.000 A 
ATOM      6  N   UNL     1       3.285   1.990   3.116  0.00  0.00    +0.000 NA
ATOM      7  C   UNL     1       2.486   1.377   2.206  0.00  0.00    +0.000 A 
BRANCH   2   9
ATOM      8  N   UNL     1       2.420  -1.018  -0.542  0.00  0.00    +0.000 N 
ATOM      9  C   UNL     1       1.990   0.068   0.174  0.00  0.00    +0.000 C 
ATOM     10  O   UNL     1       0.838   0.472   0.087  0.00  0.00    +0.000 OA
ATOM     11  H   UNL     1       1.713  -1.493  -1.087  0.00  0.00    +0.000 HD
ATOM     12  H   UNL     1       3.258  -1.529  -0.308  0.00  0.00    +0.000 HD
ENDBRANCH   2   9
ENDBRANCH   1   5
BRANCH   1  13
ATOM     13  N   UNL     1       5.044   2.457   5.351  0.00  0.00    +0.000 NA
ATOM     14  H   UNL     1       4.082   2.818   5.338  0.00  0.00    +0.000 HD
BRANCH  13  15
ATOM     15  C   UNL     1       4.963   1.055   5.828  0.00  0.00    +0.000 C 
ATOM     16  C   UNL     1       4.372   1.052   7.253  0.00  0.00    +0.000 C 
ATOM     17  C   UNL     1       4.290  -0.360   7.847  0.00  0.00    +0.000 C 
ATOM     18  C   UNL     1       5.635  -1.081   7.798  0.00  0.00    +0.000 C 
ATOM     19  C   UNL     1       6.210  -1.079   6.388  0.00  0.00    +0.000 C 
ATOM     20  C   UNL     1       6.326   0.342   5.841  0.00  0.00    +0.000 C 
ENDBRANCH  13  15
ENDBRANCH   1  13
BRANCH   1  21
ATOM     21  C   UNL     1       5.689   4.088   3.574  0.00  0.00    +0.000 C 
BRANCH  21  22
ATOM     22  O   UNL     1       6.589   4.757   4.461  0.00  0.00    +0.000 OA
ATOM     23  H   UNL     1       6.363   4.433   5.355  0.00  0.00    +0.000 HD
ENDBRANCH  21  22
ENDBRANCH   1  21
TORSDOF 6
