REMARK  Name = 
REMARK  4 active torsions:
REMARK  status: ('A' for Active; 'I' for Inactive)
REMARK    1  A    between atoms: C_2  and  C_4
REMARK    2  A    between atoms: N_8  and  C_9
REMARK    3  A    between atoms: C_9  and  C_10
REMARK    4  A    between atoms: C_14  and  C_15
REMARK                            x       y       z     vdW  Elec       q    Type
REMARK                         _______ _______ _______ _____ _____    ______ ____
ROOT
ATOM      1  C   UNL     1       5.130  -0.314   5.815  0.00  0.00    +0.000 C 
ATOM      2  C   UNL     1       5.421  -1.803   5.942  0.00  0.00    +0.000 C 
ATOM      3  C   UNL     1       4.125  -1.258   6.444  0.00  0.00    +0.000 C 
ENDROOT
BRANCH   1   8
ATOM      4  C   UNL     1       2.290   2.967   2.939  0.00  0.00    +0.000 A 
ATOM      5  C   UNL     1       1.844   2.065   3.898  0.00  0.00    +0.000 A 
ATOM      6  C   UNL     1       2.744   1.150   4.450  0.00  0.00    +0.000 A 
ATOM      7  C   UNL     1       4.065   1.137   4.020  0.00  0.00    +0.000 A 
ATOM      8  N   UNL     1       4.998   0.177   4.425  0.00  0.00    +0.000 N 
ATOM      9  N   UNL     1       4.507   2.008   3.085  0.00  0.00    +0.000 NA
ATOM     10  C   UNL     1       3.621   2.894   2.564  0.00  0.00    +0.000 A 
ATOM     11  H   UNL     1       5.874   0.476   3.998  0.00  0.00    +0.000 HD
BRANCH   4  13
ATOM     12  N   UNL     1       0.271   4.324   2.926  0.00  0.00    +0.000 N 
ATOM     13  C   UNL     1       1.406   3.947   2.266  0.00  0.00    +0.000 C 
ATOM     14  O   UNL     1       1.699   4.429   1.180  0.00  0.00    +0.000 OA
ATOM     15  H   UNL     1      -0.276   5.059   2.495  0.00  0.00    +0.000 HD
ATOM     16  H   UNL     1       0.115   4.141   3.907  0.00  0.00    +0.000 HD
ENDBRANCH   4  13
ENDBRANCH   1   8
BRANCH   1  17
ATOM     17  C   UNL     1       5.889   0.656   6.715  0.00  0.00    +0.000 A 
ATOM     18  C   UNL     1       7.278   0.578   6.903  0.00  0.00    +0.000 A 
ATOM     19  C   UNL     1       7.975   1.568   7.598  0.00  0.00    +0.000 A 
ATOM     20  C   UNL     1       7.300   2.683   8.094  0.00  0.00    +0.000 A 
ATOM     21  C   UNL     1       5.916   2.798   7.931  0.00  0.00    +0.000 A 
ATOM     22  C   UNL     1       5.227   1.754   7.288  0.00  0.00    +0.000 A 
BRANCH  21  23
ATOM     23  C   UNL     1       5.191   4.068   8.340  0.00  0.00    +0.000 C 
ATOM     24  C   UNL     1       4.191   3.833   9.479  0.00  0.00    +0.000 C 
ATOM     25  C   UNL     1       3.380   5.095   9.748  0.00  0.00    +0.000 C 
ATOM     26  O   UNL     1       2.731   5.545   8.559  0.00  0.00    +0.000 OA
ATOM     27  C   UNL     1       3.668   5.916   7.549  0.00  0.00    +0.000 C 
ATOM     28  C   UNL     1       4.496   4.713   7.127  0.00  0.00    +0.000 C 
ENDBRANCH  21  23
ENDBRANCH   1  17
TORSDOF 4
