REMARK  Name = 
REMARK  13 active torsions:
REMARK  status: ('A' for Active; 'I' for Inactive)
REMARK    1  A    between atoms: C_1  and  N_2
REMARK    2  A    between atoms: N_2  and  C_3
REMARK    3  A    between atoms: N_2  and  C_4
REMARK    4  A    between atoms: C_4  and  C_5
REMARK    5  A    between atoms: C_5  and  C_6
REMARK    6  A    between atoms: C_6  and  C_7
REMARK    7  A    between atoms: C_7  and  C_8
REMARK    8  A    between atoms: C_7  and  O_9
REMARK    9  A    between atoms: C_7  and  C_10
REMARK   10  A    between atoms: C_13  and  C_14
REMARK   11  A    between atoms: C_14  and  O_15
REMARK   12  A    between atoms: O_15  and  C_16
REMARK   13  A    between atoms: C_19  and  C_20
REMARK                            x       y       z     vdW  Elec       q    Type
REMARK                         _______ _______ _______ _____ _____    ______ ____
ROOT
ATOM      1  C   UNL     1       7.147  -2.737  -3.272  0.00  0.00    +0.000 A 
ATOM      2  C   UNL     1       7.875  -2.322  -4.384  0.00  0.00    +0.000 A 
ATOM      3  N   UNL     1       8.360  -3.171  -5.324  0.00  0.00    +0.000 NA
ATOM      4  C   UNL     1       8.076  -4.483  -5.139  0.00  0.00    +0.000 A 
ATOM      5  C   UNL     1       7.324  -4.909  -4.059  0.00  0.00    +0.000 A 
ATOM      6  N   UNL     1       6.880  -4.062  -3.108  0.00  0.00    +0.000 NA
ENDROOT
BRANCH   1   7
ATOM      7  C   UNL     1       6.621  -1.771  -2.207  0.00  0.00    +0.000 C 
ATOM      8  C   UNL     1       7.142  -0.331  -2.386  0.00  0.00    +0.000 C 
BRANCH   7   9
ATOM      9  O   UNL     1       7.106  -2.205  -0.925  0.00  0.00    +0.000 OA
ATOM     10  H   UNL     1       6.803  -1.567  -0.259  0.00  0.00    +0.000 HD
ENDBRANCH   7   9
BRANCH   7  11
ATOM     11  C   UNL     1       5.068  -1.732  -2.183  0.00  0.00    +0.000 C 
BRANCH  11  12
ATOM     12  C   UNL     1       4.370  -3.064  -1.850  0.00  0.00    +0.000 C 
BRANCH  12  13
ATOM     13  C   UNL     1       2.839  -2.992  -1.928  0.00  0.00    +0.000 C 
BRANCH  13  15
ATOM     14  C   UNL     1       2.699  -3.407  -4.332  0.00  0.00    +0.000 C 
ATOM     15  N   UNL     1       2.321  -2.522  -3.226  0.00  0.00    +0.000 NA
ATOM     16  C   UNL     1       0.862  -2.406  -3.166  0.00  0.00    +0.000 C 
ENDBRANCH  13  15
ENDBRANCH  12  13
ENDBRANCH  11  12
ENDBRANCH   7  11
ENDBRANCH   1   7
BRANCH   4  17
ATOM     17  C   UNL     1       8.642  -5.482  -6.105  0.00  0.00    +0.000 C 
BRANCH  17  18
ATOM     18  O   UNL     1       7.722  -5.704  -7.173  0.00  0.00    +0.000 OA
BRANCH  18  19
ATOM     19  C   UNL     1       8.116  -6.617  -8.113  0.00  0.00    +0.000 A 
ATOM     20  C   UNL     1       9.321  -7.326  -8.107  0.00  0.00    +0.000 A 
ATOM     21  C   UNL     1       9.594  -8.261  -9.107  0.00  0.00    +0.000 A 
ATOM     22  C   UNL     1       8.668  -8.489 -10.128  0.00  0.00    +0.000 A 
ATOM     23  C   UNL     1       7.470  -7.768 -10.149  0.00  0.00    +0.000 A 
ATOM     24  C   UNL     1       7.199  -6.836  -9.143  0.00  0.00    +0.000 A 
BRANCH  22  25
ATOM     25  C   UNL     1       8.947  -9.460 -11.146  0.00  0.00    +0.000 C 
ATOM     26  N   UNL     1       9.181 -10.246 -11.963  0.00  0.00    +0.000 NA
ENDBRANCH  22  25
ENDBRANCH  18  19
ENDBRANCH  17  18
ENDBRANCH   4  17
TORSDOF 10
