REMARK  Name = 
REMARK  5 active torsions:
REMARK  status: ('A' for Active; 'I' for Inactive)
REMARK    1  A    between atoms: C_2  and  C_4
REMARK    2  A    between atoms: C_8  and  C_9
REMARK    3  A    between atoms: C_9  and  O_10
REMARK    4  A    between atoms: O_10  and  C_11
REMARK    5  A    between atoms: C_15  and  C_16
REMARK                            x       y       z     vdW  Elec       q    Type
REMARK                         _______ _______ _______ _____ _____    ______ ____
ROOT
ATOM      1  O   UNL     1       2.195  -4.930  -1.485  0.00  0.00    +0.000 OA
ENDROOT
BRANCH   1   2
ATOM      2  C   UNL     1       1.552  -5.886  -2.223  0.00  0.00    +0.000 A 
ATOM      3  C   UNL     1       1.404  -7.130  -1.630  0.00  0.00    +0.000 A 
ATOM      4  C   UNL     1       0.795  -8.129  -2.364  0.00  0.00    +0.000 A 
ATOM      5  N   UNL     1       0.337  -7.965  -3.626  0.00  0.00    +0.000 NA
ATOM      6  C   UNL     1       0.477  -6.742  -4.193  0.00  0.00    +0.000 A 
ATOM      7  C   UNL     1       1.048  -5.679  -3.501  0.00  0.00    +0.000 A 
BRANCH   6   8
ATOM      8  C   UNL     1       0.013  -6.595  -5.585  0.00  0.00    +0.000 A 
ATOM      9  C   UNL     1      -1.084  -7.328  -6.067  0.00  0.00    +0.000 A 
ATOM     10  C   UNL     1      -1.545  -7.169  -7.378  0.00  0.00    +0.000 A 
ATOM     11  C   UNL     1      -0.914  -6.274  -8.237  0.00  0.00    +0.000 A 
ATOM     12  C   UNL     1       0.183  -5.550  -7.786  0.00  0.00    +0.000 A 
ATOM     13 CL   UNL     1       0.974  -4.439  -8.837  0.00  0.00    +0.000 Cl
ATOM     14  C   UNL     1       0.648  -5.711  -6.481  0.00  0.00    +0.000 A 
ENDBRANCH   6   8
ENDBRANCH   1   2
BRANCH   1  15
ATOM     15  C   UNL     1       2.795  -3.881  -2.251  0.00  0.00    +0.000 C 
BRANCH  15  20
ATOM     16  C   UNL     1       4.829  -1.234  -0.432  0.00  0.00    +0.000 A 
ATOM     17  C   UNL     1       5.837  -2.053   0.059  0.00  0.00    +0.000 A 
ATOM     18  N   UNL     1       5.881  -3.394  -0.134  0.00  0.00    +0.000 NA
ATOM     19  C   UNL     1       4.879  -3.934  -0.859  0.00  0.00    +0.000 A 
ATOM     20  C   UNL     1       3.831  -3.200  -1.410  0.00  0.00    +0.000 A 
ATOM     21  C   UNL     1       3.816  -1.818  -1.196  0.00  0.00    +0.000 A 
BRANCH  16  23
ATOM     22  N   UNL     1       3.702   0.899  -0.137  0.00  0.00    +0.000 N 
ATOM     23  C   UNL     1       4.886   0.215  -0.149  0.00  0.00    +0.000 C 
ATOM     24  O   UNL     1       5.944   0.776   0.099  0.00  0.00    +0.000 OA
ATOM     25  H   UNL     1       3.751   1.862   0.175  0.00  0.00    +0.000 HD
ATOM     26  H   UNL     1       2.808   0.435  -0.062  0.00  0.00    +0.000 HD
ENDBRANCH  16  23
ENDBRANCH  15  20
ENDBRANCH   1  15
TORSDOF 5
