REMARK  Name = 
REMARK  8 active torsions:
REMARK  status: ('A' for Active; 'I' for Inactive)
REMARK    1  A    between atoms: C_1  and  C_2
REMARK    2  A    between atoms: C_8  and  C_9
REMARK    3  A    between atoms: C_11  and  C_12
REMARK    4  A    between atoms: C_12  and  N_13
REMARK    5  A    between atoms: N_13  and  C_14
REMARK    6  A    between atoms: N_13  and  C_15
REMARK    7  A    between atoms: C_18  and  C_19
REMARK    8  A    between atoms: C_26  and  C_27
REMARK                            x       y       z     vdW  Elec       q    Type
REMARK                         _______ _______ _______ _____ _____    ______ ____
ROOT
ATOM      1  C   UNL     1       2.353   1.285   0.746  0.00  0.00    +0.000 C 
ATOM      2  C   UNL     1       3.349   0.415  -0.016  0.00  0.00    +0.000 C 
ATOM      3  C   UNL     1       3.668   0.974  -1.422  0.00  0.00    +0.000 C 
ATOM      4  N   UNL     1       2.600   0.598  -2.335  0.00  0.00    +0.000 N 
ATOM      5  C   UNL     1       2.059   1.477  -3.224  0.00  0.00    +0.000 A 
ATOM      6  N   UNL     1       2.631   2.676  -3.391  0.00  0.00    +0.000 NA
ATOM      7  C   UNL     1       2.097   3.497  -4.318  0.00  0.00    +0.000 A 
ATOM      8  C   UNL     1       0.975   3.199  -5.060  0.00  0.00    +0.000 A 
ATOM      9  C   UNL     1       0.388   1.980  -4.778  0.00  0.00    +0.000 A 
ATOM     10  N   UNL     1       0.949   1.116  -3.887  0.00  0.00    +0.000 NA
ATOM     11  C   UNL     1       2.344  -0.832  -2.423  0.00  0.00    +0.000 C 
ATOM     12  C   UNL     1       1.992  -1.363  -1.022  0.00  0.00    +0.000 C 
ATOM     13  C   UNL     1       0.559  -1.019  -0.625  0.00  0.00    +0.000 C 
ATOM     14  O   UNL     1       2.951  -0.971  -0.020  0.00  0.00    +0.000 OA
ENDROOT
BRANCH   8  15
ATOM     15  C   UNL     1       0.564   4.070  -6.111  0.00  0.00    +0.000 C 
ATOM     16  N   UNL     1       0.306   4.782  -6.992  0.00  0.00    +0.000 NA
ENDBRANCH   8  15
BRANCH   9  17
ATOM     17  C   UNL     1      -0.907   1.509  -5.422  0.00  0.00    +0.000 C 
BRANCH  17  18
ATOM     18  N   UNL     1      -2.112   1.848  -4.632  0.00  0.00    +0.000 N 
ATOM     19  C   UNL     1      -2.196   1.293  -3.269  0.00  0.00    +0.000 C 
BRANCH  18  20
ATOM     20  C   UNL     1      -3.352   1.824  -5.298  0.00  0.00    +0.000 A 
ATOM     21  C   UNL     1      -4.446   2.535  -4.780  0.00  0.00    +0.000 A 
ATOM     22  C   UNL     1      -5.666   2.572  -5.462  0.00  0.00    +0.000 A 
ATOM     23  C   UNL     1      -5.769   1.878  -6.657  0.00  0.00    +0.000 A 
ATOM     24  N   UNL     1      -4.761   1.133  -7.184  0.00  0.00    +0.000 NA
ATOM     25  C   UNL     1      -3.596   1.131  -6.490  0.00  0.00    +0.000 A 
BRANCH  23  26
ATOM     26  C   UNL     1      -7.026   1.953  -7.468  0.00  0.00    +0.000 C 
ATOM     27  N   UNL     1      -7.003   1.240  -8.638  0.00  0.00    +0.000 N 
ATOM     28  O   UNL     1      -8.000   2.613  -7.130  0.00  0.00    +0.000 OA
ATOM     29  H   UNL     1      -6.156   0.748  -8.899  0.00  0.00    +0.000 HD
ATOM     30  H   UNL     1      -7.786   1.290  -9.273  0.00  0.00    +0.000 HD
ENDBRANCH  23  26
ENDBRANCH  18  20
ENDBRANCH  17  18
ENDBRANCH   9  17
TORSDOF 5
