REMARK  Name = 
REMARK  5 active torsions:
REMARK  status: ('A' for Active; 'I' for Inactive)
REMARK    1  A    between atoms: C_1  and  C_2
REMARK    2  A    between atoms: C_4  and  C_5
REMARK    3  A    between atoms: C_10  and  C_11
REMARK    4  A    between atoms: C_11  and  C_12
REMARK    5  A    between atoms: C_15  and  O_16
REMARK                            x       y       z     vdW  Elec       q    Type
REMARK                         _______ _______ _______ _____ _____    ______ ____
ROOT
ATOM      1  C   UNL     1       0.861   0.833   2.268  0.00  0.00    +0.000 C 
ATOM      2  C   UNL     1       0.245   0.151   1.078  0.00  0.00    +0.000 A 
ATOM      3  C   UNL     1       0.268  -1.256   1.022  0.00  0.00    +0.000 A 
ATOM      4  C   UNL     1      -0.281  -1.888  -0.085  0.00  0.00    +0.000 A 
ATOM      5  N   UNL     1      -0.812  -1.226  -1.145  0.00  0.00    +0.000 NA
ATOM      6  C   UNL     1      -0.834   0.123  -1.049  0.00  0.00    +0.000 A 
ATOM      7  C   UNL     1      -0.369   0.880   0.036  0.00  0.00    +0.000 A 
ENDROOT
BRANCH   4   8
ATOM      8  C   UNL     1      -0.348  -3.382  -0.158  0.00  0.00    +0.000 C 
ATOM      9  N   UNL     1      -0.940  -3.866  -1.295  0.00  0.00    +0.000 N 
ATOM     10  O   UNL     1       0.072  -4.115   0.728  0.00  0.00    +0.000 OA
ATOM     11  H   UNL     1      -1.289  -3.214  -1.982  0.00  0.00    +0.000 HD
ATOM     12  H   UNL     1      -1.060  -4.866  -1.419  0.00  0.00    +0.000 HD
ENDBRANCH   4   8
BRANCH   7  13
ATOM     13  C   UNL     1      -0.636   2.388   0.069  0.00  0.00    +0.000 C 
ATOM     14  C   UNL     1      -1.534   2.906   1.195  0.00  0.00    +0.000 C 
ATOM     15  C   UNL     1      -2.089   2.853  -0.183  0.00  0.00    +0.000 C 
BRANCH  13  16
ATOM     16  C   UNL     1       0.364   3.346  -0.587  0.00  0.00    +0.000 A 
ATOM     17  C   UNL     1       0.340   3.532  -1.986  0.00  0.00    +0.000 A 
ATOM     18  C   UNL     1       0.858   4.686  -2.575  0.00  0.00    +0.000 A 
ATOM     19  C   UNL     1       1.454   5.647  -1.769  0.00  0.00    +0.000 A 
ATOM     20  C   UNL     1       1.644   5.398  -0.413  0.00  0.00    +0.000 A 
ATOM     21  F   UNL     1       2.236   6.313   0.368  0.00  0.00    +0.000 F 
ATOM     22  C   UNL     1       1.122   4.250   0.175  0.00  0.00    +0.000 A 
BRANCH  19  23
ATOM     23  O   UNL     1       1.802   6.861  -2.287  0.00  0.00    +0.000 OA
ATOM     24  H   UNL     1       1.259   7.020  -3.077  0.00  0.00    +0.000 HD
ENDBRANCH  19  23
ENDBRANCH  13  16
ENDBRANCH   7  13
TORSDOF 4
