REMARK  Name = 
REMARK  11 active torsions:
REMARK  status: ('A' for Active; 'I' for Inactive)
REMARK    1  A    between atoms: N_1  and  C_2
REMARK    2  A    between atoms: C_2  and  C_3
REMARK    3  A    between atoms: C_2  and  C_14
REMARK    4  A    between atoms: C_3  and  N_4
REMARK    5  A    between atoms: C_7  and  C_8
REMARK    6  A    between atoms: C_8  and  O_9
REMARK    7  A    between atoms: C_10  and  C_11
REMARK    8  A    between atoms: C_11  and  O_12
REMARK    9  A    between atoms: C_17  and  C_18
REMARK   10  A    between atoms: C_18  and  N_19
REMARK   11  A    between atoms: C_20  and  C_22
REMARK                            x       y       z     vdW  Elec       q    Type
REMARK                         _______ _______ _______ _____ _____    ______ ____
ROOT
ATOM      1  C   UNL     1       3.074  -1.400  -0.561  0.00  0.00    +0.000 A 
ATOM      2  C   UNL     1       4.460  -1.559  -0.531  0.00  0.00    +0.000 A 
ATOM      3  C   UNL     1       5.044  -2.693  -1.078  0.00  0.00    +0.000 A 
ATOM      4  C   UNL     1       4.236  -3.640  -1.693  0.00  0.00    +0.000 A 
ATOM      5  C   UNL     1       2.863  -3.452  -1.624  0.00  0.00    +0.000 A 
ATOM      6  N   UNL     1       2.272  -2.374  -1.067  0.00  0.00    +0.000 NA
ENDROOT
BRANCH   1   7
ATOM      7  C   UNL     1       2.409  -0.081  -0.139  0.00  0.00    +0.000 C 
BRANCH   7   8
ATOM      8  N   UNL     1       0.931  -0.154  -0.247  0.00  0.00    +0.000 NA
ATOM      9  H   UNL     1       0.485   0.672   0.139  0.00  0.00    +0.000 HD
ATOM     10  H   UNL     1       0.616  -0.974   0.268  0.00  0.00    +0.000 HD
ENDBRANCH   7   8
BRANCH   7  11
ATOM     11  C   UNL     1       2.817   0.407   1.290  0.00  0.00    +0.000 C 
BRANCH  11  12
ATOM     12  N   UNL     1       4.253   0.688   1.528  0.00  0.00    +0.000 NA
ATOM     13  C   UNL     1       4.772   1.754   0.656  0.00  0.00    +0.000 C 
ATOM     14  C   UNL     1       6.270   1.978   0.879  0.00  0.00    +0.000 C 
ATOM     15  C   UNL     1       6.599   2.256   2.353  0.00  0.00    +0.000 C 
ATOM     16  C   UNL     1       5.998   1.154   3.261  0.00  0.00    +0.000 C 
ATOM     17  C   UNL     1       4.503   0.951   2.949  0.00  0.00    +0.000 C 
BRANCH  15  18
ATOM     18  C   UNL     1       6.081   3.641   2.782  0.00  0.00    +0.000 C 
BRANCH  18  19
ATOM     19  O   UNL     1       6.644   4.670   1.984  0.00  0.00    +0.000 OA
ATOM     20  H   UNL     1       7.613   4.611   2.069  0.00  0.00    +0.000 HD
ENDBRANCH  18  19
ENDBRANCH  15  18
BRANCH  16  21
ATOM     21  C   UNL     1       6.761  -0.180   3.175  0.00  0.00    +0.000 C 
BRANCH  21  22
ATOM     22  O   UNL     1       8.107  -0.010   3.612  0.00  0.00    +0.000 OA
ATOM     23  H   UNL     1       8.087   0.136   4.574  0.00  0.00    +0.000 HD
ENDBRANCH  21  22
ENDBRANCH  16  21
ENDBRANCH  11  12
ENDBRANCH   7  11
ENDBRANCH   1   7
BRANCH   4  24
ATOM     24  C   UNL     1       4.817  -4.828  -2.381  0.00  0.00    +0.000 C 
BRANCH  24  25
ATOM     25  N   UNL     1       4.952  -5.928  -1.469  0.00  0.00    +0.000 N 
ATOM     26  C   UNL     1       5.527  -7.101  -1.872  0.00  0.00    +0.000 C 
ATOM     27  O   UNL     1       5.986  -7.248  -3.003  0.00  0.00    +0.000 OA
ATOM     28  H   UNL     1       4.400  -5.902  -0.618  0.00  0.00    +0.000 HD
BRANCH  26  29
ATOM     29  C   UNL     1       5.624  -8.154  -0.859  0.00  0.00    +0.000 A 
ATOM     30  C   UNL     1       6.590  -9.139  -0.995  0.00  0.00    +0.000 A 
ATOM     31  S   UNL     1       6.602 -10.261   0.288  0.00  0.00    +0.000 S 
ATOM     32  C   UNL     1       5.283  -9.496   1.044  0.00  0.00    +0.000 A 
ATOM     33  N   UNL     1       4.765  -9.981   2.201  0.00  0.00    +0.000 NA
ATOM     34  C   UNL     1       3.752  -9.318   2.653  0.00  0.00    +0.000 A 
ATOM     35  N   UNL     1       3.213  -8.210   2.052  0.00  0.00    +0.000 N 
ATOM     36  C   UNL     1       3.720  -7.665   0.897  0.00  0.00    +0.000 A 
ATOM     37  O   UNL     1       3.254  -6.643   0.416  0.00  0.00    +0.000 OA
ATOM     38  C   UNL     1       4.853  -8.386   0.338  0.00  0.00    +0.000 A 
ATOM     39  H   UNL     1       2.431  -7.726   2.469  0.00  0.00    +0.000 HD
ENDBRANCH  26  29
ENDBRANCH  24  25
ENDBRANCH   4  24
TORSDOF 11
