REMARK  Name = 
REMARK  7 active torsions:
REMARK  status: ('A' for Active; 'I' for Inactive)
REMARK    1  A    between atoms: C_1  and  C_2
REMARK    2  A    between atoms: C_2  and  C_3
REMARK    3  A    between atoms: C_2  and  C_14
REMARK    4  A    between atoms: C_3  and  N_4
REMARK    5  A    between atoms: C_8  and  C_9
REMARK    6  A    between atoms: C_18  and  O_19
REMARK    7  A    between atoms: O_19  and  C_20
REMARK                            x       y       z     vdW  Elec       q    Type
REMARK                         _______ _______ _______ _____ _____    ______ ____
ROOT
ATOM      1  C   UNL     1       3.085  -1.472  -0.508  0.00  0.00    +0.000 C 
ENDROOT
BRANCH   1   2
ATOM      2  N   UNL     1       2.992  -2.365   0.651  0.00  0.00    +0.000 N 
ATOM      3  C   UNL     1       3.591  -3.621   0.411  0.00  0.00    +0.000 A 
ATOM      4  C   UNL     1       3.578  -4.620   1.399  0.00  0.00    +0.000 A 
ATOM      5  N   UNL     1       4.128  -5.860   1.251  0.00  0.00    +0.000 NA
ATOM      6  C   UNL     1       4.724  -6.065   0.044  0.00  0.00    +0.000 A 
ATOM      7  C   UNL     1       4.760  -5.089  -0.935  0.00  0.00    +0.000 A 
ATOM      8  N   UNL     1       4.204  -3.862  -0.768  0.00  0.00    +0.000 NA
ATOM      9  H   UNL     1       2.029  -2.524   0.932  0.00  0.00    +0.000 HD
BRANCH   6  10
ATOM     10  C   UNL     1       5.351  -7.389  -0.231  0.00  0.00    +0.000 C 
ATOM     11  N   UNL     1       5.291  -8.310   0.773  0.00  0.00    +0.000 N 
ATOM     12  O   UNL     1       5.886  -7.646  -1.304  0.00  0.00    +0.000 OA
ATOM     13  H   UNL     1       4.840  -8.083   1.655  0.00  0.00    +0.000 HD
ATOM     14  H   UNL     1       5.699  -9.225   0.630  0.00  0.00    +0.000 HD
ENDBRANCH   6  10
ENDBRANCH   1   2
BRANCH   1  16
ATOM     15  C   UNL     1       0.913  -0.173   0.072  0.00  0.00    +0.000 C 
ATOM     16  C   UNL     1       2.379  -0.165  -0.247  0.00  0.00    +0.000 C 
BRANCH  16  17
ATOM     17  C   UNL     1       2.958   1.076  -0.818  0.00  0.00    +0.000 A 
ATOM     18  C   UNL     1       4.284   1.432  -0.554  0.00  0.00    +0.000 A 
ATOM     19  C   UNL     1       4.803   2.643  -1.024  0.00  0.00    +0.000 A 
ATOM     20  C   UNL     1       4.016   3.502  -1.794  0.00  0.00    +0.000 A 
ATOM     21  C   UNL     1       2.728   3.125  -2.152  0.00  0.00    +0.000 A 
ATOM     22  C   UNL     1       2.195   1.936  -1.627  0.00  0.00    +0.000 A 
BRANCH  21  23
ATOM     23  O   UNL     1       1.876   3.834  -2.943  0.00  0.00    +0.000 OA
BRANCH  23  24
ATOM     24  C   UNL     1       2.392   4.684  -3.961  0.00  0.00    +0.000 C 
ATOM     25  F   UNL     1       3.725   4.598  -4.146  0.00  0.00    +0.000 F 
ATOM     26  F   UNL     1       1.796   4.363  -5.132  0.00  0.00    +0.000 F 
ATOM     27  F   UNL     1       2.077   5.965  -3.670  0.00  0.00    +0.000 F 
ENDBRANCH  23  24
ENDBRANCH  21  23
ENDBRANCH  16  17
ENDBRANCH   1  16
TORSDOF 6
