REMARK  Name = 
REMARK  6 active torsions:
REMARK  status: ('A' for Active; 'I' for Inactive)
REMARK    1  A    between atoms: C_2  and  C_4
REMARK    2  A    between atoms: C_7  and  O_8
REMARK    3  A    between atoms: O_8  and  C_9
REMARK    4  A    between atoms: C_9  and  C_10
REMARK    5  A    between atoms: C_14  and  C_15
REMARK    6  A    between atoms: C_19  and  O_20
REMARK                            x       y       z     vdW  Elec       q    Type
REMARK                         _______ _______ _______ _____ _____    ______ ____
ROOT
ATOM      1  C   UNL     1       5.404  -4.310   3.630  0.00  0.00    +0.000 C 
ATOM      2  C   UNL     1       5.205  -5.729   3.106  0.00  0.00    +0.000 C 
ATOM      3  C   UNL     1       4.065  -5.005   3.745  0.00  0.00    +0.000 C 
ENDROOT
BRANCH   1   4
ATOM      4  C   UNL     1       6.325  -4.153   4.830  0.00  0.00    +0.000 A 
ATOM      5  C   UNL     1       7.701  -4.400   4.715  0.00  0.00    +0.000 A 
ATOM      6  C   UNL     1       8.558  -4.239   5.802  0.00  0.00    +0.000 A 
ATOM      7  C   UNL     1       8.050  -3.821   7.032  0.00  0.00    +0.000 A 
ATOM      8  C   UNL     1       6.684  -3.541   7.205  0.00  0.00    +0.000 A 
ATOM      9  C   UNL     1       5.847  -3.723   6.086  0.00  0.00    +0.000 A 
BRANCH   8  10
ATOM     10  C   UNL     1       6.158  -3.059   8.504  0.00  0.00    +0.000 A 
ATOM     11  C   UNL     1       4.884  -3.430   8.975  0.00  0.00    +0.000 A 
ATOM     12  C   UNL     1       4.399  -2.976  10.209  0.00  0.00    +0.000 A 
ATOM     13  C   UNL     1       5.187  -2.154  11.012  0.00  0.00    +0.000 A 
ATOM     14  C   UNL     1       6.447  -1.784  10.565  0.00  0.00    +0.000 A 
ATOM     15  C   UNL     1       6.920  -2.209   9.326  0.00  0.00    +0.000 A 
BRANCH  14  16
ATOM     16  O   UNL     1       7.269  -1.000  11.320  0.00  0.00    +0.000 OA
ATOM     17  H   UNL     1       6.868  -0.892  12.198  0.00  0.00    +0.000 HD
ENDBRANCH  14  16
ENDBRANCH   8  10
ENDBRANCH   1   4
BRANCH   1  18
ATOM     18  O   UNL     1       5.564  -3.371   2.540  0.00  0.00    +0.000 OA
BRANCH  18  22
ATOM     19  C   UNL     1       4.468   0.570   3.047  0.00  0.00    +0.000 A 
ATOM     20  C   UNL     1       5.127   0.165   1.887  0.00  0.00    +0.000 A 
ATOM     21  C   UNL     1       5.480  -1.174   1.743  0.00  0.00    +0.000 A 
ATOM     22  C   UNL     1       5.158  -2.064   2.757  0.00  0.00    +0.000 A 
ATOM     23  N   UNL     1       4.499  -1.712   3.881  0.00  0.00    +0.000 NA
ATOM     24  C   UNL     1       4.189  -0.394   4.011  0.00  0.00    +0.000 A 
BRANCH  19  26
ATOM     25  N   UNL     1       3.944   2.804   2.222  0.00  0.00    +0.000 N 
ATOM     26  C   UNL     1       4.099   1.981   3.304  0.00  0.00    +0.000 C 
ATOM     27  O   UNL     1       3.918   2.398   4.441  0.00  0.00    +0.000 OA
ATOM     28  H   UNL     1       3.631   3.749   2.410  0.00  0.00    +0.000 HD
ATOM     29  H   UNL     1       3.859   2.462   1.274  0.00  0.00    +0.000 HD
ENDBRANCH  19  26
ENDBRANCH  18  22
ENDBRANCH   1  18
TORSDOF 6
