REMARK  Name = 
REMARK  5 active torsions:
REMARK  status: ('A' for Active; 'I' for Inactive)
REMARK    1  A    between atoms: C_2  and  C_4
REMARK    2  A    between atoms: C_7  and  N_8
REMARK    3  A    between atoms: N_8  and  C_9
REMARK    4  A    between atoms: C_9  and  C_10
REMARK    5  A    between atoms: C_14  and  N_15
REMARK                            x       y       z     vdW  Elec       q    Type
REMARK                         _______ _______ _______ _____ _____    ______ ____
ROOT
ATOM      1  N   UNL     1       4.228  -3.817  -3.913  0.00  0.00    +0.000 N 
ATOM      2  H   UNL     1       3.851  -4.750  -4.082  0.00  0.00    +0.000 HD
ENDROOT
BRANCH   1   6
ATOM      3  C   UNL     1       1.914  -1.504  -1.351  0.00  0.00    +0.000 A 
ATOM      4  C   UNL     1       2.828  -0.847  -2.160  0.00  0.00    +0.000 A 
ATOM      5  C   UNL     1       3.592  -1.607  -3.048  0.00  0.00    +0.000 A 
ATOM      6  C   UNL     1       3.421  -2.991  -3.133  0.00  0.00    +0.000 A 
ATOM      7  C   UNL     1       2.490  -3.544  -2.246  0.00  0.00    +0.000 A 
ATOM      8  N   UNL     1       1.720  -2.850  -1.370  0.00  0.00    +0.000 NA
BRANCH   3  10
ATOM      9  N   UNL     1       0.264  -1.462   0.423  0.00  0.00    +0.000 N 
ATOM     10  C   UNL     1       1.092  -0.721  -0.375  0.00  0.00    +0.000 C 
ATOM     11  O   UNL     1       1.154   0.498  -0.284  0.00  0.00    +0.000 OA
ATOM     12  H   UNL     1      -0.301  -1.002   1.121  0.00  0.00    +0.000 HD
ATOM     13  H   UNL     1       0.260  -2.472   0.334  0.00  0.00    +0.000 HD
ENDBRANCH   3  10
ENDBRANCH   1   6
BRANCH   1  14
ATOM     14  C   UNL     1       4.845  -3.295  -5.142  0.00  0.00    +0.000 C 
BRANCH  14  15
ATOM     15  C   UNL     1       5.643  -4.365  -5.877  0.00  0.00    +0.000 A 
ATOM     16  N   UNL     1       6.720  -3.957  -6.570  0.00  0.00    +0.000 NA
ATOM     17  C   UNL     1       7.382  -4.916  -7.226  0.00  0.00    +0.000 A 
ATOM     18  C   UNL     1       7.006  -6.241  -7.223  0.00  0.00    +0.000 A 
ATOM     19  C   UNL     1       5.876  -6.593  -6.506  0.00  0.00    +0.000 A 
ATOM     20  N   UNL     1       5.191  -5.642  -5.840  0.00  0.00    +0.000 NA
BRANCH  19  21
ATOM     21  N   UNL     1       5.366  -7.879  -6.534  0.00  0.00    +0.000 N 
ATOM     22  C   UNL     1       6.196  -9.068  -6.789  0.00  0.00    +0.000 C 
ATOM     23  C   UNL     1       5.318 -10.160  -7.427  0.00  0.00    +0.000 C 
ATOM     24  O   UNL     1       4.182 -10.475  -6.606  0.00  0.00    +0.000 OA
ATOM     25  C   UNL     1       3.380  -9.301  -6.389  0.00  0.00    +0.000 C 
ATOM     26  C   UNL     1       4.187  -8.184  -5.704  0.00  0.00    +0.000 C 
ENDBRANCH  19  21
ENDBRANCH  14  15
ENDBRANCH   1  14
TORSDOF 5
