REMARK  Name = 
REMARK  8 active torsions:
REMARK  status: ('A' for Active; 'I' for Inactive)
REMARK    1  A    between atoms: C_1  and  C_2
REMARK    2  A    between atoms: C_2  and  C_3
REMARK    3  A    between atoms: C_2  and  C_4
REMARK    4  A    between atoms: C_2  and  C_5
REMARK    5  A    between atoms: C_7  and  C_8
REMARK    6  A    between atoms: C_8  and  N_9
REMARK    7  A    between atoms: C_14  and  C_15
REMARK    8  A    between atoms: C_15  and  O_17
REMARK                            x       y       z     vdW  Elec       q    Type
REMARK                         _______ _______ _______ _____ _____    ______ ____
ROOT
ATOM      1  N   UNL     1       6.109  -1.008  -4.765  0.00  0.00    +0.000 N 
ATOM      2  C   UNL     1       6.922   0.097  -4.618  0.00  0.00    +0.000 A 
ATOM      3  C   UNL     1       8.192  -0.425  -4.521  0.00  0.00    +0.000 A 
ATOM      4  C   UNL     1       8.182  -1.511  -5.409  0.00  0.00    +0.000 A 
ATOM      5  C   UNL     1       9.115  -2.172  -6.203  0.00  0.00    +0.000 A 
ATOM      6  C   UNL     1       8.630  -3.279  -6.926  0.00  0.00    +0.000 A 
ATOM      7  C   UNL     1       7.345  -3.752  -6.677  0.00  0.00    +0.000 A 
ATOM      8  N   UNL     1       6.414  -3.131  -5.914  0.00  0.00    +0.000 NA
ATOM      9  C   UNL     1       6.865  -1.986  -5.375  0.00  0.00    +0.000 A 
ENDROOT
BRANCH   6  10
ATOM     10  C   UNL     1       9.451  -3.919  -7.991  0.00  0.00    +0.000 C 
ATOM     11  O   UNL     1       9.474  -5.137  -8.154  0.00  0.00    +0.000 OA
BRANCH  10  12
ATOM     12  O   UNL     1      10.029  -3.006  -8.798  0.00  0.00    +0.000 OA
ATOM     13  H   UNL     1       9.767  -2.074  -8.643  0.00  0.00    +0.000 HD
ENDBRANCH  10  12
ENDBRANCH   6  10
BRANCH   1  14
ATOM     14  C   UNL     1       4.660  -0.932  -4.719  0.00  0.00    +0.000 C 
BRANCH  14  17
ATOM     15  C   UNL     1       3.108  -0.916  -1.213  0.00  0.00    +0.000 A 
ATOM     16  C   UNL     1       3.725  -0.456  -2.376  0.00  0.00    +0.000 A 
ATOM     17  C   UNL     1       4.086  -1.374  -3.384  0.00  0.00    +0.000 A 
ATOM     18  C   UNL     1       3.762  -2.715  -3.208  0.00  0.00    +0.000 A 
ATOM     19  C   UNL     1       3.111  -3.086  -2.052  0.00  0.00    +0.000 A 
ATOM     20  N   UNL     1       2.755  -2.220  -1.080  0.00  0.00    +0.000 NA
BRANCH  15  22
ATOM     21  C   UNL     1       1.179   0.467  -0.348  0.00  0.00    +0.000 C 
ATOM     22  C   UNL     1       2.629   0.013  -0.077  0.00  0.00    +0.000 C 
ATOM     23  C   UNL     1       3.508   1.264   0.109  0.00  0.00    +0.000 C 
ATOM     24  C   UNL     1       2.645  -0.754   1.268  0.00  0.00    +0.000 C 
ENDBRANCH  15  22
ENDBRANCH  14  17
ENDBRANCH   1  14
TORSDOF 5
