REMARK  Name = 
REMARK  10 active torsions:
REMARK  status: ('A' for Active; 'I' for Inactive)
REMARK    1  A    between atoms: C_1  and  C_2
REMARK    2  A    between atoms: C_4  and  S_5
REMARK    3  A    between atoms: S_5  and  C_6
REMARK    4  A    between atoms: C_11  and  O_12
REMARK    5  A    between atoms: O_12  and  C_13
REMARK    6  A    between atoms: C_13  and  C_14
REMARK    7  A    between atoms: C_14  and  C_15
REMARK    8  A    between atoms: C_14  and  C_16
REMARK    9  A    between atoms: C_14  and  C_17
REMARK   10  A    between atoms: C_21  and  C_22
REMARK                            x       y       z     vdW  Elec       q    Type
REMARK                         _______ _______ _______ _____ _____    ______ ____
ROOT
ATOM      1  C   UNL     1       2.633  -4.115   0.120  0.00  0.00    +0.000 C 
ATOM      2  C   UNL     1       4.186  -4.117   0.168  0.00  0.00    +0.000 C 
ATOM      3  C   UNL     1       2.206  -4.825  -1.182  0.00  0.00    +0.000 C 
ENDROOT
BRANCH   1   4
ATOM      4  C   UNL     1       2.071  -4.854   1.339  0.00  0.00    +0.000 A 
ATOM      5  C   UNL     1       0.696  -5.028   1.517  0.00  0.00    +0.000 A 
ATOM      6  C   UNL     1       0.222  -5.717   2.633  0.00  0.00    +0.000 A 
ATOM      7  C   UNL     1       1.124  -6.235   3.550  0.00  0.00    +0.000 A 
ATOM      8  C   UNL     1       2.473  -6.038   3.309  0.00  0.00    +0.000 A 
ATOM      9  N   UNL     1       2.962  -5.360   2.231  0.00  0.00    +0.000 NA
BRANCH   8  10
ATOM     10  C   UNL     1       3.486  -6.586   4.268  0.00  0.00    +0.000 C 
ATOM     11  N   UNL     1       4.792  -6.345   3.947  0.00  0.00    +0.000 N 
ATOM     12  O   UNL     1       3.174  -7.210   5.275  0.00  0.00    +0.000 OA
ATOM     13  H   UNL     1       5.016  -5.833   3.101  0.00  0.00    +0.000 HD
ATOM     14  H   UNL     1       5.525  -6.692   4.551  0.00  0.00    +0.000 HD
ENDBRANCH   8  10
ENDBRANCH   1   4
BRANCH   1  15
ATOM     15  C   UNL     1       2.198  -2.621   0.083  0.00  0.00    +0.000 C 
BRANCH  15  16
ATOM     16  O   UNL     1       0.791  -2.445  -0.107  0.00  0.00    +0.000 OA
BRANCH  16  23
ATOM     17  C   UNL     1       2.178   0.115  -1.255  0.00  0.00    +0.000 C 
ATOM     18  C   UNL     1       0.864   0.014  -0.546  0.00  0.00    +0.000 A 
ATOM     19  N   UNL     1       0.218   1.207  -0.487  0.00  0.00    +0.000 NA
ATOM     20  C   UNL     1      -1.020   1.230   0.053  0.00  0.00    +0.000 A 
ATOM     21  C   UNL     1      -1.673   0.128   0.567  0.00  0.00    +0.000 A 
ATOM     22  C   UNL     1      -0.993  -1.085   0.511  0.00  0.00    +0.000 A 
ATOM     23  C   UNL     1       0.297  -1.169  -0.045  0.00  0.00    +0.000 A 
BRANCH  20  24
ATOM     24  S   UNL     1      -1.797   2.827   0.014  0.00  0.00    +0.000 S 
ATOM     25  C   UNL     1      -0.603   3.893  -0.760  0.00  0.00    +0.000 C 
ATOM     26  O   UNL     1      -2.944   2.727  -0.869  0.00  0.00    +0.000 OA
ATOM     27  O   UNL     1      -1.951   3.259   1.392  0.00  0.00    +0.000 OA
ENDBRANCH  20  24
ENDBRANCH  16  23
ENDBRANCH  15  16
ENDBRANCH   1  15
TORSDOF 6
