REMARK  Name = 
REMARK  6 active torsions:
REMARK  status: ('A' for Active; 'I' for Inactive)
REMARK    1  A    between atoms: C_1  and  C_2
REMARK    2  A    between atoms: C_6  and  C_7
REMARK    3  A    between atoms: C_7  and  C_8
REMARK    4  A    between atoms: C_11  and  C_12
REMARK    5  A    between atoms: C_12  and  N_13
REMARK    6  A    between atoms: C_14  and  C_16
REMARK                            x       y       z     vdW  Elec       q    Type
REMARK                         _______ _______ _______ _____ _____    ______ ____
ROOT
ATOM      1  C   UNL     1      -7.411   2.012  -0.028  0.00  0.00    +0.000 C 
ENDROOT
BRANCH   1   5
ATOM      2  C   UNL     1      -3.166   2.457   0.046  0.00  0.00    +0.000 A 
ATOM      3  C   UNL     1      -3.812   1.866   1.133  0.00  0.00    +0.000 A 
ATOM      4  C   UNL     1      -5.193   1.702   1.115  0.00  0.00    +0.000 A 
ATOM      5  C   UNL     1      -5.913   2.192   0.030  0.00  0.00    +0.000 A 
ATOM      6  N   UNL     1      -5.314   2.818  -1.016  0.00  0.00    +0.000 NA
ATOM      7  C   UNL     1      -3.964   2.927  -0.990  0.00  0.00    +0.000 A 
BRANCH   2   8
ATOM      8  C   UNL     1      -1.662   2.499  -0.029  0.00  0.00    +0.000 C 
BRANCH   8  14
ATOM      9  C   UNL     1       1.142   0.888  -3.674  0.00  0.00    +0.000 C 
ATOM     10  C   UNL     1       0.341   0.551  -2.452  0.00  0.00    +0.000 A 
ATOM     11  C   UNL     1       0.239  -0.763  -2.013  0.00  0.00    +0.000 A 
ATOM     12  C   UNL     1      -0.554  -1.035  -0.907  0.00  0.00    +0.000 A 
ATOM     13  C   UNL     1      -1.211   0.011  -0.265  0.00  0.00    +0.000 A 
ATOM     14  C   UNL     1      -1.042   1.312  -0.740  0.00  0.00    +0.000 A 
ATOM     15  N   UNL     1      -0.277   1.584  -1.828  0.00  0.00    +0.000 NA
ENDBRANCH   8  14
ENDBRANCH   2   8
ENDBRANCH   1   5
BRANCH   1  16
ATOM     16  N   UNL     1      -7.799   0.788  -0.693  0.00  0.00    +0.000 N 
ATOM     17  C   UNL     1      -8.091  -0.363  -0.012  0.00  0.00    +0.000 C 
ATOM     18  O   UNL     1      -8.031  -0.432   1.214  0.00  0.00    +0.000 OA
ATOM     19  H   UNL     1      -7.585   0.740  -1.685  0.00  0.00    +0.000 HD
BRANCH  17  20
ATOM     20  C   UNL     1      -8.552  -1.502  -0.819  0.00  0.00    +0.000 A 
ATOM     21  C   UNL     1      -9.378  -2.462  -0.252  0.00  0.00    +0.000 A 
ATOM     22  S   UNL     1      -9.816  -3.710  -1.332  0.00  0.00    +0.000 S 
ATOM     23  C   UNL     1      -8.892  -3.025  -2.584  0.00  0.00    +0.000 A 
ATOM     24  N   UNL     1      -8.804  -3.625  -3.800  0.00  0.00    +0.000 NA
ATOM     25  C   UNL     1      -8.049  -3.005  -4.651  0.00  0.00    +0.000 A 
ATOM     26  N   UNL     1      -7.391  -1.831  -4.397  0.00  0.00    +0.000 N 
ATOM     27  C   UNL     1      -7.494  -1.163  -3.200  0.00  0.00    +0.000 A 
ATOM     28  O   UNL     1      -6.972  -0.067  -3.036  0.00  0.00    +0.000 OA
ATOM     29  C   UNL     1      -8.291  -1.838  -2.196  0.00  0.00    +0.000 A 
ATOM     30  H   UNL     1      -6.842  -1.383  -5.116  0.00  0.00    +0.000 HD
ENDBRANCH  17  20
ENDBRANCH   1  16
TORSDOF 5
