REMARK  Name = 
REMARK  4 active torsions:
REMARK  status: ('A' for Active; 'I' for Inactive)
REMARK    1  A    between atoms: N_1  and  C_2
REMARK    2  A    between atoms: C_2  and  C_3
REMARK    3  A    between atoms: C_6  and  C_7
REMARK    4  A    between atoms: C_7  and  N_8
REMARK                            x       y       z     vdW  Elec       q    Type
REMARK                         _______ _______ _______ _____ _____    ______ ____
ROOT
ATOM      1  C   UNL     1       3.134  -1.207  -0.399  0.00  0.00    +0.000 A 
ATOM      2  C   UNL     1       3.070  -1.904  -1.615  0.00  0.00    +0.000 A 
ATOM      3  C   UNL     1       3.519  -3.225  -1.709  0.00  0.00    +0.000 A 
ATOM      4  C   UNL     1       4.042  -3.881  -0.586  0.00  0.00    +0.000 A 
ATOM      5  C   UNL     1       4.095  -3.189   0.631  0.00  0.00    +0.000 A 
ATOM      6  C   UNL     1       3.646  -1.867   0.725  0.00  0.00    +0.000 A 
ENDROOT
BRANCH   1   7
ATOM      7  C   UNL     1       2.725   0.244  -0.322  0.00  0.00    +0.000 C 
BRANCH   7   8
ATOM      8  N   UNL     1       1.338   0.451  -0.721  0.00  0.00    +0.000 NA
ATOM      9  H   UNL     1       1.115   1.440  -0.633  0.00  0.00    +0.000 HD
ATOM     10  H   UNL     1       0.735  -0.038  -0.060  0.00  0.00    +0.000 HD
ENDBRANCH   7   8
ENDBRANCH   1   7
BRANCH   4  11
ATOM     11  C   UNL     1       4.567  -5.294  -0.682  0.00  0.00    +0.000 C 
BRANCH  11  12
ATOM     12  N   UNL     1       5.986  -5.322  -1.007  0.00  0.00    +0.000 N 
ATOM     13  C   UNL     1       6.508  -5.447  -2.274  0.00  0.00    +0.000 A 
ATOM     14  C   UNL     1       7.883  -5.410  -2.173  0.00  0.00    +0.000 A 
ATOM     15  C   UNL     1       8.210  -5.278  -0.798  0.00  0.00    +0.000 A 
ATOM     16  C   UNL     1       9.401  -5.167  -0.062  0.00  0.00    +0.000 A 
ATOM     17  C   UNL     1       9.298  -5.053   1.324  0.00  0.00    +0.000 A 
ATOM     18  C   UNL     1       8.038  -5.076   1.908  0.00  0.00    +0.000 A 
ATOM     19  N   UNL     1       6.862  -5.183   1.250  0.00  0.00    +0.000 NA
ATOM     20  C   UNL     1       7.009  -5.263  -0.090  0.00  0.00    +0.000 A 
ENDBRANCH  11  12
ENDBRANCH   4  11
TORSDOF 4
