REMARK  Name = 
REMARK  7 active torsions:
REMARK  status: ('A' for Active; 'I' for Inactive)
REMARK    1  A    between atoms: C_1  and  C_2
REMARK    2  A    between atoms: C_2  and  C_3
REMARK    3  A    between atoms: C_2  and  C_15
REMARK    4  A    between atoms: C_3  and  O_4
REMARK    5  A    between atoms: O_4  and  C_5
REMARK    6  A    between atoms: C_8  and  C_9
REMARK    7  A    between atoms: C_19  and  C_20
REMARK                            x       y       z     vdW  Elec       q    Type
REMARK                         _______ _______ _______ _____ _____    ______ ____
ROOT
ATOM      1  O   UNL     1       2.586  -0.225   2.497  0.00  0.00    +0.000 OA
ENDROOT
BRANCH   1   2
ATOM      2  C   UNL     1       3.104  -0.681   3.673  0.00  0.00    +0.000 A 
ATOM      3  C   UNL     1       4.027  -1.717   3.814  0.00  0.00    +0.000 A 
ATOM      4  C   UNL     1       4.507  -2.059   5.081  0.00  0.00    +0.000 A 
ATOM      5  C   UNL     1       4.066  -1.371   6.220  0.00  0.00    +0.000 A 
ATOM      6  C   UNL     1       3.125  -0.354   6.066  0.00  0.00    +0.000 A 
ATOM      7  F   UNL     1       2.660   0.331   7.123  0.00  0.00    +0.000 F 
ATOM      8  C   UNL     1       2.644  -0.011   4.806  0.00  0.00    +0.000 A 
BRANCH   5   9
ATOM      9  C   UNL     1       4.640  -1.752   7.536  0.00  0.00    +0.000 C 
ATOM     10  N   UNL     1       4.215  -1.076   8.642  0.00  0.00    +0.000 N 
ATOM     11  O   UNL     1       5.477  -2.641   7.630  0.00  0.00    +0.000 OA
ATOM     12  H   UNL     1       3.531  -0.330   8.606  0.00  0.00    +0.000 HD
ATOM     13  H   UNL     1       4.617  -1.325   9.535  0.00  0.00    +0.000 HD
ENDBRANCH   5   9
ENDBRANCH   1   2
BRANCH   1  14
ATOM     14  C   UNL     1       3.050  -0.845   1.299  0.00  0.00    +0.000 C 
BRANCH  14  16
ATOM     15  C   UNL     1       2.624   1.194  -0.195  0.00  0.00    +0.000 C 
ATOM     16  C   UNL     1       2.307  -0.227   0.154  0.00  0.00    +0.000 C 
BRANCH  16  17
ATOM     17  C   UNL     1       1.019  -0.796  -0.271  0.00  0.00    +0.000 A 
ATOM     18  C   UNL     1       0.156  -1.389   0.661  0.00  0.00    +0.000 A 
ATOM     19  C   UNL     1      -1.076  -1.913   0.266  0.00  0.00    +0.000 A 
ATOM     20  C   UNL     1      -1.456  -1.857  -1.072  0.00  0.00    +0.000 A 
ATOM     21  C   UNL     1      -0.602  -1.276  -2.016  0.00  0.00    +0.000 A 
ATOM     22  C   UNL     1       0.631  -0.747  -1.613  0.00  0.00    +0.000 A 
BRANCH  21  23
ATOM     23  C   UNL     1      -0.989  -1.223  -3.392  0.00  0.00    +0.000 C 
ATOM     24  N   UNL     1      -1.303  -1.180  -4.510  0.00  0.00    +0.000 NA
ENDBRANCH  21  23
ENDBRANCH  16  17
ENDBRANCH  14  16
ENDBRANCH   1  14
TORSDOF 6
