REMARK  Name = 
REMARK  7 active torsions:
REMARK  status: ('A' for Active; 'I' for Inactive)
REMARK    1  A    between atoms: C_1  and  O_2
REMARK    2  A    between atoms: O_2  and  C_3
REMARK    3  A    between atoms: C_7  and  C_8
REMARK    4  A    between atoms: C_12  and  C_13
REMARK    5  A    between atoms: C_13  and  N_14
REMARK    6  A    between atoms: N_14  and  C_15
REMARK    7  A    between atoms: C_18  and  C_19
REMARK                            x       y       z     vdW  Elec       q    Type
REMARK                         _______ _______ _______ _____ _____    ______ ____
ROOT
ATOM      1  C   UNL     1       2.554  -6.574  -5.168  0.00  0.00    +0.000 C 
ATOM      2  C   UNL     1       1.127  -6.929  -5.526  0.00  0.00    +0.000 C 
ATOM      3  C   UNL     1       1.611  -7.231  -4.156  0.00  0.00    +0.000 C 
ENDROOT
BRANCH   1   8
ATOM      4  C   UNL     1       3.438  -3.113  -3.677  0.00  0.00    +0.000 A 
ATOM      5  C   UNL     1       3.479  -2.336  -4.847  0.00  0.00    +0.000 A 
ATOM      6  C   UNL     1       3.219  -2.907  -6.096  0.00  0.00    +0.000 A 
ATOM      7  C   UNL     1       2.913  -4.264  -6.197  0.00  0.00    +0.000 A 
ATOM      8  C   UNL     1       2.855  -5.082  -5.061  0.00  0.00    +0.000 A 
ATOM      9  C   UNL     1       3.127  -4.478  -3.819  0.00  0.00    +0.000 A 
BRANCH   4  14
ATOM     10  C   UNL     1       4.455  -2.732  -0.035  0.00  0.00    +0.000 A 
ATOM     11  C   UNL     1       3.973  -1.449   0.183  0.00  0.00    +0.000 A 
ATOM     12  N   UNL     1       3.394  -0.684  -0.769  0.00  0.00    +0.000 NA
ATOM     13  C   UNL     1       3.262  -1.246  -1.995  0.00  0.00    +0.000 A 
ATOM     14  C   UNL     1       3.679  -2.535  -2.338  0.00  0.00    +0.000 A 
ATOM     15  C   UNL     1       4.304  -3.270  -1.312  0.00  0.00    +0.000 A 
BRANCH  10  17
ATOM     16  C   UNL     1       5.955  -4.383   0.742  0.00  0.00    +0.000 C 
ATOM     17  O   UNL     1       4.994  -3.375   1.040  0.00  0.00    +0.000 OA
ENDBRANCH  10  17
ENDBRANCH   4  14
ENDBRANCH   1   8
BRANCH   1  18
ATOM     18  N   UNL     1       3.781  -7.354  -5.358  0.00  0.00    +0.000 N 
ATOM     19  H   UNL     1       4.568  -7.061  -4.785  0.00  0.00    +0.000 HD
BRANCH  18  20
ATOM     20  C   UNL     1       4.155  -8.230  -6.384  0.00  0.00    +0.000 A 
ATOM     21  C   UNL     1       3.361  -8.568  -7.478  0.00  0.00    +0.000 A 
ATOM     22  C   UNL     1       3.774  -9.547  -8.397  0.00  0.00    +0.000 A 
ATOM     23  C   UNL     1       5.003 -10.197  -8.233  0.00  0.00    +0.000 A 
ATOM     24  C   UNL     1       5.807  -9.870  -7.143  0.00  0.00    +0.000 A 
ATOM     25  C   UNL     1       5.383  -8.901  -6.233  0.00  0.00    +0.000 A 
BRANCH  23  26
ATOM     26  C   UNL     1       5.482 -11.257  -9.162  0.00  0.00    +0.000 C 
ATOM     27  N   UNL     1       4.990 -11.251 -10.433  0.00  0.00    +0.000 N 
ATOM     28  O   UNL     1       6.315 -12.087  -8.813  0.00  0.00    +0.000 OA
ATOM     29  H   UNL     1       4.513 -10.454 -10.826  0.00  0.00    +0.000 HD
ATOM     30  H   UNL     1       5.413 -11.909 -11.074  0.00  0.00    +0.000 HD
ENDBRANCH  23  26
ENDBRANCH  18  20
ENDBRANCH   1  18
TORSDOF 6
