REMARK  Name = 
REMARK  6 active torsions:
REMARK  status: ('A' for Active; 'I' for Inactive)
REMARK    1  A    between atoms: C_2  and  C_18
REMARK    2  A    between atoms: N_3  and  C_4
REMARK    3  A    between atoms: C_4  and  C_5
REMARK    4  A    between atoms: C_8  and  C_9
REMARK    5  A    between atoms: C_9  and  N_10
REMARK    6  A    between atoms: C_13  and  O_14
REMARK                            x       y       z     vdW  Elec       q    Type
REMARK                         _______ _______ _______ _____ _____    ______ ____
ROOT
ATOM      1  O   UNL     1       3.481   0.868   0.973  0.00  0.00    +0.000 OA
ATOM      2  C   UNL     1       3.490  -0.122   0.246  0.00  0.00    +0.000 C 
ATOM      3  N   UNL     1       2.852  -1.286   0.585  0.00  0.00    +0.000 N 
ATOM      4  H   UNL     1       3.004  -2.118   0.024  0.00  0.00    +0.000 HD
ENDROOT
BRANCH   2   5
ATOM      5  C   UNL     1       4.165  -0.101  -1.059  0.00  0.00    +0.000 A 
ATOM      6  C   UNL     1       4.407   1.113  -1.689  0.00  0.00    +0.000 A 
ATOM      7  S   UNL     1       5.236   0.960  -3.172  0.00  0.00    +0.000 S 
ATOM      8  C   UNL     1       5.333  -0.730  -3.006  0.00  0.00    +0.000 A 
ATOM      9  N   UNL     1       5.982  -1.489  -3.930  0.00  0.00    +0.000 NA
ATOM     10  C   UNL     1       6.014  -2.749  -3.659  0.00  0.00    +0.000 A 
ATOM     11  N   UNL     1       5.434  -3.327  -2.558  0.00  0.00    +0.000 N 
ATOM     12  C   UNL     1       4.692  -2.613  -1.647  0.00  0.00    +0.000 A 
ATOM     13  O   UNL     1       4.051  -3.177  -0.766  0.00  0.00    +0.000 OA
ATOM     14  C   UNL     1       4.694  -1.178  -1.862  0.00  0.00    +0.000 A 
ATOM     15  H   UNL     1       5.453  -4.328  -2.431  0.00  0.00    +0.000 HD
ENDBRANCH   2   5
BRANCH   3  16
ATOM     16  C   UNL     1       2.216  -1.477   1.864  0.00  0.00    +0.000 C 
BRANCH  16  17
ATOM     17  C   UNL     1       3.144  -2.109   2.858  0.00  0.00    +0.000 A 
ATOM     18  C   UNL     1       4.014  -1.335   3.630  0.00  0.00    +0.000 A 
ATOM     19  C   UNL     1       4.848  -1.949   4.562  0.00  0.00    +0.000 A 
ATOM     20  C   UNL     1       4.815  -3.334   4.687  0.00  0.00    +0.000 A 
ATOM     21  N   UNL     1       3.997  -4.112   3.929  0.00  0.00    +0.000 NA
ATOM     22  C   UNL     1       3.190  -3.488   3.038  0.00  0.00    +0.000 A 
BRANCH  20  23
ATOM     23  C   UNL     1       5.720  -4.034   5.688  0.00  0.00    +0.000 C 
BRANCH  23  24
ATOM     24  N   UNL     1       5.173  -4.153   7.059  0.00  0.00    +0.000 NA
ATOM     25  C   UNL     1       6.123  -4.854   7.938  0.00  0.00    +0.000 C 
ATOM     26  C   UNL     1       5.343  -5.903   8.723  0.00  0.00    +0.000 C 
ATOM     27  C   UNL     1       3.885  -5.604   8.438  0.00  0.00    +0.000 C 
ATOM     28  C   UNL     1       3.912  -4.923   7.072  0.00  0.00    +0.000 C 
BRANCH  27  29
ATOM     29  O   UNL     1       3.365  -4.738   9.444  0.00  0.00    +0.000 OA
ATOM     30  H   UNL     1       3.788  -3.872   9.303  0.00  0.00    +0.000 HD
ENDBRANCH  27  29
ENDBRANCH  23  24
ENDBRANCH  20  23
ENDBRANCH  16  17
ENDBRANCH   3  16
TORSDOF 6
