REMARK  Name = 
REMARK  9 active torsions:
REMARK  status: ('A' for Active; 'I' for Inactive)
REMARK    1  A    between atoms: C_1  and  O_2
REMARK    2  A    between atoms: O_2  and  C_3
REMARK    3  A    between atoms: C_10  and  C_11
REMARK    4  A    between atoms: N_13  and  C_14
REMARK    5  A    between atoms: C_14  and  C_15
REMARK    6  A    between atoms: C_18  and  C_19
REMARK    7  A    between atoms: C_19  and  S_20
REMARK    8  A    between atoms: S_20  and  C_21
REMARK    9  A    between atoms: C_21  and  C_22
REMARK                            x       y       z     vdW  Elec       q    Type
REMARK                         _______ _______ _______ _____ _____    ______ ____
ROOT
ATOM      1  C   UNL     1       3.003   0.044   3.423  0.00  0.00    +0.000 C 
ENDROOT
BRANCH   1   2
ATOM      2  C   UNL     1       1.893   1.061   3.357  0.00  0.00    +0.000 A 
ATOM      3  C   UNL     1       0.552   0.657   3.359  0.00  0.00    +0.000 A 
ATOM      4  C   UNL     1      -0.476   1.602   3.288  0.00  0.00    +0.000 A 
ATOM      5  C   UNL     1      -0.188   2.973   3.221  0.00  0.00    +0.000 A 
ATOM      6  C   UNL     1       1.156   3.371   3.179  0.00  0.00    +0.000 A 
ATOM      7  C   UNL     1       2.184   2.427   3.242  0.00  0.00    +0.000 A 
BRANCH   5   8
ATOM      8  C   UNL     1      -1.286   4.006   3.144  0.00  0.00    +0.000 C 
BRANCH   8   9
ATOM      9  S   UNL     1      -2.509   3.921   4.485  0.00  0.00    +0.000 S 
BRANCH   9  10
ATOM     10  C   UNL     1      -1.430   4.250   5.928  0.00  0.00    +0.000 C 
BRANCH  10  11
ATOM     11  C   UNL     1      -2.205   4.229   7.230  0.00  0.00    +0.000 A 
ATOM     12  C   UNL     1      -2.851   3.065   7.651  0.00  0.00    +0.000 A 
ATOM     13  C   UNL     1      -3.573   3.082   8.841  0.00  0.00    +0.000 A 
ATOM     14  C   UNL     1      -3.620   4.249   9.591  0.00  0.00    +0.000 A 
ATOM     15  C   UNL     1      -2.936   5.355   9.118  0.00  0.00    +0.000 A 
ATOM     16  N   UNL     1      -2.231   5.372   7.963  0.00  0.00    +0.000 NA
ENDBRANCH  10  11
ENDBRANCH   9  10
ENDBRANCH   8   9
ENDBRANCH   5   8
ENDBRANCH   1   2
BRANCH   1  19
ATOM     17  C   UNL     1       4.339  -1.347   1.902  0.00  0.00    +0.000 C 
ATOM     18  O   UNL     1       4.899  -1.893   2.850  0.00  0.00    +0.000 OA
ATOM     19  N   UNL     1       3.394  -0.379   2.103  0.00  0.00    +0.000 N 
ATOM     20  H   UNL     1       2.973   0.093   1.315  0.00  0.00    +0.000 HD
BRANCH  17  28
ATOM     21  C   UNL     1       3.071  -0.379  -1.151  0.00  0.00    +0.000 A 
ATOM     22  N   UNL     1       2.789  -0.168  -2.453  0.00  0.00    +0.000 NA
ATOM     23  C   UNL     1       3.501  -0.834  -3.366  0.00  0.00    +0.000 A 
ATOM     24  N   UNL     1       4.478  -1.707  -3.139  0.00  0.00    +0.000 NA
ATOM     25  C   UNL     1       4.733  -1.882  -1.831  0.00  0.00    +0.000 A 
ATOM     26  S   UNL     1       5.948  -2.968  -1.355  0.00  0.00    +0.000 S 
ATOM     27  C   UNL     1       5.668  -2.637   0.287  0.00  0.00    +0.000 A 
ATOM     28  C   UNL     1       4.662  -1.704   0.511  0.00  0.00    +0.000 A 
ATOM     29  C   UNL     1       4.096  -1.260  -0.762  0.00  0.00    +0.000 A 
BRANCH  21  31
ATOM     30  C   UNL     1       1.074   0.747  -0.681  0.00  0.00    +0.000 C 
ATOM     31  O   UNL     1       2.353   0.328  -0.210  0.00  0.00    +0.000 OA
ENDBRANCH  21  31
ENDBRANCH  17  28
ENDBRANCH   1  19
TORSDOF 8
