REMARK  Name = 
REMARK  8 active torsions:
REMARK  status: ('A' for Active; 'I' for Inactive)
REMARK    1  A    between atoms: C_1  and  C_2
REMARK    2  A    between atoms: C_2  and  C_3
REMARK    3  A    between atoms: C_2  and  N_4
REMARK    4  A    between atoms: C_2  and  C_5
REMARK    5  A    between atoms: C_5  and  C_6
REMARK    6  A    between atoms: C_10  and  C_11
REMARK    7  A    between atoms: C_11  and  N_12
REMARK    8  A    between atoms: C_16  and  C_17
REMARK                            x       y       z     vdW  Elec       q    Type
REMARK                         _______ _______ _______ _____ _____    ______ ____
ROOT
ATOM      1  C   UNL     1       7.433   2.278  -0.791  0.00  0.00    +0.000 C 
ENDROOT
BRANCH   1   2
ATOM      2  N   UNL     1       8.089   3.563  -0.537  0.00  0.00    +0.000 N 
ATOM      3  C   UNL     1       8.860   4.096  -1.555  0.00  0.00    +0.000 A 
ATOM      4  C   UNL     1       9.902   4.756  -0.965  0.00  0.00    +0.000 A 
ATOM      5  C   UNL     1       9.617   4.856   0.425  0.00  0.00    +0.000 A 
ATOM      6  C   UNL     1      10.290   5.437   1.513  0.00  0.00    +0.000 A 
ATOM      7  N   UNL     1       9.695   5.509   2.743  0.00  0.00    +0.000 NA
ATOM      8  C   UNL     1       8.455   4.985   2.877  0.00  0.00    +0.000 A 
ATOM      9  C   UNL     1       7.751   4.307   1.888  0.00  0.00    +0.000 A 
ATOM     10  C   UNL     1       8.389   4.223   0.642  0.00  0.00    +0.000 A 
BRANCH   6  11
ATOM     11  C   UNL     1      11.680   5.966   1.358  0.00  0.00    +0.000 C 
ATOM     12  N   UNL     1      12.243   6.512   2.477  0.00  0.00    +0.000 N 
ATOM     13  O   UNL     1      12.318   5.906   0.313  0.00  0.00    +0.000 OA
ATOM     14  H   UNL     1      11.736   6.516   3.352  0.00  0.00    +0.000 HD
ATOM     15  H   UNL     1      13.198   6.835   2.423  0.00  0.00    +0.000 HD
ENDBRANCH   6  11
ENDBRANCH   1   2
BRANCH   1  20
ATOM     16  C   UNL     1       4.475   0.960   1.168  0.00  0.00    +0.000 A 
ATOM     17  C   UNL     1       5.172   0.328   2.193  0.00  0.00    +0.000 A 
ATOM     18  N   UNL     1       6.516   0.331   2.309  0.00  0.00    +0.000 NA
ATOM     19  C   UNL     1       7.211   0.979   1.350  0.00  0.00    +0.000 A 
ATOM     20  C   UNL     1       6.617   1.662   0.292  0.00  0.00    +0.000 A 
ATOM     21  C   UNL     1       5.226   1.647   0.210  0.00  0.00    +0.000 A 
BRANCH  16  22
ATOM     22  C   UNL     1       2.974   0.900   1.080  0.00  0.00    +0.000 C 
BRANCH  22  24
ATOM     23  C   UNL     1       0.703   1.789   1.637  0.00  0.00    +0.000 C 
ATOM     24  C   UNL     1       2.210   2.027   1.824  0.00  0.00    +0.000 C 
ATOM     25  C   UNL     1       2.567   3.421   1.281  0.00  0.00    +0.000 C 
BRANCH  24  26
ATOM     26  N   UNL     1       2.495   1.986   3.266  0.00  0.00    +0.000 NA
ATOM     27  H   UNL     1       1.931   2.687   3.752  0.00  0.00    +0.000 HD
ATOM     28  H   UNL     1       3.466   2.253   3.435  0.00  0.00    +0.000 HD
ENDBRANCH  24  26
ENDBRANCH  22  24
ENDBRANCH  16  22
ENDBRANCH   1  20
TORSDOF 6
