REMARK  Name = 
REMARK  6 active torsions:
REMARK  status: ('A' for Active; 'I' for Inactive)
REMARK    1  A    between atoms: C_2  and  C_25
REMARK    2  A    between atoms: N_3  and  C_4
REMARK    3  A    between atoms: C_4  and  C_5
REMARK    4  A    between atoms: C_8  and  C_9
REMARK    5  A    between atoms: C_9  and  N_10
REMARK    6  A    between atoms: C_11  and  C_13
REMARK                            x       y       z     vdW  Elec       q    Type
REMARK                         _______ _______ _______ _____ _____    ______ ____
ROOT
ATOM      1  C   UNL     1       3.264   0.410   3.647  0.00  0.00    +0.000 A 
ATOM      2  C   UNL     1       3.620   1.685   4.111  0.00  0.00    +0.000 A 
ATOM      3  C   UNL     1       4.485   1.833   5.201  0.00  0.00    +0.000 A 
ATOM      4  C   UNL     1       5.031   0.711   5.838  0.00  0.00    +0.000 A 
ATOM      5  C   UNL     1       4.675  -0.563   5.374  0.00  0.00    +0.000 A 
ATOM      6  C   UNL     1       3.811  -0.712   4.283  0.00  0.00    +0.000 A 
ENDROOT
BRANCH   1   7
ATOM      7  C   UNL     1       2.310   0.251   2.492  0.00  0.00    +0.000 C 
BRANCH   7  10
ATOM      8  O   UNL     1       1.071  -0.094   0.032  0.00  0.00    +0.000 OA
ATOM      9  C   UNL     1       2.285   0.093   0.050  0.00  0.00    +0.000 C 
ATOM     10  N   UNL     1       2.989   0.256   1.220  0.00  0.00    +0.000 N 
ATOM     11  H   UNL     1       3.956   0.546   1.188  0.00  0.00    +0.000 HD
BRANCH   9  12
ATOM     12  C   UNL     1       3.064   0.171  -1.158  0.00  0.00    +0.000 A 
ATOM     13  C   UNL     1       4.420   0.251  -1.409  0.00  0.00    +0.000 A 
ATOM     14  C   UNL     1       4.531   0.290  -2.813  0.00  0.00    +0.000 A 
ATOM     15  N   UNL     1       3.346   0.241  -3.418  0.00  0.00    +0.000 NA
ATOM     16  N   UNL     1       2.475   0.158  -2.397  0.00  0.00    +0.000 N 
ATOM     17  H   UNL     1       1.481   0.099  -2.600  0.00  0.00    +0.000 HD
ENDBRANCH   9  12
ENDBRANCH   7  10
ENDBRANCH   1   7
BRANCH   4  18
ATOM     18  C   UNL     1       5.952   0.861   7.022  0.00  0.00    +0.000 C 
BRANCH  18  19
ATOM     19  N   UNL     1       5.220   0.864   8.264  0.00  0.00    +0.000 N 
ATOM     20  C   UNL     1       5.855   1.069   9.463  0.00  0.00    +0.000 C 
ATOM     21  O   UNL     1       7.058   1.309   9.529  0.00  0.00    +0.000 OA
ATOM     22  H   UNL     1       4.295   0.445   8.255  0.00  0.00    +0.000 HD
BRANCH  20  23
ATOM     23  C   UNL     1       5.013   1.048  10.667  0.00  0.00    +0.000 A 
ATOM     24  C   UNL     1       5.438   1.702  11.816  0.00  0.00    +0.000 A 
ATOM     25  S   UNL     1       4.320   1.624  13.102  0.00  0.00    +0.000 S 
ATOM     26  C   UNL     1       3.252   0.667  12.187  0.00  0.00    +0.000 A 
ATOM     27  N   UNL     1       2.082   0.221  12.719  0.00  0.00    +0.000 NA
ATOM     28  C   UNL     1       1.385  -0.523  11.927  0.00  0.00    +0.000 A 
ATOM     29  N   UNL     1       1.748  -0.856  10.648  0.00  0.00    +0.000 N 
ATOM     30  C   UNL     1       2.904  -0.403  10.058  0.00  0.00    +0.000 A 
ATOM     31  O   UNL     1       3.179  -0.683   8.896  0.00  0.00    +0.000 OA
ATOM     32  C   UNL     1       3.733   0.427  10.912  0.00  0.00    +0.000 A 
ATOM     33  H   UNL     1       1.153  -1.435  10.075  0.00  0.00    +0.000 HD
ENDBRANCH  20  23
ENDBRANCH  18  19
ENDBRANCH   4  18
TORSDOF 6
