REMARK  Name = 
REMARK  6 active torsions:
REMARK  status: ('A' for Active; 'I' for Inactive)
REMARK    1  A    between atoms: C_1  and  C_2
REMARK    2  A    between atoms: C_4  and  C_5
REMARK    3  A    between atoms: C_10  and  C_11
REMARK    4  A    between atoms: C_11  and  C_12
REMARK    5  A    between atoms: CA_16  and  C_17
REMARK    6  A    between atoms: C_17  and  O_18
REMARK                            x       y       z     vdW  Elec       q    Type
REMARK                         _______ _______ _______ _____ _____    ______ ____
ROOT
ATOM      1  C   UNL     1       1.195  -0.024  -1.947  0.00  0.00    +0.000 C 
ATOM      2  C   UNL     1       0.562   0.191  -0.603  0.00  0.00    +0.000 A 
ATOM      3  C   UNL     1      -0.003   1.443  -0.292  0.00  0.00    +0.000 A 
ATOM      4  C   UNL     1      -0.656   1.640   0.926  0.00  0.00    +0.000 A 
ATOM      5  C   UNL     1      -0.666   0.584   1.818  0.00  0.00    +0.000 A 
ATOM      6  N   UNL     1      -0.116  -0.624   1.562  0.00  0.00    +0.000 NA
ATOM      7  C   UNL     1       0.447  -0.850   0.339  0.00  0.00    +0.000 A 
ENDROOT
BRANCH   4   8
ATOM      8  C   UNL     1      -1.374   2.876   1.320  0.00  0.00    +0.000 C 
ATOM      9  N   UNL     1      -1.347   3.949   0.478  0.00  0.00    +0.000 N 
ATOM     10  O   UNL     1      -1.996   2.941   2.375  0.00  0.00    +0.000 OA
ATOM     11  H   UNL     1      -0.851   3.995  -0.400  0.00  0.00    +0.000 HD
ATOM     12  H   UNL     1      -1.856   4.773   0.774  0.00  0.00    +0.000 HD
ENDBRANCH   4   8
BRANCH   7  13
ATOM     13  C   UNL     1       0.624  -2.342  -0.009  0.00  0.00    +0.000 C 
ATOM     14  C   UNL     1       1.396  -3.146   1.034  0.00  0.00    +0.000 C 
ATOM     15  C   UNL     1       1.957  -2.982  -0.342  0.00  0.00    +0.000 C 
BRANCH  13  16
ATOM     16  C   UNL     1      -0.648  -2.906  -0.652  0.00  0.00    +0.000 A 
ATOM     17  C   UNL     1      -1.859  -2.873   0.055  0.00  0.00    +0.000 A 
ATOM     18  C   UNL     1      -3.050  -3.006  -0.645  0.00  0.00    +0.000 A 
ATOM     19  N   UNL     1      -3.124  -3.223  -1.976  0.00  0.00    +0.000 NA
ATOM     20  CA  UNL     1      -1.953  -3.357  -2.641  0.00  0.00    +0.000 A 
ATOM     21  C   UNL     1      -0.713  -3.214  -2.018  0.00  0.00    +0.000 A 
BRANCH  20  22
ATOM     22  C   UNL     1      -2.022  -3.524  -4.139  0.00  0.00    +0.000 C 
BRANCH  22  23
ATOM     23  O   UNL     1      -1.807  -2.271  -4.787  0.00  0.00    +0.000 OA
ATOM     24  H   UNL     1      -2.470  -1.667  -4.406  0.00  0.00    +0.000 HD
ENDBRANCH  22  23
ENDBRANCH  20  22
ENDBRANCH  13  16
ENDBRANCH   7  13
TORSDOF 5
