REMARK  Name = 
REMARK  6 active torsions:
REMARK  status: ('A' for Active; 'I' for Inactive)
REMARK    1  A    between atoms: C_1  and  C_2
REMARK    2  A    between atoms: C_2  and  C_3
REMARK    3  A    between atoms: C_2  and  C_4
REMARK    4  A    between atoms: C_2  and  C_5
REMARK    5  A    between atoms: N_7  and  C_8
REMARK    6  A    between atoms: C_8  and  C_9
REMARK                            x       y       z     vdW  Elec       q    Type
REMARK                         _______ _______ _______ _____ _____    ______ ____
ROOT
ATOM      1  C   UNL     1       2.909  -1.431   0.570  0.00  0.00    +0.000 A 
ATOM      2  N   UNL     1       3.740  -1.519   1.620  0.00  0.00    +0.000 NA
ATOM      3  N   UNL     1       3.849  -2.842   1.861  0.00  0.00    +0.000 N 
ATOM      4  C   UNL     1       3.102  -3.619   1.017  0.00  0.00    +0.000 A 
ATOM      5  C   UNL     1       2.902  -4.992   0.934  0.00  0.00    +0.000 A 
ATOM      6  N   UNL     1       2.076  -5.481  -0.018  0.00  0.00    +0.000 NA
ATOM      7  C   UNL     1       1.479  -4.622  -0.872  0.00  0.00    +0.000 A 
ATOM      8  C   UNL     1       1.639  -3.245  -0.849  0.00  0.00    +0.000 A 
ATOM      9  C   UNL     1       2.483  -2.728   0.144  0.00  0.00    +0.000 A 
ENDROOT
BRANCH   1  11
ATOM     10  C   UNL     1       3.180   1.092   0.786  0.00  0.00    +0.000 C 
ATOM     11  C   UNL     1       2.499  -0.067   0.021  0.00  0.00    +0.000 C 
ATOM     12  C   UNL     1       0.973   0.119   0.162  0.00  0.00    +0.000 C 
ATOM     13  C   UNL     1       2.891   0.070  -1.463  0.00  0.00    +0.000 C 
ENDBRANCH   1  11
BRANCH   3  14
ATOM     14  C   UNL     1       4.644  -3.293   2.999  0.00  0.00    +0.000 C 
BRANCH  14  15
ATOM     15  C   UNL     1       6.059  -3.637   2.608  0.00  0.00    +0.000 A 
ATOM     16  C   UNL     1       6.919  -2.660   2.094  0.00  0.00    +0.000 A 
ATOM     17  C   UNL     1       8.216  -3.018   1.762  0.00  0.00    +0.000 A 
ATOM     18  N   UNL     1       8.712  -4.264   1.914  0.00  0.00    +0.000 NA
ATOM     19  C   UNL     1       7.872  -5.192   2.418  0.00  0.00    +0.000 A 
ATOM     20  C   UNL     1       6.558  -4.933   2.777  0.00  0.00    +0.000 A 
ENDBRANCH  14  15
ENDBRANCH   3  14
TORSDOF 3
