REMARK  Name = 
REMARK  9 active torsions:
REMARK  status: ('A' for Active; 'I' for Inactive)
REMARK    1  A    between atoms: C_1  and  C_2
REMARK    2  A    between atoms: N_7  and  C_8
REMARK    3  A    between atoms: C_12  and  C_13
REMARK    4  A    between atoms: C_13  and  C_14
REMARK    5  A    between atoms: C_13  and  C_15
REMARK    6  A    between atoms: C_15  and  N_16
REMARK    7  A    between atoms: N_16  and  C_17
REMARK    8  A    between atoms: C_20  and  S_21
REMARK    9  A    between atoms: S_21  and  N_22
REMARK                            x       y       z     vdW  Elec       q    Type
REMARK                         _______ _______ _______ _____ _____    ______ ____
ROOT
ATOM      1  C   UNL     1       6.752  -4.773  -0.128  0.00  0.00    +0.000 C 
ATOM      2  C   UNL     1       7.038  -6.135  -0.771  0.00  0.00    +0.000 C 
ENDROOT
BRANCH   1   7
ATOM      3  C   UNL     1       9.131  -2.376  -2.000  0.00  0.00    +0.000 A 
ATOM      4  C   UNL     1       9.904  -1.935  -0.920  0.00  0.00    +0.000 A 
ATOM      5  C   UNL     1       9.680  -2.396   0.383  0.00  0.00    +0.000 A 
ATOM      6  C   UNL     1       8.665  -3.312   0.638  0.00  0.00    +0.000 A 
ATOM      7  C   UNL     1       7.872  -3.786  -0.410  0.00  0.00    +0.000 A 
ATOM      8  C   UNL     1       8.131  -3.323  -1.711  0.00  0.00    +0.000 A 
BRANCH   3  15
ATOM      9  C   UNL     1       8.206  -2.508  -5.419  0.00  0.00    +0.000 C 
ATOM     10  C   UNL     1       8.153  -1.641  -4.160  0.00  0.00    +0.000 C 
ATOM     11  C   UNL     1       8.122  -0.134  -4.504  0.00  0.00    +0.000 C 
ATOM     12  O   UNL     1       9.365   0.332  -5.051  0.00  0.00    +0.000 OA
ATOM     13  C   UNL     1      10.424   0.130  -4.100  0.00  0.00    +0.000 C 
ATOM     14  C   UNL     1      10.597  -1.355  -3.761  0.00  0.00    +0.000 C 
ATOM     15  N   UNL     1       9.328  -1.943  -3.303  0.00  0.00    +0.000 N 
ENDBRANCH   3  15
ENDBRANCH   1   7
BRANCH   1  16
ATOM     16  C   UNL     1       5.359  -4.266  -0.575  0.00  0.00    +0.000 C 
BRANCH  16  17
ATOM     17  N   UNL     1       4.978  -2.999   0.053  0.00  0.00    +0.000 N 
ATOM     18  H   UNL     1       4.661  -2.300  -0.615  0.00  0.00    +0.000 HD
BRANCH  17  19
ATOM     19  C   UNL     1       4.345  -2.941   1.288  0.00  0.00    +0.000 A 
ATOM     20  C   UNL     1       4.405  -3.967   2.236  0.00  0.00    +0.000 A 
ATOM     21  C   UNL     1       3.841  -3.812   3.499  0.00  0.00    +0.000 A 
ATOM     22  C   UNL     1       3.221  -2.610   3.771  0.00  0.00    +0.000 A 
ATOM     23  N   UNL     1       3.120  -1.561   2.910  0.00  0.00    +0.000 NA
ATOM     24  C   UNL     1       3.710  -1.759   1.704  0.00  0.00    +0.000 A 
BRANCH  22  25
ATOM     25  S   UNL     1       2.482  -2.346   5.375  0.00  0.00    +0.000 S 
ATOM     26  O   UNL     1       1.416  -3.310   5.526  0.00  0.00    +0.000 OA
ATOM     27  O   UNL     1       3.554  -2.201   6.334  0.00  0.00    +0.000 OA
BRANCH  25  28
ATOM     28  N   UNL     1       1.755  -0.825   5.210  0.00  0.00    +0.000 NA
ATOM     29  H   UNL     1       1.135  -0.833   4.399  0.00  0.00    +0.000 HD
ATOM     30  H   UNL     1       2.488  -0.121   5.104  0.00  0.00    +0.000 HD
ENDBRANCH  25  28
ENDBRANCH  22  25
ENDBRANCH  17  19
ENDBRANCH  16  17
ENDBRANCH   1  16
TORSDOF 7
