REMARK  Name = 
REMARK  5 active torsions:
REMARK  status: ('A' for Active; 'I' for Inactive)
REMARK    1  A    between atoms: C_2  and  C_3
REMARK    2  A    between atoms: C_10  and  C_11
REMARK    3  A    between atoms: C_11  and  N_12
REMARK    4  A    between atoms: N_12  and  C_13
REMARK    5  A    between atoms: C_16  and  C_17
REMARK                            x       y       z     vdW  Elec       q    Type
REMARK                         _______ _______ _______ _____ _____    ______ ____
ROOT
ATOM      1  C   UNL     1       3.147  -5.913  -4.156  0.00  0.00    +0.000 C 
ATOM      2  C   UNL     1       3.193  -5.484  -5.609  0.00  0.00    +0.000 C 
ATOM      3  C   UNL     1       2.061  -6.337  -5.142  0.00  0.00    +0.000 C 
ENDROOT
BRANCH   1  11
ATOM      4  C   UNL     1       5.839  -1.843   0.186  0.00  0.00    +0.000 C 
ATOM      5  C   UNL     1       5.448  -0.405   0.524  0.00  0.00    +0.000 C 
ATOM      6  C   UNL     1       3.984  -0.132   0.180  0.00  0.00    +0.000 C 
ATOM      7  C   UNL     1       3.673  -0.452  -1.279  0.00  0.00    +0.000 C 
ATOM      8  N   UNL     1       4.197  -1.750  -1.699  0.00  0.00    +0.000 N 
ATOM      9  C   UNL     1       3.296  -2.788  -1.922  0.00  0.00    +0.000 A 
ATOM     10  C   UNL     1       3.624  -3.776  -2.855  0.00  0.00    +0.000 A 
ATOM     11  C   UNL     1       2.781  -4.863  -3.112  0.00  0.00    +0.000 A 
ATOM     12  C   UNL     1       1.600  -4.912  -2.370  0.00  0.00    +0.000 A 
ATOM     13  C   UNL     1       1.315  -3.882  -1.486  0.00  0.00    +0.000 A 
ATOM     14  N   UNL     1       2.124  -2.822  -1.265  0.00  0.00    +0.000 NA
ATOM     15  C   UNL     1       5.553  -2.137  -1.290  0.00  0.00    +0.000 C 
BRANCH   4  17
ATOM     16  N   UNL     1       4.716  -3.577   1.826  0.00  0.00    +0.000 NA
ATOM     17  C   UNL     1       5.186  -2.816   1.080  0.00  0.00    +0.000 C 
ENDBRANCH   4  17
ENDBRANCH   1  11
BRANCH   1  18
ATOM     18  N   UNL     1       3.960  -7.024  -3.646  0.00  0.00    +0.000 N 
ATOM     19  H   UNL     1       3.465  -7.760  -3.156  0.00  0.00    +0.000 HD
BRANCH  18  20
ATOM     20  C   UNL     1       5.358  -7.079  -3.516  0.00  0.00    +0.000 A 
ATOM     21  C   UNL     1       6.236  -6.114  -4.016  0.00  0.00    +0.000 A 
ATOM     22  C   UNL     1       7.626  -6.301  -3.947  0.00  0.00    +0.000 A 
ATOM     23  C   UNL     1       8.161  -7.463  -3.378  0.00  0.00    +0.000 A 
ATOM     24  C   UNL     1       7.297  -8.423  -2.852  0.00  0.00    +0.000 A 
ATOM     25  C   UNL     1       5.913  -8.225  -2.924  0.00  0.00    +0.000 A 
BRANCH  23  26
ATOM     26  C   UNL     1       9.632  -7.676  -3.427  0.00  0.00    +0.000 C 
ATOM     27  N   UNL     1      10.184  -8.513  -2.497  0.00  0.00    +0.000 N 
ATOM     28  O   UNL     1      10.333  -7.118  -4.262  0.00  0.00    +0.000 OA
ATOM     29  H   UNL     1       9.687  -8.852  -1.686  0.00  0.00    +0.000 HD
ATOM     30  H   UNL     1      11.191  -8.611  -2.513  0.00  0.00    +0.000 HD
ENDBRANCH  23  26
ENDBRANCH  18  20
ENDBRANCH   1  18
TORSDOF 5
