REMARK  Name = 
REMARK  4 active torsions:
REMARK  status: ('A' for Active; 'I' for Inactive)
REMARK    1  A    between atoms: C_2  and  C_4
REMARK    2  A    between atoms: C_7  and  N_8
REMARK    3  A    between atoms: N_8  and  C_9
REMARK    4  A    between atoms: C_9  and  C_10
REMARK                            x       y       z     vdW  Elec       q    Type
REMARK                         _______ _______ _______ _____ _____    ______ ____
ROOT
ATOM      1  C   UNL     1       8.483   1.565  -0.762  0.00  0.00    +0.000 A 
ATOM      2  C   UNL     1       8.677   2.904  -1.056  0.00  0.00    +0.000 A 
ATOM      3  N   UNL     1       7.648   3.729  -1.392  0.00  0.00    +0.000 NA
ATOM      4  C   UNL     1       6.414   3.176  -1.454  0.00  0.00    +0.000 A 
ATOM      5  C   UNL     1       6.252   1.811  -1.173  0.00  0.00    +0.000 A 
ATOM      6  N   UNL     1       7.257   0.976  -0.804  0.00  0.00    +0.000 NA
ENDROOT
BRANCH   1   8
ATOM      7  N   UNL     1       9.318  -0.607  -0.112  0.00  0.00    +0.000 N 
ATOM      8  C   UNL     1       9.635   0.696  -0.384  0.00  0.00    +0.000 C 
ATOM      9  O   UNL     1      10.785   1.119  -0.328  0.00  0.00    +0.000 OA
ATOM     10  H   UNL     1      10.047  -1.260   0.136  0.00  0.00    +0.000 HD
ATOM     11  H   UNL     1       8.354  -0.918  -0.186  0.00  0.00    +0.000 HD
ENDBRANCH   1   8
BRANCH   4  12
ATOM     12  N   UNL     1       5.296   3.914  -1.889  0.00  0.00    +0.000 N 
ATOM     13  H   UNL     1       4.416   3.570  -1.531  0.00  0.00    +0.000 HD
BRANCH  12  14
ATOM     14  C   UNL     1       5.391   5.388  -2.033  0.00  0.00    +0.000 C 
ATOM     15  C   UNL     1       5.484   6.216  -0.765  0.00  0.00    +0.000 C 
ATOM     16  C   UNL     1       4.215   6.237  -1.554  0.00  0.00    +0.000 C 
BRANCH  14  17
ATOM     17  C   UNL     1       6.024   5.826  -3.357  0.00  0.00    +0.000 A 
ATOM     18  C   UNL     1       7.351   6.254  -3.423  0.00  0.00    +0.000 A 
ATOM     19  C   UNL     1       7.956   6.452  -4.663  0.00  0.00    +0.000 A 
ATOM     20  C   UNL     1       7.221   6.229  -5.818  0.00  0.00    +0.000 A 
ATOM     21  C   UNL     1       5.897   5.860  -5.684  0.00  0.00    +0.000 A 
ATOM     22  N   UNL     1       5.286   5.668  -4.494  0.00  0.00    +0.000 NA
ENDBRANCH  14  17
ENDBRANCH  12  14
ENDBRANCH   4  12
TORSDOF 4
