REMARK  Name = 
REMARK  7 active torsions:
REMARK  status: ('A' for Active; 'I' for Inactive)
REMARK    1  A    between atoms: C_1  and  O_2
REMARK    2  A    between atoms: O_2  and  C_3
REMARK    3  A    between atoms: C_7  and  C_8
REMARK    4  A    between atoms: C_8  and  N_9
REMARK    5  A    between atoms: C_15  and  C_16
REMARK    6  A    between atoms: C_16  and  O_18
REMARK    7  A    between atoms: C_21  and  C_22
REMARK                            x       y       z     vdW  Elec       q    Type
REMARK                         _______ _______ _______ _____ _____    ______ ____
ROOT
ATOM      1  N   UNL     1       2.277   5.105  -0.505  0.00  0.00    +0.000 N 
ATOM      2  C   UNL     1       2.459   6.036   0.497  0.00  0.00    +0.000 A 
ATOM      3  C   UNL     1       1.253   6.648   0.739  0.00  0.00    +0.000 A 
ATOM      4  C   UNL     1       0.299   6.084  -0.148  0.00  0.00    +0.000 A 
ATOM      5  C   UNL     1      -1.057   6.362  -0.409  0.00  0.00    +0.000 A 
ATOM      6  C   UNL     1      -1.733   5.644  -1.403  0.00  0.00    +0.000 A 
ATOM      7  C   UNL     1      -1.084   4.624  -2.107  0.00  0.00    +0.000 A 
ATOM      8  C   UNL     1       0.270   4.337  -1.862  0.00  0.00    +0.000 A 
ATOM      9  C   UNL     1       0.949   5.093  -0.891  0.00  0.00    +0.000 A 
ENDROOT
BRANCH   7  10
ATOM     10  C   UNL     1      -1.762   3.859  -3.189  0.00  0.00    +0.000 C 
ATOM     11  O   UNL     1      -1.159   3.357  -4.123  0.00  0.00    +0.000 OA
BRANCH  10  12
ATOM     12  O   UNL     1      -3.099   3.743  -3.040  0.00  0.00    +0.000 OA
ATOM     13  H   UNL     1      -3.446   4.021  -2.174  0.00  0.00    +0.000 HD
ENDBRANCH  10  12
ENDBRANCH   7  10
BRANCH   1  14
ATOM     14  C   UNL     1       3.397   4.510  -1.233  0.00  0.00    +0.000 C 
BRANCH  14  19
ATOM     15  C   UNL     1       4.023   0.852  -0.589  0.00  0.00    +0.000 A 
ATOM     16  N   UNL     1       3.957   0.357  -1.838  0.00  0.00    +0.000 NA
ATOM     17  C   UNL     1       3.599   1.225  -2.779  0.00  0.00    +0.000 A 
ATOM     18  N   UNL     1       3.366   2.528  -2.586  0.00  0.00    +0.000 NA
ATOM     19  C   UNL     1       3.440   3.004  -1.315  0.00  0.00    +0.000 A 
ATOM     20  C   UNL     1       3.713   2.165  -0.241  0.00  0.00    +0.000 A 
ATOM     21  C   UNL     1       3.778   2.602   1.188  0.00  0.00    +0.000 C 
BRANCH  15  23
ATOM     22  C   UNL     1       4.950  -1.239  -0.056  0.00  0.00    +0.000 C 
ATOM     23  O   UNL     1       4.482   0.022   0.420  0.00  0.00    +0.000 OA
ENDBRANCH  15  23
ENDBRANCH  14  19
ENDBRANCH   1  14
TORSDOF 5
