REMARK  Name = 
REMARK  7 active torsions:
REMARK  status: ('A' for Active; 'I' for Inactive)
REMARK    1  A    between atoms: C_1  and  C_2
REMARK    2  A    between atoms: C_2  and  N_3
REMARK    3  A    between atoms: C_2  and  C_17
REMARK    4  A    between atoms: C_4  and  C_6
REMARK    5  A    between atoms: N_12  and  C_13
REMARK    6  A    between atoms: C_20  and  O_21
REMARK    7  A    between atoms: O_21  and  C_22
REMARK                            x       y       z     vdW  Elec       q    Type
REMARK                         _______ _______ _______ _____ _____    ______ ____
ROOT
ATOM      1  C   UNL     1       2.987  -1.277  -0.431  0.00  0.00    +0.000 C 
ATOM      2  C   UNL     1       2.498   0.082   0.073  0.00  0.00    +0.000 C 
ENDROOT
BRANCH   2   3
ATOM      3  C   UNL     1       2.962   1.226  -0.821  0.00  0.00    +0.000 A 
ATOM      4  C   UNL     1       3.183   2.484  -0.262  0.00  0.00    +0.000 A 
ATOM      5  C   UNL     1       3.636   3.518  -1.078  0.00  0.00    +0.000 A 
ATOM      6  C   UNL     1       3.887   3.273  -2.424  0.00  0.00    +0.000 A 
ATOM      7  C   UNL     1       3.585   2.013  -2.913  0.00  0.00    +0.000 A 
ATOM      8  N   UNL     1       3.123   0.991  -2.150  0.00  0.00    +0.000 NA
BRANCH   6   9
ATOM      9  O   UNL     1       4.348   4.215  -3.309  0.00  0.00    +0.000 OA
BRANCH   9  10
ATOM     10  C   UNL     1       5.316   5.105  -2.865  0.00  0.00    +0.000 A 
ATOM     11  C   UNL     1       5.411   6.328  -3.513  0.00  0.00    +0.000 A 
ATOM     12  N   UNL     1       6.296   7.287  -3.139  0.00  0.00    +0.000 NA
ATOM     13  C   UNL     1       7.090   6.959  -2.094  0.00  0.00    +0.000 A 
ATOM     14  C   UNL     1       7.018   5.727  -1.465  0.00  0.00    +0.000 A 
ATOM     15  N   UNL     1       6.142   4.770  -1.844  0.00  0.00    +0.000 NA
ENDBRANCH   9  10
ENDBRANCH   6   9
ENDBRANCH   2   3
BRANCH   2  16
ATOM     16  N   UNL     1       1.049   0.063   0.195  0.00  0.00    +0.000 N 
ATOM     17  C   UNL     1       0.390   0.656   1.239  0.00  0.00    +0.000 C 
ATOM     18  O   UNL     1       0.990   1.210   2.157  0.00  0.00    +0.000 OA
ATOM     19  H   UNL     1       0.539  -0.151  -0.658  0.00  0.00    +0.000 HD
BRANCH  17  20
ATOM     20  C   UNL     1      -1.074   0.541   1.249  0.00  0.00    +0.000 A 
ATOM     21  C   UNL     1      -1.756   0.659   2.454  0.00  0.00    +0.000 A 
ATOM     22  S   UNL     1      -3.445   0.491   2.304  0.00  0.00    +0.000 S 
ATOM     23  C   UNL     1      -3.329   0.290   0.619  0.00  0.00    +0.000 A 
ATOM     24  N   UNL     1      -4.443   0.131  -0.138  0.00  0.00    +0.000 NA
ATOM     25  C   UNL     1      -4.216   0.016  -1.406  0.00  0.00    +0.000 A 
ATOM     26  N   UNL     1      -2.973   0.030  -2.002  0.00  0.00    +0.000 N 
ATOM     27  C   UNL     1      -2.840  -0.134  -3.435  0.00  0.00    +0.000 C 
ATOM     28  C   UNL     1      -1.808   0.146  -1.250  0.00  0.00    +0.000 A 
ATOM     29  O   UNL     1      -0.687   0.083  -1.748  0.00  0.00    +0.000 OA
ATOM     30  C   UNL     1      -2.019   0.317   0.179  0.00  0.00    +0.000 A 
ENDBRANCH  17  20
ENDBRANCH   2  16
TORSDOF 5
