REMARK  Name = 
REMARK  5 active torsions:
REMARK  status: ('A' for Active; 'I' for Inactive)
REMARK    1  A    between atoms: N_1  and  C_2
REMARK    2  A    between atoms: C_2  and  C_3
REMARK    3  A    between atoms: C_3  and  O_4
REMARK    4  A    between atoms: O_4  and  C_5
REMARK    5  A    between atoms: C_11  and  C_12
REMARK                            x       y       z     vdW  Elec       q    Type
REMARK                         _______ _______ _______ _____ _____    ______ ____
ROOT
ATOM      1  C   UNL     1       5.049   0.779   2.515  0.00  0.00    +0.000 A 
ATOM      2  N   UNL     1       4.631   0.215   3.664  0.00  0.00    +0.000 NA
ATOM      3  C   UNL     1       5.318   0.546   4.782  0.00  0.00    +0.000 A 
ATOM      4  C   UNL     1       6.397   1.408   4.837  0.00  0.00    +0.000 A 
ATOM      5  N   UNL     1       7.009   1.662   6.019  0.00  0.00    +0.000 NA
ATOM      6  C   UNL     1       8.053   2.522   5.991  0.00  0.00    +0.000 A 
ATOM      7  C   UNL     1       8.474   3.112   4.819  0.00  0.00    +0.000 A 
ATOM      8  N   UNL     1       7.872   2.860   3.624  0.00  0.00    +0.000 NA
ATOM      9  C   UNL     1       6.820   1.996   3.621  0.00  0.00    +0.000 A 
ATOM     10  C   UNL     1       6.130   1.656   2.449  0.00  0.00    +0.000 A 
ATOM     11  I   UNL     1       6.721   2.489   0.599  0.00  0.00    +0.000 I 
ENDROOT
BRANCH   7  12
ATOM     12  C   UNL     1       9.617   4.062   4.832  0.00  0.00    +0.000 C 
ATOM     13  N   UNL     1       9.956   4.602   3.621  0.00  0.00    +0.000 N 
ATOM     14  O   UNL     1      10.217   4.348   5.861  0.00  0.00    +0.000 OA
ATOM     15  H   UNL     1       9.439   4.350   2.785  0.00  0.00    +0.000 HD
ATOM     16  H   UNL     1      10.719   5.262   3.565  0.00  0.00    +0.000 HD
ENDBRANCH   7  12
BRANCH   1  17
ATOM     17  O   UNL     1       4.427   0.395   1.347  0.00  0.00    +0.000 OA
BRANCH  17  18
ATOM     18  C   UNL     1       3.061   0.003   1.533  0.00  0.00    +0.000 C 
BRANCH  18  19
ATOM     19  C   UNL     1       2.483  -0.422   0.176  0.00  0.00    +0.000 C 
BRANCH  19  20
ATOM     20  N   UNL     1       2.503   0.666  -0.806  0.00  0.00    +0.000 NA
ATOM     21  H   UNL     1       2.179   0.313  -1.705  0.00  0.00    +0.000 HD
ATOM     22  H   UNL     1       3.474   0.952  -0.946  0.00  0.00    +0.000 HD
ENDBRANCH  19  20
ENDBRANCH  18  19
ENDBRANCH  17  18
ENDBRANCH   1  17
TORSDOF 5
