REMARK  Name = 
REMARK  6 active torsions:
REMARK  status: ('A' for Active; 'I' for Inactive)
REMARK    1  A    between atoms: C_2  and  C_20
REMARK    2  A    between atoms: N_3  and  C_4
REMARK    3  A    between atoms: C_4  and  C_5
REMARK    4  A    between atoms: C_8  and  C_9
REMARK    5  A    between atoms: C_9  and  C_10
REMARK    6  A    between atoms: C_10  and  C_11
REMARK                            x       y       z     vdW  Elec       q    Type
REMARK                         _______ _______ _______ _____ _____    ______ ____
ROOT
ATOM      1  C   UNL     1       2.346  -0.751  -2.315  0.00  0.00    +0.000 C 
ENDROOT
BRANCH   1   2
ATOM      2  C   UNL     1       3.334  -1.144  -3.382  0.00  0.00    +0.000 A 
ATOM      3  C   UNL     1       4.099  -0.166  -4.029  0.00  0.00    +0.000 A 
ATOM      4  C   UNL     1       5.010  -0.520  -5.026  0.00  0.00    +0.000 A 
ATOM      5  C   UNL     1       5.179  -1.861  -5.398  0.00  0.00    +0.000 A 
ATOM      6  C   UNL     1       4.391  -2.835  -4.772  0.00  0.00    +0.000 A 
ATOM      7  C   UNL     1       3.474  -2.480  -3.779  0.00  0.00    +0.000 A 
BRANCH   5   8
ATOM      8  C   UNL     1       6.154  -2.252  -6.486  0.00  0.00    +0.000 C 
BRANCH   8   9
ATOM      9  C   UNL     1       7.597  -1.855  -6.169  0.00  0.00    +0.000 C 
BRANCH   9  10
ATOM     10  C   UNL     1       8.554  -2.258  -7.280  0.00  0.00    +0.000 C 
ATOM     11  O   UNL     1       8.184  -2.898  -8.262  0.00  0.00    +0.000 OA
ATOM     12  N   UNL     1       9.861  -1.842  -7.131  0.00  0.00    +0.000 N 
ATOM     13  C   UNL     1      10.451  -1.139  -6.007  0.00  0.00    +0.000 C 
ATOM     14  C   UNL     1      11.572  -0.341  -6.649  0.00  0.00    +0.000 C 
ATOM     15  C   UNL     1      12.077  -1.269  -7.749  0.00  0.00    +0.000 C 
ATOM     16  C   UNL     1      10.848  -2.068  -8.174  0.00  0.00    +0.000 C 
ENDBRANCH   9  10
ENDBRANCH   8   9
ENDBRANCH   5   8
ENDBRANCH   1   2
BRANCH   1  19
ATOM     17  O   UNL     1       1.347   1.796  -2.993  0.00  0.00    +0.000 OA
ATOM     18  C   UNL     1       0.668   0.803  -3.239  0.00  0.00    +0.000 C 
ATOM     19  N   UNL     1       1.054  -0.463  -2.882  0.00  0.00    +0.000 N 
ATOM     20  H   UNL     1       0.559  -1.256  -3.274  0.00  0.00    +0.000 HD
BRANCH  18  21
ATOM     21  C   UNL     1      -0.646   0.916  -3.887  0.00  0.00    +0.000 A 
ATOM     22  C   UNL     1      -1.342   2.117  -3.831  0.00  0.00    +0.000 A 
ATOM     23  S   UNL     1      -2.855   2.067  -4.616  0.00  0.00    +0.000 S 
ATOM     24  C   UNL     1      -2.614   0.453  -5.098  0.00  0.00    +0.000 A 
ATOM     25  N   UNL     1      -3.544  -0.201  -5.845  0.00  0.00    +0.000 NA
ATOM     26  C   UNL     1      -3.212  -1.404  -6.178  0.00  0.00    +0.000 A 
ATOM     27  N   UNL     1      -2.040  -2.017  -5.820  0.00  0.00    +0.000 N 
ATOM     28  C   UNL     1      -1.110  -1.425  -5.000  0.00  0.00    +0.000 A 
ATOM     29  O   UNL     1      -0.143  -2.054  -4.583  0.00  0.00    +0.000 OA
ATOM     30  C   UNL     1      -1.409  -0.051  -4.642  0.00  0.00    +0.000 A 
ATOM     31  H   UNL     1      -1.854  -2.973  -6.085  0.00  0.00    +0.000 HD
ENDBRANCH  18  21
ENDBRANCH   1  19
TORSDOF 6
