REMARK  Name = 
REMARK  10 active torsions:
REMARK  status: ('A' for Active; 'I' for Inactive)
REMARK    1  A    between atoms: C_1  and  O_2
REMARK    2  A    between atoms: O_2  and  C_3
REMARK    3  A    between atoms: C_10  and  C_11
REMARK    4  A    between atoms: N_13  and  C_14
REMARK    5  A    between atoms: C_14  and  C_15
REMARK    6  A    between atoms: C_18  and  C_19
REMARK    7  A    between atoms: C_19  and  C_20
REMARK    8  A    between atoms: C_20  and  N_21
REMARK    9  A    between atoms: C_20  and  C_22
REMARK   10  A    between atoms: C_22  and  C_23
REMARK                            x       y       z     vdW  Elec       q    Type
REMARK                         _______ _______ _______ _____ _____    ______ ____
ROOT
ATOM      1  C   UNL     1      -3.680   4.334   2.081  0.00  0.00    +0.000 A 
ATOM      2  C   UNL     1      -3.117   4.833   0.902  0.00  0.00    +0.000 A 
ATOM      3  C   UNL     1      -2.789   3.977  -0.156  0.00  0.00    +0.000 A 
ATOM      4  C   UNL     1      -3.011   2.597  -0.063  0.00  0.00    +0.000 A 
ATOM      5  C   UNL     1      -3.572   2.096   1.121  0.00  0.00    +0.000 A 
ATOM      6  C   UNL     1      -3.900   2.954   2.183  0.00  0.00    +0.000 A 
ENDROOT
BRANCH   1   7
ATOM      7  C   UNL     1      -4.048   5.280   3.194  0.00  0.00    +0.000 C 
BRANCH   7  10
ATOM      8  C   UNL     1      -5.757   6.900   3.845  0.00  0.00    +0.000 C 
ATOM      9  O   UNL     1      -5.021   7.304   4.745  0.00  0.00    +0.000 OA
ATOM     10  N   UNL     1      -5.342   5.899   3.001  0.00  0.00    +0.000 N 
ATOM     11  H   UNL     1      -5.954   5.545   2.274  0.00  0.00    +0.000 HD
BRANCH   8  19
ATOM     12  C   UNL     1      -8.251   6.510   1.480  0.00  0.00    +0.000 A 
ATOM     13  N   UNL     1      -9.405   6.482   0.778  0.00  0.00    +0.000 NA
ATOM     14  C   UNL     1     -10.437   7.203   1.223  0.00  0.00    +0.000 A 
ATOM     15  N   UNL     1     -10.457   7.979   2.302  0.00  0.00    +0.000 NA
ATOM     16  C   UNL     1      -9.299   7.965   2.981  0.00  0.00    +0.000 A 
ATOM     17  S   UNL     1      -9.141   8.925   4.371  0.00  0.00    +0.000 S 
ATOM     18  C   UNL     1      -7.552   8.383   4.620  0.00  0.00    +0.000 A 
ATOM     19  C   UNL     1      -7.110   7.461   3.677  0.00  0.00    +0.000 A 
ATOM     20  C   UNL     1      -8.147   7.243   2.672  0.00  0.00    +0.000 A 
BRANCH  12  22
ATOM     21  C   UNL     1      -7.241   5.656  -0.432  0.00  0.00    +0.000 C 
ATOM     22  O   UNL     1      -7.182   5.789   0.992  0.00  0.00    +0.000 OA
ENDBRANCH  12  22
ENDBRANCH   8  19
ENDBRANCH   7  10
ENDBRANCH   1   7
BRANCH   4  23
ATOM     23  C   UNL     1      -2.723   1.691  -1.249  0.00  0.00    +0.000 C 
BRANCH  23  24
ATOM     24  C   UNL     1      -1.257   1.705  -1.757  0.00  0.00    +0.000 C 
BRANCH  24  25
ATOM     25  N   UNL     1      -1.180   1.113  -3.109  0.00  0.00    +0.000 NA
ATOM     26  H   UNL     1      -1.242   0.095  -3.032  0.00  0.00    +0.000 HD
ATOM     27  H   UNL     1      -0.258   1.299  -3.503  0.00  0.00    +0.000 HD
ENDBRANCH  24  25
BRANCH  24  28
ATOM     28  C   UNL     1      -0.238   1.061  -0.783  0.00  0.00    +0.000 C 
BRANCH  28  29
ATOM     29  C   UNL     1      -0.341  -0.436  -0.577  0.00  0.00    +0.000 A 
ATOM     30  C   UNL     1       0.420  -1.325  -1.352  0.00  0.00    +0.000 A 
ATOM     31  C   UNL     1       0.342  -2.703  -1.135  0.00  0.00    +0.000 A 
ATOM     32  C   UNL     1      -0.498  -3.208  -0.145  0.00  0.00    +0.000 A 
ATOM     33  C   UNL     1      -1.262  -2.337   0.627  0.00  0.00    +0.000 A 
ATOM     34  C   UNL     1      -1.179  -0.960   0.415  0.00  0.00    +0.000 A 
ENDBRANCH  28  29
ENDBRANCH  24  28
ENDBRANCH  23  24
ENDBRANCH   4  23
TORSDOF 9
