REMARK  Name = 
REMARK  10 active torsions:
REMARK  status: ('A' for Active; 'I' for Inactive)
REMARK    1  A    between atoms: C_1  and  C_2
REMARK    2  A    between atoms: C_5  and  C_6
REMARK    3  A    between atoms: C_8  and  O_9
REMARK    4  A    between atoms: O_9  and  C_10
REMARK    5  A    between atoms: C_10  and  C_11
REMARK    6  A    between atoms: C_11  and  C_12
REMARK    7  A    between atoms: C_11  and  C_13
REMARK    8  A    between atoms: C_11  and  C_14
REMARK    9  A    between atoms: C_17  and  C_18
REMARK   10  A    between atoms: C_24  and  C_25
REMARK                            x       y       z     vdW  Elec       q    Type
REMARK                         _______ _______ _______ _____ _____    ______ ____
ROOT
ATOM      1  C   UNL     1      -3.237   0.203  -0.035  0.00  0.00    +0.000 A 
ATOM      2  C   UNL     1      -3.963  -0.384   1.017  0.00  0.00    +0.000 A 
ATOM      3  C   UNL     1      -5.331  -0.196   1.143  0.00  0.00    +0.000 A 
ATOM      4  C   UNL     1      -6.004   0.592   0.209  0.00  0.00    +0.000 A 
ATOM      5  C   UNL     1      -5.310   1.202  -0.851  0.00  0.00    +0.000 A 
ATOM      6  C   UNL     1      -3.938   0.972  -0.977  0.00  0.00    +0.000 A 
ENDROOT
BRANCH   1  11
ATOM      7  C   UNL     1       2.420  -0.650  -0.302  0.00  0.00    +0.000 C 
ATOM      8  C   UNL     1       0.952  -0.375  -0.237  0.00  0.00    +0.000 A 
ATOM      9  C   UNL     1       0.423   0.813  -0.741  0.00  0.00    +0.000 A 
ATOM     10  C   UNL     1      -0.950   1.018  -0.664  0.00  0.00    +0.000 A 
ATOM     11  C   UNL     1      -1.781   0.042  -0.109  0.00  0.00    +0.000 A 
ATOM     12  C   UNL     1      -1.145  -1.106   0.369  0.00  0.00    +0.000 A 
ATOM     13  N   UNL     1       0.184  -1.330   0.323  0.00  0.00    +0.000 NA
ENDBRANCH   1  11
BRANCH   5  14
ATOM     14  C   UNL     1      -6.011   2.152  -1.789  0.00  0.00    +0.000 C 
ATOM     15  F   UNL     1      -7.326   2.331  -1.479  0.00  0.00    +0.000 F 
ATOM     16  F   UNL     1      -5.454   3.396  -1.774  0.00  0.00    +0.000 F 
ATOM     17  F   UNL     1      -5.980   1.746  -3.086  0.00  0.00    +0.000 F 
ENDBRANCH   5  14
BRANCH   3  18
ATOM     18  O   UNL     1      -6.104  -0.682   2.159  0.00  0.00    +0.000 OA
BRANCH  18  19
ATOM     19  C   UNL     1      -5.452  -1.481   3.160  0.00  0.00    +0.000 C 
BRANCH  19  20
ATOM     20  C   UNL     1      -6.490  -1.935   4.212  0.00  0.00    +0.000 C 
ATOM     21  C   UNL     1      -5.777  -2.779   5.293  0.00  0.00    +0.000 C 
ATOM     22  C   UNL     1      -7.083  -0.693   4.915  0.00  0.00    +0.000 C 
BRANCH  20  23
ATOM     23  C   UNL     1      -7.560  -2.789   3.521  0.00  0.00    +0.000 A 
ATOM     24  C   UNL     1      -8.722  -2.241   2.966  0.00  0.00    +0.000 A 
ATOM     25  N   UNL     1      -9.712  -2.974   2.388  0.00  0.00    +0.000 NA
ATOM     26  C   UNL     1      -9.507  -4.316   2.361  0.00  0.00    +0.000 A 
ATOM     27  C   UNL     1      -8.341  -4.880   2.870  0.00  0.00    +0.000 A 
ATOM     28  N   UNL     1      -7.349  -4.128   3.442  0.00  0.00    +0.000 NA
BRANCH  26  29
ATOM     29  C   UNL     1     -10.605  -5.154   1.773  0.00  0.00    +0.000 C 
ATOM     30  N   UNL     1     -11.740  -4.522   1.308  0.00  0.00    +0.000 N 
ATOM     31  O   UNL     1     -10.523  -6.362   1.704  0.00  0.00    +0.000 OA
ATOM     32  H   UNL     1     -11.876  -3.518   1.318  0.00  0.00    +0.000 HD
ATOM     33  H   UNL     1     -12.446  -5.113   0.911  0.00  0.00    +0.000 HD
ENDBRANCH  26  29
ENDBRANCH  20  23
ENDBRANCH  19  20
ENDBRANCH  18  19
ENDBRANCH   3  18
TORSDOF 7
