REMARK  Name = 
REMARK  5 active torsions:
REMARK  status: ('A' for Active; 'I' for Inactive)
REMARK    1  A    between atoms: N_1  and  C_2
REMARK    2  A    between atoms: C_2  and  C_3
REMARK    3  A    between atoms: C_5  and  C_6
REMARK    4  A    between atoms: C_6  and  N_7
REMARK    5  A    between atoms: C_12  and  C_13
REMARK                            x       y       z     vdW  Elec       q    Type
REMARK                         _______ _______ _______ _____ _____    ______ ____
ROOT
ATOM      1  N   UNL     1       0.807  -3.773  -3.806  0.00  0.00    +0.000 N 
ATOM      2  C   UNL     1      -0.256  -2.957  -4.106  0.00  0.00    +0.000 A 
ATOM      3  C   UNL     1      -0.440  -2.981  -5.467  0.00  0.00    +0.000 A 
ATOM      4  C   UNL     1       0.562  -3.820  -6.023  0.00  0.00    +0.000 A 
ATOM      5  C   UNL     1       0.865  -4.214  -7.343  0.00  0.00    +0.000 A 
ATOM      6  C   UNL     1       1.963  -5.051  -7.586  0.00  0.00    +0.000 A 
ATOM      7  C   UNL     1       2.733  -5.506  -6.507  0.00  0.00    +0.000 A 
ATOM      8  C   UNL     1       2.440  -5.144  -5.186  0.00  0.00    +0.000 A 
ATOM      9  C   UNL     1       1.346  -4.293  -4.966  0.00  0.00    +0.000 A 
ENDROOT
BRANCH   6  10
ATOM     10  C   UNL     1       2.362  -5.479  -8.959  0.00  0.00    +0.000 C 
ATOM     11  N   UNL     1       1.650  -5.010 -10.029  0.00  0.00    +0.000 N 
ATOM     12  O   UNL     1       3.314  -6.229  -9.146  0.00  0.00    +0.000 OA
ATOM     13  H   UNL     1       0.882  -4.361  -9.979  0.00  0.00    +0.000 HD
ATOM     14  H   UNL     1       1.966  -5.297 -10.946  0.00  0.00    +0.000 HD
ENDBRANCH   6  10
BRANCH   1  15
ATOM     15  C   UNL     1       1.217  -4.086  -2.445  0.00  0.00    +0.000 C 
BRANCH  15  18
ATOM     16  C   UNL     1       2.903  -1.174  -0.793  0.00  0.00    +0.000 C 
ATOM     17  C   UNL     1       1.935  -1.698  -1.841  0.00  0.00    +0.000 C 
ATOM     18  C   UNL     1       2.303  -3.168  -1.896  0.00  0.00    +0.000 C 
ATOM     19  C   UNL     1       2.614  -3.460  -0.433  0.00  0.00    +0.000 C 
ATOM     20  O   UNL     1       3.068  -2.237   0.168  0.00  0.00    +0.000 OA
BRANCH  16  21
ATOM     21  C   UNL     1       2.460   0.126  -0.102  0.00  0.00    +0.000 C 
BRANCH  21  22
ATOM     22  N   UNL     1       1.176  -0.005   0.596  0.00  0.00    +0.000 NA
ATOM     23  H   UNL     1       1.009   0.837   1.147  0.00  0.00    +0.000 HD
ATOM     24  H   UNL     1       1.268  -0.771   1.267  0.00  0.00    +0.000 HD
ENDBRANCH  21  22
ENDBRANCH  16  21
ENDBRANCH  15  18
ENDBRANCH   1  15
TORSDOF 5
