REMARK  Name = 
REMARK  10 active torsions:
REMARK  status: ('A' for Active; 'I' for Inactive)
REMARK    1  A    between atoms: C_2  and  C_3
REMARK    2  A    between atoms: C_3  and  N_4
REMARK    3  A    between atoms: C_5  and  C_7
REMARK    4  A    between atoms: N_17  and  CA_18
REMARK    5  A    between atoms: CA_18  and  C_19
REMARK    6  A    between atoms: CA_18  and  C_21
REMARK    7  A    between atoms: C_19  and  O_20
REMARK    8  A    between atoms: C_24  and  C_25
REMARK    9  A    between atoms: C_25  and  N_26
REMARK   10  A    between atoms: C_27  and  C_29
REMARK                            x       y       z     vdW  Elec       q    Type
REMARK                         _______ _______ _______ _____ _____    ______ ____
ROOT
ATOM      1  O   UNL     1       2.513   2.033  -0.033  0.00  0.00    +0.000 OA
ATOM      2  C   UNL     1       2.126   0.989   0.484  0.00  0.00    +0.000 C 
ATOM      3  N   UNL     1       2.960   0.031   1.009  0.00  0.00    +0.000 N 
ATOM      4  H   UNL     1       2.528  -0.838   1.313  0.00  0.00    +0.000 HD
ENDROOT
BRANCH   2   5
ATOM      5  C   UNL     1       0.637   0.663   0.562  0.00  0.00    +0.000 C 
BRANCH   5   6
ATOM      6  N   UNL     1       0.194  -0.088  -0.591  0.00  0.00    +0.000 N 
ATOM      7  C   UNL     1       0.110  -1.453  -0.529  0.00  0.00    +0.000 C 
ATOM      8  O   UNL     1       0.450  -2.069   0.484  0.00  0.00    +0.000 OA
ATOM      9  H   UNL     1       0.220   0.377  -1.496  0.00  0.00    +0.000 HD
BRANCH   7  10
ATOM     10  C   UNL     1      -0.462  -2.146  -1.676  0.00  0.00    +0.000 A 
ATOM     11  C   UNL     1      -1.116  -3.356  -1.500  0.00  0.00    +0.000 A 
ATOM     12  S   UNL     1      -1.747  -4.005  -2.947  0.00  0.00    +0.000 S 
ATOM     13  C   UNL     1      -1.131  -2.706  -3.859  0.00  0.00    +0.000 A 
ATOM     14  N   UNL     1      -1.296  -2.652  -5.207  0.00  0.00    +0.000 NA
ATOM     15  C   UNL     1      -0.739  -1.631  -5.769  0.00  0.00    +0.000 A 
ATOM     16  N   UNL     1      -0.035  -0.657  -5.107  0.00  0.00    +0.000 N 
ATOM     17  C   UNL     1       0.133  -0.654  -3.745  0.00  0.00    +0.000 A 
ATOM     18  O   UNL     1       0.729   0.246  -3.168  0.00  0.00    +0.000 OA
ATOM     19  C   UNL     1      -0.467  -1.787  -3.070  0.00  0.00    +0.000 A 
ATOM     20  H   UNL     1       0.375   0.118  -5.608  0.00  0.00    +0.000 HD
ENDBRANCH   7  10
ENDBRANCH   5   6
ENDBRANCH   2   5
BRANCH   3  21
ATOM     21  CA  UNL     1       4.426   0.101   1.136  0.00  0.00    +0.000 C 
BRANCH  21  22
ATOM     22  C   UNL     1       4.838  -0.068   2.596  0.00  0.00    +0.000 A 
ATOM     23  C   UNL     1       5.602  -1.168   3.014  0.00  0.00    +0.000 A 
ATOM     24  C   UNL     1       5.982  -1.318   4.358  0.00  0.00    +0.000 A 
ATOM     25  C   UNL     1       5.612  -0.371   5.323  0.00  0.00    +0.000 A 
ATOM     26  C   UNL     1       4.878   0.746   4.905  0.00  0.00    +0.000 A 
ATOM     27  C   UNL     1       4.489   0.887   3.565  0.00  0.00    +0.000 A 
BRANCH  25  28
ATOM     28  C   UNL     1       5.968  -0.559   6.779  0.00  0.00    +0.000 C 
BRANCH  28  29
ATOM     29  N   UNL     1       7.246   0.014   7.131  0.00  0.00    +0.000 N 
ATOM     30  C   UNL     1       7.698  -0.036   8.437  0.00  0.00    +0.000 C 
ATOM     31  O   UNL     1       7.029  -0.517   9.348  0.00  0.00    +0.000 OA
ATOM     32  H   UNL     1       7.934   0.123   6.395  0.00  0.00    +0.000 HD
BRANCH  30  33
ATOM     33  C   UNL     1       9.077   0.568   8.704  0.00  0.00    +0.000 C 
ATOM     34  C   UNL     1       9.172   2.046   8.401  0.00  0.00    +0.000 C 
ATOM     35  C   UNL     1       9.642   2.098   6.961  0.00  0.00    +0.000 C 
ATOM     36  O   UNL     1      10.216   0.821   6.647  0.00  0.00    +0.000 OA
ATOM     37  C   UNL     1      10.145  -0.019   7.810  0.00  0.00    +0.000 C 
ENDBRANCH  30  33
ENDBRANCH  28  29
ENDBRANCH  25  28
ENDBRANCH  21  22
BRANCH  21  38
ATOM     38  C   UNL     1       5.142   1.313   0.479  0.00  0.00    +0.000 C 
BRANCH  38  39
ATOM     39  O   UNL     1       4.812   2.566   1.083  0.00  0.00    +0.000 OA
ATOM     40  H   UNL     1       3.849   2.671   0.930  0.00  0.00    +0.000 HD
ENDBRANCH  38  39
ENDBRANCH  21  38
ENDBRANCH   3  21
TORSDOF 10
