REMARK  Name = 
REMARK  7 active torsions:
REMARK  status: ('A' for Active; 'I' for Inactive)
REMARK    1  A    between atoms: C_2  and  C_20
REMARK    2  A    between atoms: N_3  and  C_4
REMARK    3  A    between atoms: C_4  and  C_5
REMARK    4  A    between atoms: C_8  and  C_9
REMARK    5  A    between atoms: C_9  and  O_10
REMARK    6  A    between atoms: C_9  and  C_11
REMARK    7  A    between atoms: C_11  and  C_12
REMARK                            x       y       z     vdW  Elec       q    Type
REMARK                         _______ _______ _______ _____ _____    ______ ____
ROOT
ATOM      1  C   UNL     1       2.156  -1.918  -1.596  0.00  0.00    +0.000 C 
ENDROOT
BRANCH   1   2
ATOM      2  C   UNL     1       3.080  -2.689  -2.513  0.00  0.00    +0.000 A 
ATOM      3  N   UNL     1       4.013  -2.013  -3.206  0.00  0.00    +0.000 NA
ATOM      4  C   UNL     1       4.804  -2.738  -4.023  0.00  0.00    +0.000 A 
ATOM      5  C   UNL     1       4.688  -4.102  -4.204  0.00  0.00    +0.000 A 
ATOM      6  C   UNL     1       3.674  -4.686  -3.473  0.00  0.00    +0.000 A 
ATOM      7  N   UNL     1       2.847  -4.012  -2.650  0.00  0.00    +0.000 NA
BRANCH   5   8
ATOM      8  C   UNL     1       5.669  -4.865  -5.045  0.00  0.00    +0.000 C 
BRANCH   8   9
ATOM      9  O   UNL     1       6.745  -5.219  -4.174  0.00  0.00    +0.000 OA
ATOM     10  H   UNL     1       6.454  -5.949  -3.599  0.00  0.00    +0.000 HD
ENDBRANCH   8   9
BRANCH   8  11
ATOM     11  C   UNL     1       5.094  -6.116  -5.746  0.00  0.00    +0.000 C 
BRANCH  11  12
ATOM     12  C   UNL     1       6.031  -6.920  -6.618  0.00  0.00    +0.000 A 
ATOM     13  C   UNL     1       5.543  -8.067  -7.258  0.00  0.00    +0.000 A 
ATOM     14  C   UNL     1       6.396  -8.858  -8.022  0.00  0.00    +0.000 A 
ATOM     15  C   UNL     1       7.720  -8.475  -8.131  0.00  0.00    +0.000 A 
ATOM     16  N   UNL     1       8.228  -7.373  -7.544  0.00  0.00    +0.000 NA
ATOM     17  C   UNL     1       7.380  -6.626  -6.802  0.00  0.00    +0.000 A 
ENDBRANCH  11  12
ENDBRANCH   8  11
ENDBRANCH   5   8
ENDBRANCH   1   2
BRANCH   1  20
ATOM     18  O   UNL     1       0.099  -0.218  -0.581  0.00  0.00    +0.000 OA
ATOM     19  C   UNL     1      -0.010  -0.743  -1.676  0.00  0.00    +0.000 C 
ATOM     20  N   UNL     1       0.962  -1.500  -2.288  0.00  0.00    +0.000 N 
ATOM     21  H   UNL     1       0.682  -2.112  -3.043  0.00  0.00    +0.000 HD
BRANCH  19  22
ATOM     22  C   UNL     1      -1.269  -0.856  -2.402  0.00  0.00    +0.000 A 
ATOM     23  C   UNL     1      -2.473  -1.104  -1.767  0.00  0.00    +0.000 A 
ATOM     24  S   UNL     1      -3.587  -1.857  -2.836  0.00  0.00    +0.000 S 
ATOM     25  C   UNL     1      -2.530  -1.670  -4.162  0.00  0.00    +0.000 A 
ATOM     26  N   UNL     1      -2.768  -2.237  -5.375  0.00  0.00    +0.000 NA
ATOM     27  C   UNL     1      -1.894  -1.935  -6.281  0.00  0.00    +0.000 A 
ATOM     28  N   UNL     1      -0.831  -1.081  -6.101  0.00  0.00    +0.000 N 
ATOM     29  C   UNL     1      -0.538  -0.505  -4.883  0.00  0.00    +0.000 A 
ATOM     30  O   UNL     1       0.377   0.302  -4.757  0.00  0.00    +0.000 OA
ATOM     31  C   UNL     1      -1.431  -0.912  -3.822  0.00  0.00    +0.000 A 
ATOM     32  H   UNL     1      -0.241  -0.815  -6.875  0.00  0.00    +0.000 HD
ENDBRANCH  19  22
ENDBRANCH   1  20
TORSDOF 7
