REMARK  Name = 
REMARK  7 active torsions:
REMARK  status: ('A' for Active; 'I' for Inactive)
REMARK    1  A    between atoms: C_1  and  C_2
REMARK    2  A    between atoms: C_2  and  N_3
REMARK    3  A    between atoms: C_2  and  C_12
REMARK    4  A    between atoms: C_4  and  C_6
REMARK    5  A    between atoms: C_15  and  C_16
REMARK    6  A    between atoms: C_16  and  N_17
REMARK    7  A    between atoms: C_18  and  C_20
REMARK                            x       y       z     vdW  Elec       q    Type
REMARK                         _______ _______ _______ _____ _____    ______ ____
ROOT
ATOM      1  C   UNL     1       2.922  -1.054  -0.834  0.00  0.00    +0.000 A 
ATOM      2  C   UNL     1       3.811  -0.692  -1.858  0.00  0.00    +0.000 A 
ATOM      3  C   UNL     1       4.209  -1.621  -2.825  0.00  0.00    +0.000 A 
ATOM      4  C   UNL     1       3.715  -2.931  -2.795  0.00  0.00    +0.000 A 
ATOM      5  C   UNL     1       2.869  -3.308  -1.744  0.00  0.00    +0.000 A 
ATOM      6  C   UNL     1       2.466  -2.378  -0.784  0.00  0.00    +0.000 A 
ENDROOT
BRANCH   1   8
ATOM      7  C   UNL     1       1.137   0.632  -0.373  0.00  0.00    +0.000 C 
ATOM      8  C   UNL     1       2.432   0.001   0.145  0.00  0.00    +0.000 C 
BRANCH   8   9
ATOM      9  N   UNL     1       2.233  -0.530   1.480  0.00  0.00    +0.000 N 
ATOM     10  C   UNL     1       3.249  -0.642   2.402  0.00  0.00    +0.000 C 
ATOM     11  O   UNL     1       4.396  -0.249   2.207  0.00  0.00    +0.000 OA
ATOM     12  H   UNL     1       1.364  -0.998   1.723  0.00  0.00    +0.000 HD
BRANCH  10  13
ATOM     13  C   UNL     1       2.833  -1.338   3.715  0.00  0.00    +0.000 C 
ATOM     14  C   UNL     1       3.145  -2.836   3.640  0.00  0.00    +0.000 C 
ATOM     15  C   UNL     1       2.699  -3.556   4.911  0.00  0.00    +0.000 C 
ATOM     16  C   UNL     1       1.243  -3.236   5.238  0.00  0.00    +0.000 C 
ATOM     17  C   UNL     1       0.993  -1.730   5.241  0.00  0.00    +0.000 C 
ATOM     18  N   UNL     1       1.381  -1.125   3.964  0.00  0.00    +0.000 NA
ATOM     19  H   UNL     1       1.219  -0.118   4.019  0.00  0.00    +0.000 HD
ENDBRANCH  10  13
ENDBRANCH   8   9
ENDBRANCH   1   8
BRANCH   4  20
ATOM     20  C   UNL     1       4.094  -3.931  -3.853  0.00  0.00    +0.000 C 
BRANCH  20  21
ATOM     21  N   UNL     1       5.274  -4.665  -3.481  0.00  0.00    +0.000 N 
ATOM     22  C   UNL     1       5.817  -5.605  -4.319  0.00  0.00    +0.000 C 
ATOM     23  O   UNL     1       5.357  -5.827  -5.436  0.00  0.00    +0.000 OA
ATOM     24  H   UNL     1       5.514  -4.676  -2.495  0.00  0.00    +0.000 HD
BRANCH  22  25
ATOM     25  C   UNL     1       7.024  -6.283  -3.836  0.00  0.00    +0.000 A 
ATOM     26  C   UNL     1       7.914  -6.841  -4.747  0.00  0.00    +0.000 A 
ATOM     27  S   UNL     1       9.298  -7.519  -4.018  0.00  0.00    +0.000 S 
ATOM     28  C   UNL     1       8.731  -7.141  -2.459  0.00  0.00    +0.000 A 
ATOM     29  N   UNL     1       9.452  -7.469  -1.353  0.00  0.00    +0.000 NA
ATOM     30  C   UNL     1       8.890  -7.146  -0.236  0.00  0.00    +0.000 A 
ATOM     31  N   UNL     1       7.671  -6.529  -0.125  0.00  0.00    +0.000 N 
ATOM     32  C   UNL     1       6.912  -6.167  -1.211  0.00  0.00    +0.000 A 
ATOM     33  O   UNL     1       5.831  -5.605  -1.078  0.00  0.00    +0.000 OA
ATOM     34  C   UNL     1       7.506  -6.500  -2.493  0.00  0.00    +0.000 A 
ATOM     35  H   UNL     1       7.288  -6.300   0.781  0.00  0.00    +0.000 HD
ENDBRANCH  22  25
ENDBRANCH  20  21
ENDBRANCH   4  20
TORSDOF 6
