REMARK  Name = 
REMARK  5 active torsions:
REMARK  status: ('A' for Active; 'I' for Inactive)
REMARK    1  A    between atoms: C_2  and  C_3
REMARK    2  A    between atoms: C_7  and  N_8
REMARK    3  A    between atoms: N_8  and  C_9
REMARK    4  A    between atoms: C_9  and  C_10
REMARK    5  A    between atoms: C_14  and  C_15
REMARK                            x       y       z     vdW  Elec       q    Type
REMARK                         _______ _______ _______ _____ _____    ______ ____
ROOT
ATOM      1  C   UNL     1      -2.486   4.943   0.134  0.00  0.00    +0.000 A 
ATOM      2  C   UNL     1      -2.014   6.247   0.087  0.00  0.00    +0.000 A 
ATOM      3  N   UNL     1      -2.806   7.337   0.143  0.00  0.00    +0.000 NA
ATOM      4  C   UNL     1      -4.140   7.118   0.247  0.00  0.00    +0.000 A 
ATOM      5  C   UNL     1      -4.751   5.862   0.278  0.00  0.00    +0.000 A 
ATOM      6  C   UNL     1      -3.876   4.763   0.211  0.00  0.00    +0.000 A 
ENDROOT
BRANCH   5   7
ATOM      7  C   UNL     1      -6.219   5.701   0.386  0.00  0.00    +0.000 A 
ATOM      8  C   UNL     1      -7.108   6.621  -0.207  0.00  0.00    +0.000 A 
ATOM      9  C   UNL     1      -8.498   6.470  -0.107  0.00  0.00    +0.000 A 
ATOM     10  C   UNL     1      -9.030   5.388   0.585  0.00  0.00    +0.000 A 
ATOM     11  C   UNL     1      -8.170   4.474   1.174  0.00  0.00    +0.000 A 
ATOM     12  F   UNL     1      -8.676   3.428   1.841  0.00  0.00    +0.000 F 
ATOM     13  C   UNL     1      -6.788   4.623   1.087  0.00  0.00    +0.000 A 
ENDBRANCH   5   7
BRANCH   1  14
ATOM     14  C   UNL     1      -1.532   3.780   0.114  0.00  0.00    +0.000 C 
BRANCH  14  15
ATOM     15  N   UNL     1      -1.187   3.418  -1.249  0.00  0.00    +0.000 N 
ATOM     16  H   UNL     1      -1.870   3.669  -1.958  0.00  0.00    +0.000 HD
BRANCH  15  21
ATOM     17  C   UNL     1       1.219   0.578  -0.960  0.00  0.00    +0.000 A 
ATOM     18  C   UNL     1       1.356   0.296  -2.308  0.00  0.00    +0.000 A 
ATOM     19  N   UNL     1       0.688   0.958  -3.277  0.00  0.00    +0.000 NA
ATOM     20  C   UNL     1      -0.146   1.950  -2.871  0.00  0.00    +0.000 A 
ATOM     21  C   UNL     1      -0.386   2.321  -1.541  0.00  0.00    +0.000 A 
ATOM     22  C   UNL     1       0.343   1.607  -0.582  0.00  0.00    +0.000 A 
BRANCH  17  24
ATOM     23  N   UNL     1       2.568  -0.742   0.814  0.00  0.00    +0.000 NA
ATOM     24  C   UNL     1       1.964  -0.151   0.015  0.00  0.00    +0.000 C 
ENDBRANCH  17  24
ENDBRANCH  15  21
ENDBRANCH  14  15
ENDBRANCH   1  14
TORSDOF 5
