REMARK  Name = 
REMARK  5 active torsions:
REMARK  status: ('A' for Active; 'I' for Inactive)
REMARK    1  A    between atoms: C_1  and  C_2
REMARK    2  A    between atoms: C_5  and  C_6
REMARK    3  A    between atoms: C_6  and  N_7
REMARK    4  A    between atoms: N_7  and  C_8
REMARK    5  A    between atoms: C_11  and  C_12
REMARK                            x       y       z     vdW  Elec       q    Type
REMARK                         _______ _______ _______ _____ _____    ______ ____
ROOT
ATOM      1  N   UNL     1       3.534   1.105   0.871  0.00  0.00    +0.000 N 
ATOM      2  H   UNL     1       3.046   1.132   1.766  0.00  0.00    +0.000 HD
ENDROOT
BRANCH   1   3
ATOM      3  C   UNL     1       3.717   2.401   0.349  0.00  0.00    +0.000 A 
ATOM      4  C   UNL     1       3.982   3.456   1.233  0.00  0.00    +0.000 A 
ATOM      5  C   UNL     1       4.276   4.732   0.749  0.00  0.00    +0.000 A 
ATOM      6  C   UNL     1       4.319   4.909  -0.626  0.00  0.00    +0.000 A 
ATOM      7  N   UNL     1       4.090   3.917  -1.527  0.00  0.00    +0.000 NA
ATOM      8  C   UNL     1       3.803   2.697  -1.011  0.00  0.00    +0.000 A 
BRANCH   6   9
ATOM      9  C   UNL     1       4.635   6.252  -1.203  0.00  0.00    +0.000 C 
ATOM     10  N   UNL     1       4.663   6.294  -2.573  0.00  0.00    +0.000 N 
ATOM     11  O   UNL     1       4.854   7.240  -0.516  0.00  0.00    +0.000 OA
ATOM     12  H   UNL     1       4.475   5.443  -3.093  0.00  0.00    +0.000 HD
ATOM     13  H   UNL     1       4.863   7.160  -3.049  0.00  0.00    +0.000 HD
ENDBRANCH   6   9
ENDBRANCH   1   3
BRANCH   1  14
ATOM     14  C   UNL     1       3.105  -0.046   0.026  0.00  0.00    +0.000 C 
ATOM     15  C   UNL     1       4.002  -0.607  -1.066  0.00  0.00    +0.000 C 
ATOM     16  C   UNL     1       3.907  -1.328   0.238  0.00  0.00    +0.000 C 
BRANCH  14  21
ATOM     17  C   UNL     1      -2.569  -0.962  -0.382  0.00  0.00    +0.000 C 
ATOM     18  C   UNL     1      -1.114  -0.664  -0.291  0.00  0.00    +0.000 A 
ATOM     19  C   UNL     1      -0.335  -0.347  -1.381  0.00  0.00    +0.000 A 
ATOM     20  N   UNL     1       0.992  -0.121  -1.315  0.00  0.00    +0.000 NA
ATOM     21  C   UNL     1       1.577  -0.218  -0.100  0.00  0.00    +0.000 A 
ATOM     22  N   UNL     1       0.885  -0.488   1.032  0.00  0.00    +0.000 NA
ATOM     23  C   UNL     1      -0.437  -0.708   0.907  0.00  0.00    +0.000 A 
ENDBRANCH  14  21
ENDBRANCH   1  14
TORSDOF 4
