REMARK  Name = 
REMARK  8 active torsions:
REMARK  status: ('A' for Active; 'I' for Inactive)
REMARK    1  A    between atoms: N_1  and  C_2
REMARK    2  A    between atoms: C_2  and  C_3
REMARK    3  A    between atoms: C_2  and  C_17
REMARK    4  A    between atoms: C_3  and  N_4
REMARK    5  A    between atoms: C_5  and  C_7
REMARK    6  A    between atoms: C_20  and  C_21
REMARK    7  A    between atoms: C_21  and  N_22
REMARK    8  A    between atoms: C_23  and  C_25
REMARK                            x       y       z     vdW  Elec       q    Type
REMARK                         _______ _______ _______ _____ _____    ______ ____
ROOT
ATOM      1  C   UNL     1       2.532   0.112  -0.029  0.00  0.00    +0.000 C 
ENDROOT
BRANCH   1   2
ATOM      2  C   UNL     1       2.922  -0.551   1.289  0.00  0.00    +0.000 A 
ATOM      3  C   UNL     1       3.273   0.226   2.406  0.00  0.00    +0.000 A 
ATOM      4  C   UNL     1       3.581  -0.364   3.636  0.00  0.00    +0.000 A 
ATOM      5  C   UNL     1       3.538  -1.754   3.787  0.00  0.00    +0.000 A 
ATOM      6  C   UNL     1       3.181  -2.536   2.686  0.00  0.00    +0.000 A 
ATOM      7  C   UNL     1       2.878  -1.944   1.458  0.00  0.00    +0.000 A 
BRANCH   5   8
ATOM      8  C   UNL     1       3.852  -2.407   5.103  0.00  0.00    +0.000 C 
BRANCH   8   9
ATOM      9  N   UNL     1       2.678  -2.610   5.912  0.00  0.00    +0.000 N 
ATOM     10  C   UNL     1       2.754  -3.167   7.168  0.00  0.00    +0.000 C 
ATOM     11  O   UNL     1       3.804  -3.568   7.664  0.00  0.00    +0.000 OA
ATOM     12  H   UNL     1       1.754  -2.343   5.583  0.00  0.00    +0.000 HD
BRANCH  10  13
ATOM     13  C   UNL     1       1.402  -3.327   7.877  0.00  0.00    +0.000 C 
ATOM     14  C   UNL     1       0.733  -4.646   7.544  0.00  0.00    +0.000 C 
ATOM     15  C   UNL     1      -0.713  -4.392   7.925  0.00  0.00    +0.000 C 
ATOM     16  C   UNL     1      -0.917  -2.901   7.689  0.00  0.00    +0.000 C 
ATOM     17  N   UNL     1       0.405  -2.341   7.388  0.00  0.00    +0.000 NA
ATOM     18  H   UNL     1       0.537  -1.454   7.875  0.00  0.00    +0.000 HD
ENDBRANCH  10  13
ENDBRANCH   8   9
ENDBRANCH   5   8
ENDBRANCH   1   2
BRANCH   1  19
ATOM     19  N   UNL     1       3.194   1.425  -0.181  0.00  0.00    +0.000 NA
ATOM     20  H   UNL     1       3.059   1.746  -1.139  0.00  0.00    +0.000 HD
ATOM     21  H   UNL     1       4.203   1.271  -0.122  0.00  0.00    +0.000 HD
ENDBRANCH   1  19
BRANCH   1  22
ATOM     22  C   UNL     1       2.798  -0.792  -1.265  0.00  0.00    +0.000 C 
BRANCH  22  23
ATOM     23  N   UNL     1       2.355  -0.207  -2.513  0.00  0.00    +0.000 N 
ATOM     24  C   UNL     1       3.184   0.533  -3.305  0.00  0.00    +0.000 C 
ATOM     25  O   UNL     1       4.349   0.771  -2.998  0.00  0.00    +0.000 OA
ATOM     26  H   UNL     1       1.352  -0.207  -2.686  0.00  0.00    +0.000 HD
BRANCH  24  27
ATOM     27  C   UNL     1       2.616   1.001  -4.564  0.00  0.00    +0.000 A 
ATOM     28  C   UNL     1       3.446   1.242  -5.647  0.00  0.00    +0.000 A 
ATOM     29  S   UNL     1       2.601   1.734  -7.043  0.00  0.00    +0.000 S 
ATOM     30  C   UNL     1       1.108   1.694  -6.223  0.00  0.00    +0.000 A 
ATOM     31  N   UNL     1      -0.049   2.037  -6.844  0.00  0.00    +0.000 NA
ATOM     32  C   UNL     1      -1.094   1.999  -6.093  0.00  0.00    +0.000 A 
ATOM     33  N   UNL     1      -1.094   1.639  -4.767  0.00  0.00    +0.000 N 
ATOM     34  C   UNL     1       0.042   1.234  -4.108  0.00  0.00    +0.000 A 
ATOM     35  O   UNL     1      -0.004   0.829  -2.953  0.00  0.00    +0.000 OA
ATOM     36  C   UNL     1       1.250   1.286  -4.908  0.00  0.00    +0.000 A 
ATOM     37  H   UNL     1      -1.950   1.611  -4.233  0.00  0.00    +0.000 HD
ENDBRANCH  24  27
ENDBRANCH  22  23
ENDBRANCH   1  22
TORSDOF 8
