REMARK  Name = 
REMARK  8 active torsions:
REMARK  status: ('A' for Active; 'I' for Inactive)
REMARK    1  A    between atoms: N_1  and  C_2
REMARK    2  A    between atoms: C_2  and  C_3
REMARK    3  A    between atoms: C_2  and  C_18
REMARK    4  A    between atoms: C_3  and  C_4
REMARK    5  A    between atoms: C_7  and  C_8
REMARK    6  A    between atoms: C_8  and  O_9
REMARK    7  A    between atoms: O_9  and  C_10
REMARK    8  A    between atoms: C_18  and  C_20
REMARK                            x       y       z     vdW  Elec       q    Type
REMARK                         _______ _______ _______ _____ _____    ______ ____
ROOT
ATOM      1  C   UNL     1       2.437   0.024   0.140  0.00  0.00    +0.000 C 
ENDROOT
BRANCH   1   2
ATOM      2  N   UNL     1       2.981   0.814  -0.995  0.00  0.00    +0.000 NA
ATOM      3  H   UNL     1       3.995   0.711  -1.019  0.00  0.00    +0.000 HD
ATOM      4  H   UNL     1       2.828   1.806  -0.785  0.00  0.00    +0.000 HD
ENDBRANCH   1   2
BRANCH   1   5
ATOM      5  C   UNL     1       2.845   0.690   1.485  0.00  0.00    +0.000 C 
ATOM      6  O   UNL     1       3.180   1.877   1.518  0.00  0.00    +0.000 OA
BRANCH   5   7
ATOM      7  C   UNL     1       2.880  -0.135   2.705  0.00  0.00    +0.000 A 
ATOM      8  C   UNL     1       3.144  -1.496   2.692  0.00  0.00    +0.000 A 
ATOM      9  S   UNL     1       3.234  -2.193   4.250  0.00  0.00    +0.000 S 
ATOM     10  C   UNL     1       2.927  -0.696   4.997  0.00  0.00    +0.000 A 
ATOM     11  N   UNL     1       2.898  -0.591   6.350  0.00  0.00    +0.000 NA
ATOM     12  C   UNL     1       2.679   0.607   6.784  0.00  0.00    +0.000 A 
ATOM     13  N   UNL     1       2.461   1.700   5.985  0.00  0.00    +0.000 N 
ATOM     14  C   UNL     1       2.363   1.620   4.612  0.00  0.00    +0.000 A 
ATOM     15  O   UNL     1       1.938   2.559   3.953  0.00  0.00    +0.000 OA
ATOM     16  C   UNL     1       2.712   0.313   4.072  0.00  0.00    +0.000 A 
ATOM     17  H   UNL     1       2.221   2.594   6.389  0.00  0.00    +0.000 HD
ENDBRANCH   5   7
ENDBRANCH   1   5
BRANCH   1  18
ATOM     18  C   UNL     1       0.903  -0.085   0.082  0.00  0.00    +0.000 C 
BRANCH  18  19
ATOM     19  C   UNL     1       0.358  -0.721  -1.180  0.00  0.00    +0.000 A 
ATOM     20  C   UNL     1       0.691  -2.034  -1.541  0.00  0.00    +0.000 A 
ATOM     21  C   UNL     1       0.179  -2.602  -2.712  0.00  0.00    +0.000 A 
ATOM     22  C   UNL     1      -0.674  -1.869  -3.545  0.00  0.00    +0.000 A 
ATOM     23  C   UNL     1      -1.025  -0.565  -3.174  0.00  0.00    +0.000 A 
ATOM     24  C   UNL     1      -0.511   0.003  -2.007  0.00  0.00    +0.000 A 
BRANCH  22  25
ATOM     25  C   UNL     1      -1.207  -2.464  -4.825  0.00  0.00    +0.000 C 
BRANCH  25  26
ATOM     26  O   UNL     1      -2.422  -3.161  -4.546  0.00  0.00    +0.000 OA
BRANCH  26  27
ATOM     27  C   UNL     1      -2.998  -3.674  -5.689  0.00  0.00    +0.000 A 
ATOM     28  C   UNL     1      -4.185  -4.382  -5.560  0.00  0.00    +0.000 A 
ATOM     29  N   UNL     1      -4.836  -4.921  -6.622  0.00  0.00    +0.000 NA
ATOM     30  C   UNL     1      -4.244  -4.716  -7.821  0.00  0.00    +0.000 A 
ATOM     31  C   UNL     1      -3.059  -4.010  -7.951  0.00  0.00    +0.000 A 
ATOM     32  N   UNL     1      -2.409  -3.477  -6.892  0.00  0.00    +0.000 NA
ENDBRANCH  26  27
ENDBRANCH  25  26
ENDBRANCH  22  25
ENDBRANCH  18  19
ENDBRANCH   1  18
TORSDOF 8
