REMARK  Name = 
REMARK  6 active torsions:
REMARK  status: ('A' for Active; 'I' for Inactive)
REMARK    1  A    between atoms: C_2  and  C_18
REMARK    2  A    between atoms: N_3  and  C_4
REMARK    3  A    between atoms: C_4  and  C_5
REMARK    4  A    between atoms: C_8  and  C_9
REMARK    5  A    between atoms: C_9  and  O_10
REMARK    6  A    between atoms: C_9  and  C_11
REMARK                            x       y       z     vdW  Elec       q    Type
REMARK                         _______ _______ _______ _____ _____    ______ ____
ROOT
ATOM      1  C   UNL     1       4.536  -0.300 -11.429  0.00  0.00    +0.000 C 
ENDROOT
BRANCH   1   2
ATOM      2  C   UNL     1       4.930   0.408 -10.168  0.00  0.00    +0.000 A 
ATOM      3  C   UNL     1       6.041   1.247 -10.116  0.00  0.00    +0.000 A 
ATOM      4  C   UNL     1       6.367   1.889  -8.923  0.00  0.00    +0.000 A 
ATOM      5  C   UNL     1       5.576   1.674  -7.794  0.00  0.00    +0.000 A 
ATOM      6  N   UNL     1       4.462   0.898  -7.842  0.00  0.00    +0.000 NA
ATOM      7  C   UNL     1       4.167   0.291  -9.015  0.00  0.00    +0.000 A 
BRANCH   5   8
ATOM      8  C   UNL     1       5.930   2.338  -6.467  0.00  0.00    +0.000 C 
BRANCH   8   9
ATOM      9  C   UNL     1       5.481   1.507  -5.238  0.00  0.00    +0.000 C 
ATOM     10  C   UNL     1       5.733   2.202  -3.904  0.00  0.00    +0.000 C 
ATOM     11  C   UNL     1       5.619   1.058  -2.911  0.00  0.00    +0.000 C 
ATOM     12  C   UNL     1       6.081  -0.169  -3.684  0.00  0.00    +0.000 C 
ATOM     13  N   UNL     1       6.285   0.270  -5.067  0.00  0.00    +0.000 NA
ATOM     14  H   UNL     1       5.928  -0.435  -5.718  0.00  0.00    +0.000 HD
ENDBRANCH   8   9
BRANCH   8  15
ATOM     15  O   UNL     1       7.352   2.545  -6.387  0.00  0.00    +0.000 OA
ATOM     16  H   UNL     1       7.691   1.681  -6.073  0.00  0.00    +0.000 HD
ENDBRANCH   8  15
ENDBRANCH   5   8
ENDBRANCH   1   2
BRANCH   1  19
ATOM     17  O   UNL     1       3.654  -0.934 -13.982  0.00  0.00    +0.000 OA
ATOM     18  C   UNL     1       3.246   0.104 -13.468  0.00  0.00    +0.000 C 
ATOM     19  N   UNL     1       3.683   0.527 -12.240  0.00  0.00    +0.000 N 
ATOM     20  H   UNL     1       3.178   1.272 -11.767  0.00  0.00    +0.000 HD
BRANCH  18  21
ATOM     21  C   UNL     1       2.297   0.983 -14.160  0.00  0.00    +0.000 A 
ATOM     22  C   UNL     1       2.196   0.939 -15.543  0.00  0.00    +0.000 A 
ATOM     23  S   UNL     1       1.067   2.046 -16.181  0.00  0.00    +0.000 S 
ATOM     24  C   UNL     1       0.642   2.591 -14.627  0.00  0.00    +0.000 A 
ATOM     25  N   UNL     1      -0.314   3.546 -14.457  0.00  0.00    +0.000 NA
ATOM     26  C   UNL     1      -0.566   3.833 -13.223  0.00  0.00    +0.000 A 
ATOM     27  N   UNL     1       0.056   3.261 -12.144  0.00  0.00    +0.000 N 
ATOM     28  C   UNL     1       1.052   2.321 -12.268  0.00  0.00    +0.000 A 
ATOM     29  O   UNL     1       1.626   1.866 -11.284  0.00  0.00    +0.000 OA
ATOM     30  C   UNL     1       1.361   1.949 -13.635  0.00  0.00    +0.000 A 
ATOM     31  H   UNL     1      -0.180   3.540 -11.202  0.00  0.00    +0.000 HD
ENDBRANCH  18  21
ENDBRANCH   1  19
TORSDOF 6
