REMARK  Name = 
REMARK  6 active torsions:
REMARK  status: ('A' for Active; 'I' for Inactive)
REMARK    1  A    between atoms: C_2  and  C_25
REMARK    2  A    between atoms: N_3  and  C_4
REMARK    3  A    between atoms: C_4  and  C_5
REMARK    4  A    between atoms: C_8  and  C_9
REMARK    5  A    between atoms: C_9  and  N_10
REMARK    6  A    between atoms: C_11  and  C_13
REMARK                            x       y       z     vdW  Elec       q    Type
REMARK                         _______ _______ _______ _____ _____    ______ ____
ROOT
ATOM      1  C   UNL     1       3.211   2.496   2.820  0.00  0.00    +0.000 A 
ATOM      2  C   UNL     1       3.104   3.887   2.888  0.00  0.00    +0.000 A 
ATOM      3  C   UNL     1       3.944   4.608   3.734  0.00  0.00    +0.000 A 
ATOM      4  C   UNL     1       4.861   3.917   4.521  0.00  0.00    +0.000 A 
ATOM      5  N   UNL     1       4.993   2.567   4.464  0.00  0.00    +0.000 NA
ATOM      6  C   UNL     1       4.174   1.894   3.622  0.00  0.00    +0.000 A 
ENDROOT
BRANCH   1   7
ATOM      7  C   UNL     1       2.323   1.684   1.930  0.00  0.00    +0.000 C 
BRANCH   7  10
ATOM      8  O   UNL     1       0.316   0.146   0.748  0.00  0.00    +0.000 OA
ATOM      9  C   UNL     1       0.173   0.509   1.911  0.00  0.00    +0.000 C 
ATOM     10  N   UNL     1       1.119   1.247   2.593  0.00  0.00    +0.000 N 
ATOM     11  H   UNL     1       0.899   1.530   3.545  0.00  0.00    +0.000 HD
BRANCH   9  12
ATOM     12  C   UNL     1      -1.069   0.176   2.682  0.00  0.00    +0.000 A 
ATOM     13  C   UNL     1      -2.063  -0.586   2.072  0.00  0.00    +0.000 A 
ATOM     14  C   UNL     1      -3.218  -0.865   2.795  0.00  0.00    +0.000 A 
ATOM     15  C   UNL     1      -3.341  -0.379   4.092  0.00  0.00    +0.000 A 
ATOM     16  C   UNL     1      -2.298   0.368   4.622  0.00  0.00    +0.000 A 
ATOM     17  N   UNL     1      -1.159   0.661   3.952  0.00  0.00    +0.000 NA
ENDBRANCH   9  12
ENDBRANCH   7  10
ENDBRANCH   1   7
BRANCH   4  18
ATOM     18  C   UNL     1       5.745   4.664   5.492  0.00  0.00    +0.000 C 
BRANCH  18  19
ATOM     19  N   UNL     1       7.004   5.066   4.908  0.00  0.00    +0.000 N 
ATOM     20  C   UNL     1       7.214   6.317   4.392  0.00  0.00    +0.000 C 
ATOM     21  O   UNL     1       6.342   7.181   4.401  0.00  0.00    +0.000 OA
ATOM     22  H   UNL     1       7.655   4.314   4.706  0.00  0.00    +0.000 HD
BRANCH  20  23
ATOM     23  C   UNL     1       8.563   6.596   3.875  0.00  0.00    +0.000 A 
ATOM     24  C   UNL     1       9.003   7.910   3.783  0.00  0.00    +0.000 A 
ATOM     25  S   UNL     1      10.594   8.061   3.187  0.00  0.00    +0.000 S 
ATOM     26  C   UNL     1      10.741   6.377   2.998  0.00  0.00    +0.000 A 
ATOM     27  N   UNL     1      11.878   5.825   2.494  0.00  0.00    +0.000 NA
ATOM     28  C   UNL     1      11.845   4.540   2.382  0.00  0.00    +0.000 A 
ATOM     29  N   UNL     1      10.779   3.754   2.737  0.00  0.00    +0.000 N 
ATOM     30  C   UNL     1       9.630   4.261   3.293  0.00  0.00    +0.000 A 
ATOM     31  O   UNL     1       8.733   3.522   3.681  0.00  0.00    +0.000 OA
ATOM     32  C   UNL     1       9.602   5.707   3.409  0.00  0.00    +0.000 A 
ATOM     33  H   UNL     1      10.823   2.749   2.648  0.00  0.00    +0.000 HD
ENDBRANCH  20  23
ENDBRANCH  18  19
ENDBRANCH   4  18
TORSDOF 6
