REMARK  Name = 
REMARK  3 active torsions:
REMARK  status: ('A' for Active; 'I' for Inactive)
REMARK    1  A    between atoms: C_11  and  C_12
REMARK    2  A    between atoms: C_12  and  O_13
REMARK    3  A    between atoms: O_13  and  C_14
REMARK                            x       y       z     vdW  Elec       q    Type
REMARK                         _______ _______ _______ _____ _____    ______ ____
ROOT
ATOM      1  F   UNL     1       1.009   0.059  -0.130  0.00  0.00    +0.000 F 
ATOM      2  C   UNL     1       2.241  -0.519  -0.109  0.00  0.00    +0.000 C 
ATOM      3  F   UNL     1       2.529  -0.740   1.201  0.00  0.00    +0.000 F 
ATOM      4  C   UNL     1       3.253   0.458  -0.678  0.00  0.00    +0.000 C 
ATOM      5  C   UNL     1       3.007   0.622  -2.166  0.00  0.00    +0.000 C 
ATOM      6  N   UNL     1       3.043  -0.704  -2.772  0.00  0.00    +0.000 N 
ATOM      7  C   UNL     1       3.813  -1.004  -3.878  0.00  0.00    +0.000 A 
ATOM      8  C   UNL     1       5.039  -0.395  -4.077  0.00  0.00    +0.000 A 
ATOM      9  C   UNL     1       5.769  -0.768  -5.181  0.00  0.00    +0.000 A 
ATOM     10  N   UNL     1       5.348  -1.673  -6.071  0.00  0.00    +0.000 NA
ATOM     11  C   UNL     1       4.151  -2.234  -5.815  0.00  0.00    +0.000 A 
ATOM     12  N   UNL     1       3.378  -1.936  -4.745  0.00  0.00    +0.000 NA
ATOM     13  C   UNL     1       1.990  -1.619  -2.335  0.00  0.00    +0.000 C 
ATOM     14  C   UNL     1       2.179  -1.848  -0.839  0.00  0.00    +0.000 C 
ENDROOT
BRANCH  11  15
ATOM     15  C   UNL     1       3.606  -3.201  -6.843  0.00  0.00    +0.000 C 
BRANCH  15  16
ATOM     16  O   UNL     1       4.051  -4.538  -6.589  0.00  0.00    +0.000 OA
BRANCH  16  17
ATOM     17  C   UNL     1       3.678  -5.478  -7.507  0.00  0.00    +0.000 A 
ATOM     18  C   UNL     1       2.869  -5.268  -8.624  0.00  0.00    +0.000 A 
ATOM     19  C   UNL     1       2.571  -6.333  -9.474  0.00  0.00    +0.000 A 
ATOM     20  C   UNL     1       3.090  -7.581  -9.176  0.00  0.00    +0.000 A 
ATOM     21  N   UNL     1       3.874  -7.829  -8.107  0.00  0.00    +0.000 NA
ATOM     22  C   UNL     1       4.147  -6.771  -7.301  0.00  0.00    +0.000 A 
ENDBRANCH  16  17
ENDBRANCH  15  16
ENDBRANCH  11  15
TORSDOF 3
