REMARK  Name = 
REMARK  6 active torsions:
REMARK  status: ('A' for Active; 'I' for Inactive)
REMARK    1  A    between atoms: C_1  and  C_2
REMARK    2  A    between atoms: N_4  and  C_5
REMARK    3  A    between atoms: C_9  and  C_10
REMARK    4  A    between atoms: C_10  and  C_11
REMARK    5  A    between atoms: C_11  and  C_12
REMARK    6  A    between atoms: C_20  and  C_21
REMARK                            x       y       z     vdW  Elec       q    Type
REMARK                         _______ _______ _______ _____ _____    ______ ____
ROOT
ATOM      1  C   UNL     1       1.931   1.421  -3.192  0.00  0.00    +0.000 A 
ATOM      2  C   UNL     1       2.347   2.712  -3.540  0.00  0.00    +0.000 A 
ATOM      3  C   UNL     1       1.604   3.522  -4.406  0.00  0.00    +0.000 A 
ATOM      4  C   UNL     1       0.422   3.050  -4.967  0.00  0.00    +0.000 A 
ATOM      5  C   UNL     1      -0.019   1.757  -4.682  0.00  0.00    +0.000 A 
ATOM      6  C   UNL     1       0.734   0.977  -3.781  0.00  0.00    +0.000 A 
ENDROOT
BRANCH   1  10
ATOM      7  C   UNL     1       1.965   1.322   0.743  0.00  0.00    +0.000 C 
ATOM      8  C   UNL     1       3.165   0.599   0.125  0.00  0.00    +0.000 C 
ATOM      9  C   UNL     1       3.521   1.188  -1.271  0.00  0.00    +0.000 C 
ATOM     10  N   UNL     1       2.645   0.632  -2.311  0.00  0.00    +0.000 N 
ATOM     11  C   UNL     1       2.612  -0.836  -2.346  0.00  0.00    +0.000 C 
ATOM     12  C   UNL     1       2.215  -1.417  -0.965  0.00  0.00    +0.000 C 
ATOM     13  C   UNL     1       0.709  -1.324  -0.712  0.00  0.00    +0.000 C 
ATOM     14  N   UNL     1       3.011  -0.878   0.167  0.00  0.00    +0.000 NA
ATOM     15  H   UNL     1       3.950  -1.269   0.070  0.00  0.00    +0.000 HD
ENDBRANCH   1  10
BRANCH   5  16
ATOM     16  C   UNL     1      -1.302   1.181  -5.243  0.00  0.00    +0.000 C 
BRANCH  16  17
ATOM     17  C   UNL     1      -1.656   1.653  -6.658  0.00  0.00    +0.000 C 
BRANCH  17  18
ATOM     18  C   UNL     1      -2.881   0.961  -7.204  0.00  0.00    +0.000 A 
ATOM     19  C   UNL     1      -4.152   1.520  -7.017  0.00  0.00    +0.000 A 
ATOM     20  C   UNL     1      -5.283   0.894  -7.544  0.00  0.00    +0.000 A 
ATOM     21  C   UNL     1      -5.154  -0.298  -8.253  0.00  0.00    +0.000 A 
ATOM     22  C   UNL     1      -3.896  -0.873  -8.427  0.00  0.00    +0.000 A 
ATOM     23  C   UNL     1      -2.764  -0.248  -7.902  0.00  0.00    +0.000 A 
ENDBRANCH  17  18
ENDBRANCH  16  17
ENDBRANCH   5  16
TORSDOF 4
