REMARK  Name = 
REMARK  8 active torsions:
REMARK  status: ('A' for Active; 'I' for Inactive)
REMARK    1  A    between atoms: C_2  and  C_21
REMARK    2  A    between atoms: N_3  and  C_4
REMARK    3  A    between atoms: C_4  and  C_5
REMARK    4  A    between atoms: C_8  and  C_9
REMARK    5  A    between atoms: C_9  and  C_10
REMARK    6  A    between atoms: C_9  and  C_12
REMARK    7  A    between atoms: C_10  and  O_11
REMARK    8  A    between atoms: C_12  and  C_13
REMARK                            x       y       z     vdW  Elec       q    Type
REMARK                         _______ _______ _______ _____ _____    ______ ____
ROOT
ATOM      1  C   UNL     1       3.004  -1.652   3.325  0.00  0.00    +0.000 A 
ATOM      2  C   UNL     1       3.829  -0.811   4.081  0.00  0.00    +0.000 A 
ATOM      3  C   UNL     1       4.671  -1.338   5.067  0.00  0.00    +0.000 A 
ATOM      4  C   UNL     1       4.713  -2.719   5.309  0.00  0.00    +0.000 A 
ATOM      5  C   UNL     1       3.878  -3.553   4.549  0.00  0.00    +0.000 A 
ATOM      6  C   UNL     1       3.050  -3.030   3.559  0.00  0.00    +0.000 A 
ENDROOT
BRANCH   1   7
ATOM      7  C   UNL     1       2.104  -1.095   2.256  0.00  0.00    +0.000 C 
BRANCH   7  10
ATOM      8  O   UNL     1       3.250   1.240   1.211  0.00  0.00    +0.000 OA
ATOM      9  C   UNL     1       3.362   0.193   0.579  0.00  0.00    +0.000 C 
ATOM     10  N   UNL     1       2.790  -0.980   0.996  0.00  0.00    +0.000 N 
ATOM     11  H   UNL     1       3.045  -1.850   0.539  0.00  0.00    +0.000 HD
BRANCH   9  12
ATOM     12  C   UNL     1       4.077   0.152  -0.702  0.00  0.00    +0.000 A 
ATOM     13  C   UNL     1       4.250   1.323  -1.428  0.00  0.00    +0.000 A 
ATOM     14  S   UNL     1       5.126   1.108  -2.875  0.00  0.00    +0.000 S 
ATOM     15  C   UNL     1       5.339  -0.551  -2.561  0.00  0.00    +0.000 A 
ATOM     16  N   UNL     1       6.062  -1.334  -3.406  0.00  0.00    +0.000 NA
ATOM     17  C   UNL     1       6.182  -2.559  -3.026  0.00  0.00    +0.000 A 
ATOM     18  N   UNL     1       5.623  -3.083  -1.887  0.00  0.00    +0.000 N 
ATOM     19  C   UNL     1       4.798  -2.354  -1.060  0.00  0.00    +0.000 A 
ATOM     20  O   UNL     1       4.167  -2.897  -0.160  0.00  0.00    +0.000 OA
ATOM     21  C   UNL     1       4.705  -0.946  -1.399  0.00  0.00    +0.000 A 
ATOM     22  H   UNL     1       5.711  -4.066  -1.672  0.00  0.00    +0.000 HD
ENDBRANCH   9  12
ENDBRANCH   7  10
ENDBRANCH   1   7
BRANCH   4  23
ATOM     23  C   UNL     1       5.652  -3.275   6.378  0.00  0.00    +0.000 C 
BRANCH  23  24
ATOM     24  C   UNL     1       4.954  -3.286   7.753  0.00  0.00    +0.000 C 
BRANCH  24  25
ATOM     25  O   UNL     1       3.822  -4.154   7.773  0.00  0.00    +0.000 OA
ATOM     26  H   UNL     1       3.156  -3.747   7.190  0.00  0.00    +0.000 HD
ENDBRANCH  24  25
ENDBRANCH  23  24
BRANCH  23  27
ATOM     27  C   UNL     1       6.225  -4.680   6.073  0.00  0.00    +0.000 C 
BRANCH  27  28
ATOM     28  C   UNL     1       7.020  -4.778   4.789  0.00  0.00    +0.000 A 
ATOM     29  C   UNL     1       6.972  -5.949   4.035  0.00  0.00    +0.000 A 
ATOM     30  C   UNL     1       7.748  -6.043   2.882  0.00  0.00    +0.000 A 
ATOM     31  C   UNL     1       8.546  -4.970   2.511  0.00  0.00    +0.000 A 
ATOM     32  C   UNL     1       8.541  -3.845   3.318  0.00  0.00    +0.000 A 
ATOM     33  N   UNL     1       7.815  -3.735   4.452  0.00  0.00    +0.000 NA
ENDBRANCH  27  28
ENDBRANCH  23  27
ENDBRANCH   4  23
TORSDOF 8
