REMARK  Name = 
REMARK  5 active torsions:
REMARK  status: ('A' for Active; 'I' for Inactive)
REMARK    1  A    between atoms: C_2  and  C_4
REMARK    2  A    between atoms: C_7  and  O_8
REMARK    3  A    between atoms: O_8  and  C_9
REMARK    4  A    between atoms: C_9  and  C_10
REMARK    5  A    between atoms: C_15  and  O_16
REMARK                            x       y       z     vdW  Elec       q    Type
REMARK                         _______ _______ _______ _____ _____    ______ ____
ROOT
ATOM      1  O   UNL     1       5.131   3.165  -3.409  0.00  0.00    +0.000 OA
ENDROOT
BRANCH   1   5
ATOM      2  C   UNL     1       3.119  -0.004  -1.742  0.00  0.00    +0.000 A 
ATOM      3  C   UNL     1       3.890   0.843  -0.951  0.00  0.00    +0.000 A 
ATOM      4  C   UNL     1       4.542   1.911  -1.552  0.00  0.00    +0.000 A 
ATOM      5  C   UNL     1       4.391   2.108  -2.922  0.00  0.00    +0.000 A 
ATOM      6  N   UNL     1       3.652   1.320  -3.724  0.00  0.00    +0.000 NA
ATOM      7  C   UNL     1       3.037   0.267  -3.110  0.00  0.00    +0.000 A 
BRANCH   2   9
ATOM      8  N   UNL     1       2.115  -1.161   0.147  0.00  0.00    +0.000 N 
ATOM      9  C   UNL     1       2.433  -1.190  -1.185  0.00  0.00    +0.000 C 
ATOM     10  O   UNL     1       2.147  -2.153  -1.883  0.00  0.00    +0.000 OA
ATOM     11  H   UNL     1       1.598  -1.950   0.514  0.00  0.00    +0.000 HD
ATOM     12  H   UNL     1       2.140  -0.320   0.707  0.00  0.00    +0.000 HD
ENDBRANCH   2   9
ENDBRANCH   1   5
BRANCH   1  13
ATOM     13  C   UNL     1       4.751   3.782  -4.656  0.00  0.00    +0.000 C 
ATOM     14  C   UNL     1       4.545   5.281  -4.431  0.00  0.00    +0.000 C 
ATOM     15  C   UNL     1       3.381   4.417  -4.779  0.00  0.00    +0.000 C 
BRANCH  13  16
ATOM     16  C   UNL     1       5.573   3.383  -5.876  0.00  0.00    +0.000 A 
ATOM     17  C   UNL     1       4.982   2.857  -7.040  0.00  0.00    +0.000 A 
ATOM     18  C   UNL     1       5.750   2.464  -8.143  0.00  0.00    +0.000 A 
ATOM     19  C   UNL     1       7.136   2.574  -8.104  0.00  0.00    +0.000 A 
ATOM     20  C   UNL     1       7.755   3.094  -6.972  0.00  0.00    +0.000 A 
ATOM     21  C   UNL     1       6.977   3.497  -5.883  0.00  0.00    +0.000 A 
BRANCH  21  22
ATOM     22  O   UNL     1       7.599   4.023  -4.779  0.00  0.00    +0.000 OA
ATOM     23  H   UNL     1       8.555   3.906  -4.874  0.00  0.00    +0.000 HD
ENDBRANCH  21  22
ENDBRANCH  13  16
ENDBRANCH   1  13
TORSDOF 5
