REMARK  Name = 
REMARK  3 active torsions:
REMARK  status: ('A' for Active; 'I' for Inactive)
REMARK    1  A    between atoms: C_2  and  C_4
REMARK    2  A    between atoms: N_8  and  C_9
REMARK    3  A    between atoms: C_9  and  C_10
REMARK                            x       y       z     vdW  Elec       q    Type
REMARK                         _______ _______ _______ _____ _____    ______ ____
ROOT
ATOM      1  C   UNL     1       3.209   1.095   0.550  0.00  0.00    +0.000 A 
ATOM      2  C   UNL     1       3.708   1.805  -0.538  0.00  0.00    +0.000 A 
ATOM      3  C   UNL     1       4.374   3.006  -0.313  0.00  0.00    +0.000 A 
ATOM      4  C   UNL     1       4.506   3.498   0.987  0.00  0.00    +0.000 A 
ATOM      5  N   UNL     1       5.100   4.749   1.136  0.00  0.00    +0.000 N 
ATOM      6  N   UNL     1       4.021   2.827   2.048  0.00  0.00    +0.000 NA
ATOM      7  C   UNL     1       3.387   1.646   1.812  0.00  0.00    +0.000 A 
ATOM      8  H   UNL     1       6.045   4.746   0.765  0.00  0.00    +0.000 HD
ENDROOT
BRANCH   1  10
ATOM      9  N   UNL     1       2.703  -0.919  -0.714  0.00  0.00    +0.000 N 
ATOM     10  C   UNL     1       2.474  -0.180   0.413  0.00  0.00    +0.000 C 
ATOM     11  O   UNL     1       1.712  -0.573   1.284  0.00  0.00    +0.000 OA
ATOM     12  H   UNL     1       2.255  -1.827  -0.756  0.00  0.00    +0.000 HD
ATOM     13  H   UNL     1       3.475  -0.749  -1.341  0.00  0.00    +0.000 HD
ENDBRANCH   1  10
BRANCH   5  14
ATOM     14  C   UNL     1       5.004   5.377   2.440  0.00  0.00    +0.000 C 
BRANCH  14  15
ATOM     15  C   UNL     1       5.348   6.831   2.254  0.00  0.00    +0.000 A 
ATOM     16  C   UNL     1       6.623   7.338   2.520  0.00  0.00    +0.000 A 
ATOM     17  C   UNL     1       6.900   8.676   2.250  0.00  0.00    +0.000 A 
ATOM     18  C   UNL     1       5.891   9.465   1.719  0.00  0.00    +0.000 A 
ATOM     19  N   UNL     1       4.650   9.012   1.447  0.00  0.00    +0.000 NA
ATOM     20  C   UNL     1       4.410   7.708   1.714  0.00  0.00    +0.000 A 
ENDBRANCH  14  15
ENDBRANCH   5  14
TORSDOF 3
