REMARK  Name = 
REMARK  9 active torsions:
REMARK  status: ('A' for Active; 'I' for Inactive)
REMARK    1  A    between atoms: C_1  and  C_2
REMARK    2  A    between atoms: C_2  and  C_3
REMARK    3  A    between atoms: C_3  and  N_4
REMARK    4  A    between atoms: C_3  and  C_26
REMARK    5  A    between atoms: N_4  and  C_5
REMARK    6  A    between atoms: C_5  and  C_6
REMARK    7  A    between atoms: C_9  and  C_10
REMARK    8  A    between atoms: C_10  and  N_11
REMARK    9  A    between atoms: C_12  and  C_14
REMARK                            x       y       z     vdW  Elec       q    Type
REMARK                         _______ _______ _______ _____ _____    ______ ____
ROOT
ATOM      1  C   UNL     1       1.962   2.340   0.143  0.00  0.00    +0.000 A 
ATOM      2  C   UNL     1       2.394   2.903   1.346  0.00  0.00    +0.000 A 
ATOM      3  C   UNL     1       1.646   3.909   1.948  0.00  0.00    +0.000 A 
ATOM      4  C   UNL     1       0.469   4.330   1.335  0.00  0.00    +0.000 A 
ATOM      5  N   UNL     1       0.045   3.823   0.149  0.00  0.00    +0.000 NA
ATOM      6  C   UNL     1       0.795   2.847  -0.414  0.00  0.00    +0.000 A 
ENDROOT
BRANCH   1   7
ATOM      7  C   UNL     1       2.770   1.274  -0.544  0.00  0.00    +0.000 C 
BRANCH   7   8
ATOM      8  N   UNL     1       2.966   0.101   0.316  0.00  0.00    +0.000 NA
ATOM      9  H   UNL     1       2.043  -0.234   0.604  0.00  0.00    +0.000 HD
BRANCH   8  10
ATOM     10  C   UNL     1       3.628  -1.019  -0.394  0.00  0.00    +0.000 C 
BRANCH  10  11
ATOM     11  C   UNL     1       3.731  -2.270   0.486  0.00  0.00    +0.000 A 
ATOM     12  C   UNL     1       4.302  -2.231   1.762  0.00  0.00    +0.000 A 
ATOM     13  C   UNL     1       4.455  -3.423   2.472  0.00  0.00    +0.000 A 
ATOM     14  C   UNL     1       4.045  -4.618   1.897  0.00  0.00    +0.000 A 
ATOM     15  C   UNL     1       3.483  -4.573   0.634  0.00  0.00    +0.000 A 
ATOM     16  N   UNL     1       3.313  -3.435  -0.075  0.00  0.00    +0.000 NA
ENDBRANCH  10  11
BRANCH  10  18
ATOM     17  C   UNL     1       5.613  -1.718  -1.851  0.00  0.00    +0.000 C 
ATOM     18  C   UNL     1       5.022  -0.642  -0.947  0.00  0.00    +0.000 C 
ENDBRANCH  10  18
ENDBRANCH   8  10
ENDBRANCH   7   8
ENDBRANCH   1   7
BRANCH   4  19
ATOM     19  C   UNL     1      -0.342   5.445   1.952  0.00  0.00    +0.000 C 
BRANCH  19  20
ATOM     20  N   UNL     1       0.087   6.725   1.439  0.00  0.00    +0.000 N 
ATOM     21  C   UNL     1       0.068   7.867   2.190  0.00  0.00    +0.000 C 
ATOM     22  O   UNL     1      -0.268   7.869   3.371  0.00  0.00    +0.000 OA
ATOM     23  H   UNL     1       0.153   6.782   0.427  0.00  0.00    +0.000 HD
BRANCH  21  24
ATOM     24  C   UNL     1       0.550   9.086   1.528  0.00  0.00    +0.000 A 
ATOM     25  C   UNL     1       1.024  10.143   2.294  0.00  0.00    +0.000 A 
ATOM     26  S   UNL     1       1.604  11.452   1.367  0.00  0.00    +0.000 S 
ATOM     27  C   UNL     1       1.195  10.672  -0.090  0.00  0.00    +0.000 A 
ATOM     28  N   UNL     1       1.418  11.272  -1.290  0.00  0.00    +0.000 NA
ATOM     29  C   UNL     1       1.040  10.578  -2.312  0.00  0.00    +0.000 A 
ATOM     30  N   UNL     1       0.456   9.341  -2.242  0.00  0.00    +0.000 N 
ATOM     31  C   UNL     1       0.236   8.685  -1.052  0.00  0.00    +0.000 A 
ATOM     32  O   UNL     1      -0.260   7.562  -1.029  0.00  0.00    +0.000 OA
ATOM     33  C   UNL     1       0.636   9.426   0.129  0.00  0.00    +0.000 A 
ATOM     34  H   UNL     1       0.185   8.846  -3.080  0.00  0.00    +0.000 HD
ENDBRANCH  21  24
ENDBRANCH  19  20
ENDBRANCH   4  19
TORSDOF 8
