REMARK  Name = 
REMARK  6 active torsions:
REMARK  status: ('A' for Active; 'I' for Inactive)
REMARK    1  A    between atoms: N_1  and  C_2
REMARK    2  A    between atoms: C_2  and  C_3
REMARK    3  A    between atoms: C_7  and  C_8
REMARK    4  A    between atoms: C_8  and  C_9
REMARK    5  A    between atoms: C_9  and  N_10
REMARK    6  A    between atoms: C_14  and  C_15
REMARK                            x       y       z     vdW  Elec       q    Type
REMARK                         _______ _______ _______ _____ _____    ______ ____
ROOT
ATOM      1  N   UNL     1       7.348   4.147  -3.980  0.00  0.00    +0.000 N 
ATOM      2  C   UNL     1       7.780   5.440  -4.273  0.00  0.00    +0.000 A 
ATOM      3  N   UNL     1       7.462   6.444  -3.440  0.00  0.00    +0.000 NA
ATOM      4  C   UNL     1       7.828   7.692  -3.797  0.00  0.00    +0.000 A 
ATOM      5  C   UNL     1       8.528   7.984  -4.942  0.00  0.00    +0.000 A 
ATOM      6  C   UNL     1       8.833   6.893  -5.720  0.00  0.00    +0.000 A 
ATOM      7  N   UNL     1       8.468   5.620  -5.412  0.00  0.00    +0.000 NA
ATOM      8  H   UNL     1       7.345   3.643  -4.860  0.00  0.00    +0.000 HD
ENDROOT
BRANCH   5   9
ATOM      9  C   UNL     1       8.828   9.386  -5.266  0.00  0.00    +0.000 C 
ATOM     10  N   UNL     1       9.904   9.652  -6.067  0.00  0.00    +0.000 N 
ATOM     11  O   UNL     1       8.151  10.294  -4.807  0.00  0.00    +0.000 OA
ATOM     12  H   UNL     1      10.614   8.980  -6.316  0.00  0.00    +0.000 HD
ATOM     13  H   UNL     1      10.130  10.633  -6.188  0.00  0.00    +0.000 HD
ENDBRANCH   5   9
BRANCH   1  14
ATOM     14  C   UNL     1       6.094   4.123  -3.220  0.00  0.00    +0.000 C 
BRANCH  14  15
ATOM     15  C   UNL     1       5.682   2.691  -2.858  0.00  0.00    +0.000 C 
BRANCH  15  20
ATOM     16  C   UNL     1       3.212   2.819   0.079  0.00  0.00    +0.000 A 
ATOM     17  C   UNL     1       1.991   2.758  -0.606  0.00  0.00    +0.000 A 
ATOM     18  C   UNL     1       1.962   2.629  -1.994  0.00  0.00    +0.000 A 
ATOM     19  C   UNL     1       3.155   2.582  -2.720  0.00  0.00    +0.000 A 
ATOM     20  C   UNL     1       4.389   2.664  -2.064  0.00  0.00    +0.000 A 
ATOM     21  C   UNL     1       4.406   2.775  -0.663  0.00  0.00    +0.000 A 
BRANCH  16  22
ATOM     22  C   UNL     1       3.233   2.980   1.580  0.00  0.00    +0.000 C 
BRANCH  22  23
ATOM     23  N   UNL     1       2.500   1.914   2.257  0.00  0.00    +0.000 NA
ATOM     24  H   UNL     1       2.591   2.035   3.264  0.00  0.00    +0.000 HD
ATOM     25  H   UNL     1       2.939   1.023   2.032  0.00  0.00    +0.000 HD
ENDBRANCH  22  23
ENDBRANCH  16  22
ENDBRANCH  15  20
ENDBRANCH  14  15
ENDBRANCH   1  14
TORSDOF 6
