REMARK  Name = 
REMARK  4 active torsions:
REMARK  status: ('A' for Active; 'I' for Inactive)
REMARK    1  A    between atoms: N_1  and  C_2
REMARK    2  A    between atoms: C_2  and  C_3
REMARK    3  A    between atoms: C_6  and  C_7
REMARK    4  A    between atoms: C_7  and  N_8
REMARK                            x       y       z     vdW  Elec       q    Type
REMARK                         _______ _______ _______ _____ _____    ______ ____
ROOT
ATOM      1  C   UNL     1       3.617   3.864   4.214  0.00  0.00    +0.000 C 
ENDROOT
BRANCH   1   2
ATOM      2  N   UNL     1       3.441   5.258   3.807  0.00  0.00    +0.000 N 
ATOM      3  C   UNL     1       2.234   5.915   3.808  0.00  0.00    +0.000 A 
ATOM      4  C   UNL     1       2.460   7.232   3.471  0.00  0.00    +0.000 A 
ATOM      5  C   UNL     1       3.855   7.390   3.264  0.00  0.00    +0.000 A 
ATOM      6  C   UNL     1       4.669   8.481   2.927  0.00  0.00    +0.000 A 
ATOM      7  N   UNL     1       6.008   8.336   2.801  0.00  0.00    +0.000 NA
ATOM      8  C   UNL     1       6.543   7.114   2.999  0.00  0.00    +0.000 A 
ATOM      9  F   UNL     1       7.874   7.002   2.869  0.00  0.00    +0.000 F 
ATOM     10  C   UNL     1       5.830   5.973   3.334  0.00  0.00    +0.000 A 
ATOM     11  C   UNL     1       4.450   6.139   3.471  0.00  0.00    +0.000 A 
ENDBRANCH   1   2
BRANCH   1  15
ATOM     12  C   UNL     1       3.033   1.241   0.814  0.00  0.00    +0.000 A 
ATOM     13  C   UNL     1       4.315   1.689   1.158  0.00  0.00    +0.000 A 
ATOM     14  C   UNL     1       4.510   2.513   2.270  0.00  0.00    +0.000 A 
ATOM     15  C   UNL     1       3.425   2.912   3.061  0.00  0.00    +0.000 A 
ATOM     16  C   UNL     1       2.147   2.431   2.740  0.00  0.00    +0.000 A 
ATOM     17  C   UNL     1       1.954   1.605   1.629  0.00  0.00    +0.000 A 
BRANCH  12  18
ATOM     18  C   UNL     1       2.810   0.441  -0.445  0.00  0.00    +0.000 C 
BRANCH  18  19
ATOM     19  N   UNL     1       3.596  -0.787  -0.462  0.00  0.00    +0.000 NA
ATOM     20  H   UNL     1       3.327  -1.338  -1.275  0.00  0.00    +0.000 HD
ATOM     21  H   UNL     1       3.350  -1.342   0.356  0.00  0.00    +0.000 HD
ENDBRANCH  18  19
ENDBRANCH  12  18
ENDBRANCH   1  15
TORSDOF 4
