REMARK  Name = 
REMARK  3 active torsions:
REMARK  status: ('A' for Active; 'I' for Inactive)
REMARK    1  A    between atoms: N_6  and  C_7
REMARK    2  A    between atoms: C_7  and  C_8
REMARK    3  A    between atoms: C_12  and  C_13
REMARK                            x       y       z     vdW  Elec       q    Type
REMARK                         _______ _______ _______ _____ _____    ______ ____
ROOT
ATOM      1  C   UNL     1      -5.488  -1.229  -0.042  0.00  0.00    +0.000 A 
ATOM      2  C   UNL     1      -6.321  -2.352  -0.081  0.00  0.00    +0.000 A 
ATOM      3  C   UNL     1      -7.701  -2.204   0.026  0.00  0.00    +0.000 A 
ATOM      4  C   UNL     1      -8.262  -0.930   0.162  0.00  0.00    +0.000 A 
ATOM      5  C   UNL     1      -7.463   0.227   0.188  0.00  0.00    +0.000 A 
ATOM      6  C   UNL     1      -6.070   0.047   0.063  0.00  0.00    +0.000 A 
ENDROOT
BRANCH   5   7
ATOM      7  C   UNL     1      -8.054   1.571   0.376  0.00  0.00    +0.000 A 
ATOM      8  C   UNL     1      -7.512   2.722  -0.215  0.00  0.00    +0.000 A 
ATOM      9  C   UNL     1      -8.089   3.975  -0.003  0.00  0.00    +0.000 A 
ATOM     10  C   UNL     1      -9.214   4.054   0.798  0.00  0.00    +0.000 A 
ATOM     11  N   UNL     1      -9.777   2.986   1.394  0.00  0.00    +0.000 NA
ATOM     12  C   UNL     1      -9.184   1.785   1.173  0.00  0.00    +0.000 A 
ENDBRANCH   5   7
BRANCH   1  13
ATOM     13  C   UNL     1      -3.987  -1.387  -0.035  0.00  0.00    +0.000 C 
BRANCH  13  19
ATOM     14  F   UNL     1       1.769  -2.456  -2.694  0.00  0.00    +0.000 F 
ATOM     15  C   UNL     1       0.508  -2.209  -2.319  0.00  0.00    +0.000 A 
ATOM     16  C   UNL     1       0.182  -2.103  -0.980  0.00  0.00    +0.000 A 
ATOM     17  C   UNL     1      -1.143  -1.841  -0.636  0.00  0.00    +0.000 A 
ATOM     18  C   UNL     1      -2.114  -1.697  -1.633  0.00  0.00    +0.000 A 
ATOM     19  N   UNL     1      -3.434  -1.435  -1.362  0.00  0.00    +0.000 N 
ATOM     20  N   UNL     1      -1.792  -1.800  -2.937  0.00  0.00    +0.000 NA
ATOM     21  C   UNL     1      -0.496  -2.054  -3.255  0.00  0.00    +0.000 A 
ATOM     22  H   UNL     1      -4.034  -1.377  -2.175  0.00  0.00    +0.000 HD
ENDBRANCH  13  19
ENDBRANCH   1  13
TORSDOF 3
