REMARK  Name = 
REMARK  6 active torsions:
REMARK  status: ('A' for Active; 'I' for Inactive)
REMARK    1  A    between atoms: C_2  and  C_3
REMARK    2  A    between atoms: N_10  and  C_11
REMARK    3  A    between atoms: C_11  and  C_12
REMARK    4  A    between atoms: C_15  and  C_16
REMARK    5  A    between atoms: C_16  and  N_17
REMARK    6  A    between atoms: C_18  and  C_20
REMARK                            x       y       z     vdW  Elec       q    Type
REMARK                         _______ _______ _______ _____ _____    ______ ____
ROOT
ATOM      1  C   UNL     1       0.643  -4.232  -0.118  0.00  0.00    +0.000 A 
ATOM      2  C   UNL     1       0.015  -5.483  -0.073  0.00  0.00    +0.000 A 
ATOM      3  C   UNL     1      -1.381  -5.578  -0.020  0.00  0.00    +0.000 A 
ATOM      4  C   UNL     1      -2.180  -4.426  -0.034  0.00  0.00    +0.000 A 
ATOM      5  C   UNL     1      -1.550  -3.175  -0.055  0.00  0.00    +0.000 A 
ATOM      6  C   UNL     1      -0.155  -3.079  -0.106  0.00  0.00    +0.000 A 
ENDROOT
BRANCH   1   7
ATOM      7  C   UNL     1       2.145  -4.128  -0.152  0.00  0.00    +0.000 C 
BRANCH   7  15
ATOM      8  C   UNL     1       4.197  -4.863  -4.001  0.00  0.00    +0.000 A 
ATOM      9  C   UNL     1       4.841  -4.428  -5.149  0.00  0.00    +0.000 A 
ATOM     10  C   UNL     1       5.510  -3.221  -4.838  0.00  0.00    +0.000 A 
ATOM     11  C   UNL     1       5.287  -2.975  -3.505  0.00  0.00    +0.000 A 
ATOM     12  N   UNL     1       4.449  -3.946  -2.989  0.00  0.00    +0.000 N 
ATOM     13  C   UNL     1       4.042  -3.998  -1.640  0.00  0.00    +0.000 C 
ATOM     14  O   UNL     1       4.843  -3.708  -0.764  0.00  0.00    +0.000 OA
ATOM     15  N   UNL     1       2.697  -4.254  -1.485  0.00  0.00    +0.000 N 
ATOM     16  H   UNL     1       2.066  -4.139  -2.270  0.00  0.00    +0.000 HD
BRANCH   8  18
ATOM     17  N   UNL     1       2.947  -7.106  -3.712  0.00  0.00    +0.000 NA
ATOM     18  C   UNL     1       3.495  -6.095  -3.834  0.00  0.00    +0.000 C 
ENDBRANCH   8  18
ENDBRANCH   7  15
ENDBRANCH   1   7
BRANCH   4  19
ATOM     19  C   UNL     1      -3.683  -4.526   0.001  0.00  0.00    +0.000 C 
BRANCH  19  20
ATOM     20  N   UNL     1      -4.193  -4.430   1.345  0.00  0.00    +0.000 N 
ATOM     21  C   UNL     1      -5.544  -4.395   1.588  0.00  0.00    +0.000 C 
ATOM     22  O   UNL     1      -6.364  -4.282   0.681  0.00  0.00    +0.000 OA
ATOM     23  H   UNL     1      -3.559  -4.697   2.092  0.00  0.00    +0.000 HD
BRANCH  21  24
ATOM     24  C   UNL     1      -5.968  -4.502   2.989  0.00  0.00    +0.000 A 
ATOM     25  C   UNL     1      -7.187  -3.975   3.388  0.00  0.00    +0.000 A 
ATOM     26  S   UNL     1      -7.555  -4.274   5.027  0.00  0.00    +0.000 S 
ATOM     27  C   UNL     1      -6.130  -5.180   5.236  0.00  0.00    +0.000 A 
ATOM     28  N   UNL     1      -5.880  -5.838   6.400  0.00  0.00    +0.000 NA
ATOM     29  C   UNL     1      -4.774  -6.505   6.408  0.00  0.00    +0.000 A 
ATOM     30  N   UNL     1      -3.873  -6.537   5.375  0.00  0.00    +0.000 N 
ATOM     31  C   UNL     1      -4.057  -5.842   4.204  0.00  0.00    +0.000 A 
ATOM     32  O   UNL     1      -3.184  -5.800   3.344  0.00  0.00    +0.000 OA
ATOM     33  C   UNL     1      -5.331  -5.157   4.106  0.00  0.00    +0.000 A 
ATOM     34  H   UNL     1      -2.997  -7.029   5.468  0.00  0.00    +0.000 HD
ENDBRANCH  21  24
ENDBRANCH  19  20
ENDBRANCH   4  19
TORSDOF 6
