REMARK  Name = 
REMARK  7 active torsions:
REMARK  status: ('A' for Active; 'I' for Inactive)
REMARK    1  A    between atoms: C_2  and  C_3
REMARK    2  A    between atoms: C_6  and  N_7
REMARK    3  A    between atoms: N_7  and  C_8
REMARK    4  A    between atoms: C_8  and  C_9
REMARK    5  A    between atoms: C_9  and  C_12
REMARK    6  A    between atoms: C_16  and  C_17
REMARK    7  A    between atoms: C_17  and  C_18
REMARK                            x       y       z     vdW  Elec       q    Type
REMARK                         _______ _______ _______ _____ _____    ______ ____
ROOT
ATOM      1  C   UNL     1      -5.973   0.662  -0.268  0.00  0.00    +0.000 C 
ATOM      2  F   UNL     1      -4.912   0.867  -1.104  0.00  0.00    +0.000 F 
ATOM      3  F   UNL     1      -6.620  -0.431  -0.783  0.00  0.00    +0.000 F 
ENDROOT
BRANCH   1   4
ATOM      4  C   UNL     1      -6.889   1.872  -0.190  0.00  0.00    +0.000 A 
ATOM      5  C   UNL     1      -8.267   1.701  -0.005  0.00  0.00    +0.000 A 
ATOM      6  C   UNL     1      -9.098   2.808   0.156  0.00  0.00    +0.000 A 
ATOM      7  C   UNL     1      -8.561   4.097   0.164  0.00  0.00    +0.000 A 
ATOM      8  C   UNL     1      -7.186   4.295  -0.013  0.00  0.00    +0.000 A 
ATOM      9  C   UNL     1      -6.366   3.178  -0.233  0.00  0.00    +0.000 A 
BRANCH   8  10
ATOM     10  C   UNL     1      -6.581   5.675   0.107  0.00  0.00    +0.000 C 
BRANCH  10  11
ATOM     11  C   UNL     1      -6.496   6.380  -1.235  0.00  0.00    +0.000 C 
ATOM     12  C   UNL     1      -5.861   7.778  -1.164  0.00  0.00    +0.000 C 
ATOM     13  O   UNL     1      -6.995   8.376  -1.830  0.00  0.00    +0.000 OA
ATOM     14  C   UNL     1      -7.736   7.136  -1.732  0.00  0.00    +0.000 C 
ENDBRANCH  10  11
ENDBRANCH   8  10
ENDBRANCH   1   4
BRANCH   1  15
ATOM     15  C   UNL     1      -5.434   0.255   1.136  0.00  0.00    +0.000 C 
BRANCH  15  16
ATOM     16  N   UNL     1      -4.541   1.259   1.759  0.00  0.00    +0.000 N 
ATOM     17  H   UNL     1      -4.910   2.206   1.682  0.00  0.00    +0.000 HD
BRANCH  16  21
ATOM     18  C   UNL     1      -2.742   0.750   5.480  0.00  0.00    +0.000 A 
ATOM     19  C   UNL     1      -3.112  -0.392   4.780  0.00  0.00    +0.000 A 
ATOM     20  C   UNL     1      -3.740  -0.244   3.540  0.00  0.00    +0.000 A 
ATOM     21  C   UNL     1      -4.008   1.026   3.029  0.00  0.00    +0.000 A 
ATOM     22  C   UNL     1      -3.558   2.101   3.806  0.00  0.00    +0.000 A 
ATOM     23  N   UNL     1      -2.956   2.003   5.016  0.00  0.00    +0.000 NA
BRANCH  18  25
ATOM     24  N   UNL     1      -1.558   0.525   7.776  0.00  0.00    +0.000 NA
ATOM     25  C   UNL     1      -2.086   0.651   6.749  0.00  0.00    +0.000 C 
ENDBRANCH  18  25
ENDBRANCH  16  21
ENDBRANCH  15  16
ENDBRANCH   1  15
TORSDOF 7
