REMARK  Name = 
REMARK  5 active torsions:
REMARK  status: ('A' for Active; 'I' for Inactive)
REMARK    1  A    between atoms: C_2  and  C_3
REMARK    2  A    between atoms: C_6  and  N_7
REMARK    3  A    between atoms: N_7  and  C_8
REMARK    4  A    between atoms: C_8  and  C_9
REMARK    5  A    between atoms: C_14  and  C_15
REMARK                            x       y       z     vdW  Elec       q    Type
REMARK                         _______ _______ _______ _____ _____    ______ ____
ROOT
ATOM      1  C   UNL     1       4.568  -1.148   0.119  0.00  0.00    +0.000 C 
ATOM      2  C   UNL     1       4.761  -2.268  -0.890  0.00  0.00    +0.000 C 
ATOM      3  C   UNL     1       4.347  -2.615   0.494  0.00  0.00    +0.000 C 
ENDROOT
BRANCH   1   4
ATOM      4  C   UNL     1       5.708  -0.552   0.940  0.00  0.00    +0.000 A 
ATOM      5  C   UNL     1       5.549  -0.351   2.325  0.00  0.00    +0.000 A 
ATOM      6  C   UNL     1       6.634  -0.037   3.137  0.00  0.00    +0.000 A 
ATOM      7  C   UNL     1       7.894   0.109   2.569  0.00  0.00    +0.000 A 
ATOM      8  F   UNL     1       8.923   0.349   3.397  0.00  0.00    +0.000 F 
ATOM      9  C   UNL     1       8.102  -0.006   1.186  0.00  0.00    +0.000 A 
ATOM     10  C   UNL     1       6.980  -0.317   0.392  0.00  0.00    +0.000 A 
BRANCH   9  11
ATOM     11  C   UNL     1       9.438   0.116   0.572  0.00  0.00    +0.000 A 
ATOM     12  C   UNL     1       9.629   0.714  -0.683  0.00  0.00    +0.000 A 
ATOM     13  C   UNL     1      10.898   0.770  -1.258  0.00  0.00    +0.000 A 
ATOM     14  C   UNL     1      11.960   0.229  -0.557  0.00  0.00    +0.000 A 
ATOM     15  N   UNL     1      11.835  -0.353   0.652  0.00  0.00    +0.000 NA
ATOM     16  C   UNL     1      10.587  -0.394   1.181  0.00  0.00    +0.000 A 
ENDBRANCH   9  11
ENDBRANCH   1   4
BRANCH   1  17
ATOM     17  N   UNL     1       3.441  -0.231  -0.104  0.00  0.00    +0.000 N 
ATOM     18  H   UNL     1       2.556  -0.431   0.351  0.00  0.00    +0.000 HD
BRANCH  17  22
ATOM     19  C   UNL     1       3.146   2.532  -3.310  0.00  0.00    +0.000 A 
ATOM     20  C   UNL     1       4.166   1.579  -3.311  0.00  0.00    +0.000 A 
ATOM     21  C   UNL     1       4.274   0.662  -2.254  0.00  0.00    +0.000 A 
ATOM     22  C   UNL     1       3.348   0.644  -1.207  0.00  0.00    +0.000 A 
ATOM     23  C   UNL     1       2.343   1.624  -1.207  0.00  0.00    +0.000 A 
ATOM     24  C   UNL     1       2.239   2.556  -2.248  0.00  0.00    +0.000 A 
BRANCH  19  26
ATOM     25  N   UNL     1       2.958   4.247  -5.253  0.00  0.00    +0.000 NA
ATOM     26  C   UNL     1       3.042   3.479  -4.381  0.00  0.00    +0.000 C 
ENDBRANCH  19  26
ENDBRANCH  17  22
ENDBRANCH   1  17
TORSDOF 5
