REMARK  Name = 
REMARK  11 active torsions:
REMARK  status: ('A' for Active; 'I' for Inactive)
REMARK    1  A    between atoms: C_1  and  C_2
REMARK    2  A    between atoms: C_2  and  C_3
REMARK    3  A    between atoms: C_3  and  N_4
REMARK    4  A    between atoms: C_3  and  C_27
REMARK    5  A    between atoms: N_4  and  C_5
REMARK    6  A    between atoms: C_5  and  C_6
REMARK    7  A    between atoms: C_9  and  C_10
REMARK    8  A    between atoms: C_10  and  N_11
REMARK    9  A    between atoms: C_12  and  C_14
REMARK   10  A    between atoms: C_21  and  O_22
REMARK   11  A    between atoms: O_22  and  C_23
REMARK                            x       y       z     vdW  Elec       q    Type
REMARK                         _______ _______ _______ _____ _____    ______ ____
ROOT
ATOM      1  C   UNL     1       0.593   0.377   3.949  0.00  0.00    +0.000 A 
ATOM      2  C   UNL     1       0.618  -0.982   4.291  0.00  0.00    +0.000 A 
ATOM      3  C   UNL     1       0.239  -1.404   5.565  0.00  0.00    +0.000 A 
ATOM      4  C   UNL     1      -0.171  -0.473   6.530  0.00  0.00    +0.000 A 
ATOM      5  C   UNL     1      -0.152   0.889   6.206  0.00  0.00    +0.000 A 
ATOM      6  C   UNL     1       0.219   1.311   4.927  0.00  0.00    +0.000 A 
ENDROOT
BRANCH   1   7
ATOM      7  C   UNL     1       0.972   0.837   2.559  0.00  0.00    +0.000 C 
BRANCH   7   8
ATOM      8  N   UNL     1       0.066   0.285   1.554  0.00  0.00    +0.000 NA
ATOM      9  H   UNL     1       0.066  -0.729   1.619  0.00  0.00    +0.000 HD
BRANCH   8  10
ATOM     10  C   UNL     1       0.364   0.683   0.170  0.00  0.00    +0.000 C 
BRANCH  10  11
ATOM     11  C   UNL     1       0.151   2.184  -0.031  0.00  0.00    +0.000 A 
ATOM     12  C   UNL     1      -1.153   2.680  -0.210  0.00  0.00    +0.000 A 
ATOM     13  C   UNL     1      -1.387   4.053  -0.326  0.00  0.00    +0.000 A 
ATOM     14  C   UNL     1      -0.322   4.950  -0.256  0.00  0.00    +0.000 A 
ATOM     15  C   UNL     1       0.973   4.479  -0.075  0.00  0.00    +0.000 A 
ATOM     16  C   UNL     1       1.207   3.107   0.031  0.00  0.00    +0.000 A 
ENDBRANCH  10  11
BRANCH  10  18
ATOM     17  C   UNL     1       1.931  -1.333  -0.253  0.00  0.00    +0.000 C 
ATOM     18  C   UNL     1       1.720   0.170  -0.377  0.00  0.00    +0.000 C 
ENDBRANCH  10  18
ENDBRANCH   8  10
ENDBRANCH   7   8
ENDBRANCH   1   7
BRANCH   4  19
ATOM     19  C   UNL     1      -0.575  -0.923   7.907  0.00  0.00    +0.000 C 
BRANCH  19  20
ATOM     20  N   UNL     1       0.572  -1.012   8.773  0.00  0.00    +0.000 N 
ATOM     21  C   UNL     1       0.459  -1.435  10.069  0.00  0.00    +0.000 C 
ATOM     22  O   UNL     1      -0.607  -1.821  10.541  0.00  0.00    +0.000 OA
ATOM     23  H   UNL     1       1.425  -0.566   8.464  0.00  0.00    +0.000 HD
BRANCH  21  24
ATOM     24  C   UNL     1       1.702  -1.470  10.849  0.00  0.00    +0.000 A 
ATOM     25  C   UNL     1       1.802  -2.340  11.927  0.00  0.00    +0.000 A 
ATOM     26  S   UNL     1       3.331  -2.321  12.673  0.00  0.00    +0.000 S 
ATOM     27  C   UNL     1       3.887  -1.111  11.617  0.00  0.00    +0.000 A 
ATOM     28  N   UNL     1       5.139  -0.643  11.741  0.00  0.00    +0.000 NA
ATOM     29  C   UNL     1       5.420   0.316  10.860  0.00  0.00    +0.000 A 
ATOM     30  N   UNL     1       4.607   0.823   9.927  0.00  0.00    +0.000 NA
ATOM     31  C   UNL     1       3.357   0.325   9.840  0.00  0.00    +0.000 A 
ATOM     32  C   UNL     1       2.931  -0.707  10.692  0.00  0.00    +0.000 A 
BRANCH  31  33
ATOM     33  O   UNL     1       2.492   0.841   8.897  0.00  0.00    +0.000 OA
ATOM     34  C   UNL     1       3.064   1.860   8.083  0.00  0.00    +0.000 C 
ENDBRANCH  31  33
ENDBRANCH  21  24
ENDBRANCH  19  20
ENDBRANCH   4  19
TORSDOF 9
