REMARK  Name = 
REMARK  5 active torsions:
REMARK  status: ('A' for Active; 'I' for Inactive)
REMARK    1  A    between atoms: C_1  and  O_2
REMARK    2  A    between atoms: O_2  and  C_3
REMARK    3  A    between atoms: C_5  and  C_6
REMARK    4  A    between atoms: C_6  and  N_7
REMARK    5  A    between atoms: C_12  and  C_13
REMARK                            x       y       z     vdW  Elec       q    Type
REMARK                         _______ _______ _______ _____ _____    ______ ____
ROOT
ATOM      1  N   UNL     1       7.034   1.717  -3.701  0.00  0.00    +0.000 N 
ATOM      2  C   UNL     1       6.897   1.847  -5.066  0.00  0.00    +0.000 A 
ATOM      3  C   UNL     1       7.756   2.838  -5.489  0.00  0.00    +0.000 A 
ATOM      4  C   UNL     1       8.442   3.316  -4.351  0.00  0.00    +0.000 A 
ATOM      5  N   UNL     1       9.378   4.283  -4.276  0.00  0.00    +0.000 NA
ATOM      6  C   UNL     1       9.834   4.484  -3.029  0.00  0.00    +0.000 A 
ATOM      7  N   UNL     1       9.474   3.822  -1.895  0.00  0.00    +0.000 NA
ATOM      8  C   UNL     1       8.540   2.857  -2.003  0.00  0.00    +0.000 A 
ATOM      9  C   UNL     1       7.996   2.595  -3.249  0.00  0.00    +0.000 A 
ENDROOT
BRANCH   6  10
ATOM     10  C   UNL     1      10.862   5.582  -2.849  0.00  0.00    +0.000 C 
ATOM     11  N   UNL     1      11.299   5.789  -1.560  0.00  0.00    +0.000 N 
ATOM     12  O   UNL     1      11.299   6.272  -3.764  0.00  0.00    +0.000 OA
ATOM     13  H   UNL     1      10.919   5.236  -0.801  0.00  0.00    +0.000 HD
ATOM     14  H   UNL     1      11.961   6.529  -1.382  0.00  0.00    +0.000 HD
ENDBRANCH   6  10
BRANCH   1  15
ATOM     15  C   UNL     1       6.304   0.740  -2.897  0.00  0.00    +0.000 C 
BRANCH  15  18
ATOM     16  C   UNL     1       3.821   2.475  -0.555  0.00  0.00    +0.000 A 
ATOM     17  C   UNL     1       4.997   1.922  -1.079  0.00  0.00    +0.000 A 
ATOM     18  C   UNL     1       5.021   1.309  -2.344  0.00  0.00    +0.000 A 
ATOM     19  C   UNL     1       3.831   1.249  -3.083  0.00  0.00    +0.000 A 
ATOM     20  C   UNL     1       2.655   1.797  -2.569  0.00  0.00    +0.000 A 
ATOM     21  C   UNL     1       2.655   2.409  -1.317  0.00  0.00    +0.000 A 
ATOM     22  F   UNL     1       1.497   2.925  -0.880  0.00  0.00    +0.000 F 
BRANCH  16  24
ATOM     23  C   UNL     1       2.810   3.583   1.292  0.00  0.00    +0.000 C 
ATOM     24  O   UNL     1       3.972   3.028   0.688  0.00  0.00    +0.000 OA
ENDBRANCH  16  24
ENDBRANCH  15  18
ENDBRANCH   1  15
TORSDOF 4
