REMARK  Name = 
REMARK  3 active torsions:
REMARK  status: ('A' for Active; 'I' for Inactive)
REMARK    1  A    between atoms: C_2  and  C_4
REMARK    2  A    between atoms: N_8  and  C_9
REMARK    3  A    between atoms: C_9  and  C_10
REMARK                            x       y       z     vdW  Elec       q    Type
REMARK                         _______ _______ _______ _____ _____    ______ ____
ROOT
ATOM      1  C   UNL     1       5.080  -2.865  -1.312  0.00  0.00    +0.000 A 
ATOM      2  C   UNL     1       6.143  -2.199  -0.710  0.00  0.00    +0.000 A 
ATOM      3  C   UNL     1       6.347  -2.353   0.662  0.00  0.00    +0.000 A 
ATOM      4  C   UNL     1       5.515  -3.198   1.403  0.00  0.00    +0.000 A 
ATOM      5  N   UNL     1       5.779  -3.308   2.783  0.00  0.00    +0.000 N 
ATOM      6  N   UNL     1       4.484  -3.842   0.823  0.00  0.00    +0.000 NA
ATOM      7  C   UNL     1       4.277  -3.657  -0.506  0.00  0.00    +0.000 A 
ATOM      8  H   UNL     1       5.558  -2.423   3.229  0.00  0.00    +0.000 HD
ENDROOT
BRANCH   1  10
ATOM      9  N   UNL     1       5.757  -2.396  -3.602  0.00  0.00    +0.000 N 
ATOM     10  C   UNL     1       4.745  -2.734  -2.746  0.00  0.00    +0.000 C 
ATOM     11  O   UNL     1       3.613  -2.940  -3.157  0.00  0.00    +0.000 OA
ATOM     12  H   UNL     1       5.524  -2.394  -4.588  0.00  0.00    +0.000 HD
ATOM     13  H   UNL     1       6.733  -2.469  -3.354  0.00  0.00    +0.000 HD
ENDBRANCH   1  10
BRANCH   5  14
ATOM     14  C   UNL     1       5.512  -4.504   3.607  0.00  0.00    +0.000 C 
ATOM     15  C   UNL     1       5.271  -5.871   2.989  0.00  0.00    +0.000 C 
ATOM     16  C   UNL     1       4.143  -5.148   3.661  0.00  0.00    +0.000 C 
BRANCH  14  17
ATOM     17  C   UNL     1       6.336  -4.481   4.898  0.00  0.00    +0.000 A 
ATOM     18  C   UNL     1       5.885  -3.811   6.052  0.00  0.00    +0.000 A 
ATOM     19  C   UNL     1       6.635  -3.818   7.234  0.00  0.00    +0.000 A 
ATOM     20  C   UNL     1       7.845  -4.496   7.271  0.00  0.00    +0.000 A 
ATOM     21  F   UNL     1       8.554  -4.525   8.408  0.00  0.00    +0.000 F 
ATOM     22  C   UNL     1       8.332  -5.150   6.147  0.00  0.00    +0.000 A 
ATOM     23  C   UNL     1       7.587  -5.130   4.968  0.00  0.00    +0.000 A 
ENDBRANCH  14  17
ENDBRANCH   5  14
TORSDOF 3
