REMARK  Name = 
REMARK  9 active torsions:
REMARK  status: ('A' for Active; 'I' for Inactive)
REMARK    1  A    between atoms: N_1  and  C_2
REMARK    2  A    between atoms: C_2  and  C_3
REMARK    3  A    between atoms: C_3  and  N_4
REMARK    4  A    between atoms: N_4  and  C_5
REMARK    5  A    between atoms: C_5  and  C_6
REMARK    6  A    between atoms: C_9  and  C_10
REMARK    7  A    between atoms: C_11  and  C_12
REMARK    8  A    between atoms: C_12  and  N_13
REMARK    9  A    between atoms: C_20  and  C_22
REMARK                            x       y       z     vdW  Elec       q    Type
REMARK                         _______ _______ _______ _____ _____    ______ ____
ROOT
ATOM      1  N   UNL     1       4.470   1.195  -0.592  0.00  0.00    +0.000 N 
ATOM      2  C   UNL     1       4.926   2.518  -0.766  0.00  0.00    +0.000 C 
ATOM      3  O   UNL     1       4.227   3.362  -1.328  0.00  0.00    +0.000 OA
ENDROOT
BRANCH   2   4
ATOM      4  C   UNL     1       6.258   2.892  -0.269  0.00  0.00    +0.000 A 
ATOM      5  C   UNL     1       7.400   2.113  -0.404  0.00  0.00    +0.000 A 
ATOM      6  S   UNL     1       8.810   2.829   0.234  0.00  0.00    +0.000 S 
ATOM      7  C   UNL     1       7.970   4.263   0.586  0.00  0.00    +0.000 A 
ATOM      8  N   UNL     1       8.636   5.351   1.067  0.00  0.00    +0.000 NA
ATOM      9  C   UNL     1       7.883   6.383   1.254  0.00  0.00    +0.000 A 
ATOM     10  N   UNL     1       6.532   6.418   1.041  0.00  0.00    +0.000 N 
ATOM     11  C   UNL     1       5.793   5.300   0.672  0.00  0.00    +0.000 A 
ATOM     12  O   UNL     1       4.567   5.327   0.733  0.00  0.00    +0.000 OA
ATOM     13  C   UNL     1       6.622   4.160   0.330  0.00  0.00    +0.000 A 
ATOM     14  H   UNL     1       5.991   7.237   1.283  0.00  0.00    +0.000 HD
ENDBRANCH   2   4
BRANCH   1  15
ATOM     15  C   UNL     1       3.114   0.898  -1.106  0.00  0.00    +0.000 C 
BRANCH  15  16
ATOM     16  C   UNL     1       2.943   0.814  -2.645  0.00  0.00    +0.000 C 
BRANCH  16  17
ATOM     17  N   UNL     1       3.518  -0.372  -3.294  0.00  0.00    +0.000 NA
ATOM     18  H   UNL     1       3.432  -0.246  -4.305  0.00  0.00    +0.000 HD
ATOM     19  H   UNL     1       2.937  -1.184  -3.083  0.00  0.00    +0.000 HD
ENDBRANCH  16  17
ENDBRANCH  15  16
ENDBRANCH   1  15
BRANCH   1  20
ATOM     20  C   UNL     1       5.197   0.239   0.263  0.00  0.00    +0.000 C 
BRANCH  20  21
ATOM     21  C   UNL     1       4.459  -0.943   0.812  0.00  0.00    +0.000 A 
ATOM     22  C   UNL     1       4.565  -2.185   0.178  0.00  0.00    +0.000 A 
ATOM     23  C   UNL     1       3.760  -3.245   0.581  0.00  0.00    +0.000 A 
ATOM     24  C   UNL     1       2.832  -3.078   1.616  0.00  0.00    +0.000 A 
ATOM     25  C   UNL     1       2.815  -1.866   2.321  0.00  0.00    +0.000 A 
ATOM     26  C   UNL     1       3.640  -0.811   1.937  0.00  0.00    +0.000 A 
BRANCH  24  27
ATOM     27  C   UNL     1       1.829  -4.100   1.941  0.00  0.00    +0.000 C 
ATOM     28  C   UNL     1       2.019  -5.413   1.742  0.00  0.00    +0.000 C 
BRANCH  28  29
ATOM     29  C   UNL     1       1.096  -6.503   2.207  0.00  0.00    +0.000 C 
BRANCH  29  30
ATOM     30  N   UNL     1       1.848  -7.351   3.130  0.00  0.00    +0.000 NA
ATOM     31  C   UNL     1       2.235  -6.656   4.359  0.00  0.00    +0.000 C 
ATOM     32  C   UNL     1       1.214  -7.057   5.399  0.00  0.00    +0.000 C 
ATOM     33  O   UNL     1       0.568  -8.234   4.915  0.00  0.00    +0.000 OA
ATOM     34  C   UNL     1       1.086  -8.492   3.611  0.00  0.00    +0.000 C 
ENDBRANCH  29  30
ENDBRANCH  28  29
ENDBRANCH  24  27
ENDBRANCH  20  21
ENDBRANCH   1  20
TORSDOF 9
