REMARK  Name = 
REMARK  6 active torsions:
REMARK  status: ('A' for Active; 'I' for Inactive)
REMARK    1  A    between atoms: N_1  and  C_2
REMARK    2  A    between atoms: C_2  and  C_3
REMARK    3  A    between atoms: C_7  and  O_8
REMARK    4  A    between atoms: O_8  and  C_9
REMARK    5  A    between atoms: C_9  and  C_10
REMARK    6  A    between atoms: C_10  and  C_11
REMARK                            x       y       z     vdW  Elec       q    Type
REMARK                         _______ _______ _______ _____ _____    ______ ____
ROOT
ATOM      1  C   UNL     1       3.217   0.678   1.326  0.00  0.00    +0.000 A 
ATOM      2  C   UNL     1       2.966   2.056   1.383  0.00  0.00    +0.000 A 
ATOM      3  C   UNL     1       2.941   2.721   2.607  0.00  0.00    +0.000 A 
ATOM      4  C   UNL     1       3.155   2.016   3.792  0.00  0.00    +0.000 A 
ATOM      5  C   UNL     1       3.397   0.642   3.760  0.00  0.00    +0.000 A 
ATOM      6  C   UNL     1       3.431  -0.018   2.526  0.00  0.00    +0.000 A 
ENDROOT
BRANCH   1   7
ATOM      7  C   UNL     1       3.213  -0.043   0.002  0.00  0.00    +0.000 C 
BRANCH   7   8
ATOM      8  N   UNL     1       4.161   0.543  -0.939  0.00  0.00    +0.000 NA
ATOM      9  H   UNL     1       4.197  -0.033  -1.777  0.00  0.00    +0.000 HD
ATOM     10  H   UNL     1       5.092   0.510  -0.526  0.00  0.00    +0.000 HD
ENDBRANCH   7   8
ENDBRANCH   1   7
BRANCH   5  11
ATOM     11  O   UNL     1       3.611  -0.156   4.855  0.00  0.00    +0.000 OA
BRANCH  11  12
ATOM     12  C   UNL     1       3.485   0.479   6.131  0.00  0.00    +0.000 C 
BRANCH  12  13
ATOM     13  C   UNL     1       3.680  -0.562   7.232  0.00  0.00    +0.000 C 
BRANCH  13  14
ATOM     14  C   UNL     1       3.559   0.056   8.603  0.00  0.00    +0.000 A 
ATOM     15  C   UNL     1       2.307   0.180   9.219  0.00  0.00    +0.000 A 
ATOM     16  C   UNL     1       2.192   0.777  10.476  0.00  0.00    +0.000 A 
ATOM     17  C   UNL     1       3.326   1.260  11.126  0.00  0.00    +0.000 A 
ATOM     18  C   UNL     1       4.575   1.152  10.517  0.00  0.00    +0.000 A 
ATOM     19  C   UNL     1       4.692   0.556   9.260  0.00  0.00    +0.000 A 
ENDBRANCH  13  14
ENDBRANCH  12  13
ENDBRANCH  11  12
ENDBRANCH   5  11
TORSDOF 6
