REMARK  Name = 
REMARK  7 active torsions:
REMARK  status: ('A' for Active; 'I' for Inactive)
REMARK    1  A    between atoms: C_2  and  C_25
REMARK    2  A    between atoms: N_3  and  C_4
REMARK    3  A    between atoms: C_4  and  C_5
REMARK    4  A    between atoms: C_8  and  C_9
REMARK    5  A    between atoms: C_9  and  N_10
REMARK    6  A    between atoms: C_11  and  C_13
REMARK    7  A    between atoms: C_28  and  C_29
REMARK                            x       y       z     vdW  Elec       q    Type
REMARK                         _______ _______ _______ _____ _____    ______ ____
ROOT
ATOM      1  C   UNL     1       3.141   2.756   2.268  0.00  0.00    +0.000 A 
ATOM      2  C   UNL     1       2.953   4.136   2.107  0.00  0.00    +0.000 A 
ATOM      3  C   UNL     1       3.733   5.053   2.822  0.00  0.00    +0.000 A 
ATOM      4  C   UNL     1       4.733   4.611   3.699  0.00  0.00    +0.000 A 
ATOM      5  C   UNL     1       4.924   3.232   3.855  0.00  0.00    +0.000 A 
ATOM      6  C   UNL     1       4.145   2.315   3.140  0.00  0.00    +0.000 A 
ENDROOT
BRANCH   1   7
ATOM      7  C   UNL     1       2.238   1.770   1.574  0.00  0.00    +0.000 C 
BRANCH   7  10
ATOM      8  O   UNL     1       0.918  -0.043  -0.005  0.00  0.00    +0.000 OA
ATOM      9  C   UNL     1       1.915   0.495  -0.487  0.00  0.00    +0.000 C 
ATOM     10  N   UNL     1       2.668   1.400   0.249  0.00  0.00    +0.000 N 
ATOM     11  H   UNL     1       3.442   1.874  -0.204  0.00  0.00    +0.000 HD
BRANCH   9  12
ATOM     12  C   UNL     1       2.379   0.257  -1.850  0.00  0.00    +0.000 A 
ATOM     13  N   UNL     1       3.487   0.727  -2.401  0.00  0.00    +0.000 NA
ATOM     14  C   UNL     1       3.454   0.225  -3.682  0.00  0.00    +0.000 A 
ATOM     15  C   UNL     1       2.314  -0.518  -3.876  0.00  0.00    +0.000 A 
ATOM     16  O   UNL     1       1.617  -0.514  -2.694  0.00  0.00    +0.000 OA
BRANCH  15  17
ATOM     17  C   UNL     1       1.747  -1.241  -5.030  0.00  0.00    +0.000 C 
ATOM     18  F   UNL     1       2.537  -1.124  -6.131  0.00  0.00    +0.000 F 
ATOM     19  F   UNL     1       1.608  -2.570  -4.792  0.00  0.00    +0.000 F 
ATOM     20  F   UNL     1       0.524  -0.768  -5.380  0.00  0.00    +0.000 F 
ENDBRANCH  15  17
ENDBRANCH   9  12
ENDBRANCH   7  10
ENDBRANCH   1   7
BRANCH   4  21
ATOM     21  C   UNL     1       5.568   5.592   4.484  0.00  0.00    +0.000 C 
BRANCH  21  22
ATOM     22  N   UNL     1       4.973   5.905   5.760  0.00  0.00    +0.000 N 
ATOM     23  C   UNL     1       5.540   6.839   6.591  0.00  0.00    +0.000 C 
ATOM     24  O   UNL     1       6.542   7.471   6.264  0.00  0.00    +0.000 OA
ATOM     25  H   UNL     1       4.297   5.245   6.133  0.00  0.00    +0.000 HD
BRANCH  23  26
ATOM     26  C   UNL     1       4.860   7.095   7.867  0.00  0.00    +0.000 A 
ATOM     27  C   UNL     1       5.065   8.303   8.522  0.00  0.00    +0.000 A 
ATOM     28  S   UNL     1       4.164   8.466   9.960  0.00  0.00    +0.000 S 
ATOM     29  C   UNL     1       3.509   6.905   9.790  0.00  0.00    +0.000 A 
ATOM     30  N   UNL     1       2.656   6.400  10.722  0.00  0.00    +0.000 NA
ATOM     31  C   UNL     1       2.263   5.193  10.486  0.00  0.00    +0.000 A 
ATOM     32  N   UNL     1       2.641   4.448   9.399  0.00  0.00    +0.000 N 
ATOM     33  C   UNL     1       3.475   4.927   8.416  0.00  0.00    +0.000 A 
ATOM     34  O   UNL     1       3.759   4.251   7.433  0.00  0.00    +0.000 OA
ATOM     35  C   UNL     1       3.958   6.277   8.640  0.00  0.00    +0.000 A 
ATOM     36  H   UNL     1       2.290   3.511   9.268  0.00  0.00    +0.000 HD
ENDBRANCH  23  26
ENDBRANCH  21  22
ENDBRANCH   4  21
TORSDOF 7
