REMARK  Name = 
REMARK  8 active torsions:
REMARK  status: ('A' for Active; 'I' for Inactive)
REMARK    1  A    between atoms: C_1  and  C_2
REMARK    2  A    between atoms: C_2  and  N_3
REMARK    3  A    between atoms: C_2  and  C_25
REMARK    4  A    between atoms: N_3  and  C_4
REMARK    5  A    between atoms: C_4  and  C_5
REMARK    6  A    between atoms: C_8  and  C_9
REMARK    7  A    between atoms: C_9  and  N_10
REMARK    8  A    between atoms: C_11  and  C_13
REMARK                            x       y       z     vdW  Elec       q    Type
REMARK                         _______ _______ _______ _____ _____    ______ ____
ROOT
ATOM      1  C   UNL     1       3.098  -3.794   0.254  0.00  0.00    +0.000 A 
ATOM      2  C   UNL     1       4.385  -3.975  -0.272  0.00  0.00    +0.000 A 
ATOM      3  C   UNL     1       4.840  -5.253  -0.626  0.00  0.00    +0.000 A 
ATOM      4  C   UNL     1       4.018  -6.376  -0.459  0.00  0.00    +0.000 A 
ATOM      5  C   UNL     1       2.752  -6.202   0.114  0.00  0.00    +0.000 A 
ATOM      6  C   UNL     1       2.295  -4.927   0.457  0.00  0.00    +0.000 A 
ENDROOT
BRANCH   1   7
ATOM      7  C   UNL     1       2.584  -2.423   0.638  0.00  0.00    +0.000 C 
BRANCH   7   8
ATOM      8  N   UNL     1       2.529  -1.506  -0.504  0.00  0.00    +0.000 NA
ATOM      9  H   UNL     1       3.470  -1.398  -0.878  0.00  0.00    +0.000 HD
BRANCH   8  11
ATOM     10  C   UNL     1       0.580  -0.189   0.351  0.00  0.00    +0.000 C 
ATOM     11  C   UNL     1       2.030  -0.165  -0.149  0.00  0.00    +0.000 C 
BRANCH  11  12
ATOM     12  C   UNL     1       2.137   0.806  -1.326  0.00  0.00    +0.000 A 
ATOM     13  C   UNL     1       2.387   2.168  -1.080  0.00  0.00    +0.000 A 
ATOM     14  C   UNL     1       2.444   3.091  -2.128  0.00  0.00    +0.000 A 
ATOM     15  C   UNL     1       2.258   2.667  -3.442  0.00  0.00    +0.000 A 
ATOM     16  C   UNL     1       2.008   1.322  -3.706  0.00  0.00    +0.000 A 
ATOM     17  C   UNL     1       1.938   0.401  -2.656  0.00  0.00    +0.000 A 
ENDBRANCH  11  12
ENDBRANCH   8  11
ENDBRANCH   7   8
ENDBRANCH   1   7
BRANCH   4  18
ATOM     18  C   UNL     1       4.483  -7.752  -0.855  0.00  0.00    +0.000 C 
BRANCH  18  19
ATOM     19  N   UNL     1       5.150  -8.414   0.238  0.00  0.00    +0.000 N 
ATOM     20  C   UNL     1       5.698  -9.663   0.087  0.00  0.00    +0.000 C 
ATOM     21  O   UNL     1       5.685 -10.263  -0.983  0.00  0.00    +0.000 OA
ATOM     22  H   UNL     1       4.951  -8.066   1.168  0.00  0.00    +0.000 HD
BRANCH  20  23
ATOM     23  C   UNL     1       6.369 -10.217   1.272  0.00  0.00    +0.000 A 
ATOM     24  C   UNL     1       7.373 -11.163   1.117  0.00  0.00    +0.000 A 
ATOM     25  S   UNL     1       8.076 -11.662   2.588  0.00  0.00    +0.000 S 
ATOM     26  C   UNL     1       7.027 -10.669   3.491  0.00  0.00    +0.000 A 
ATOM     27  N   UNL     1       7.080 -10.644   4.847  0.00  0.00    +0.000 NA
ATOM     28  C   UNL     1       6.210  -9.867   5.401  0.00  0.00    +0.000 A 
ATOM     29  N   UNL     1       5.295  -9.108   4.719  0.00  0.00    +0.000 N 
ATOM     30  C   UNL     1       5.223  -9.078   3.349  0.00  0.00    +0.000 A 
ATOM     31  O   UNL     1       4.424  -8.353   2.769  0.00  0.00    +0.000 OA
ATOM     32  C   UNL     1       6.171  -9.949   2.676  0.00  0.00    +0.000 A 
ATOM     33  H   UNL     1       4.648  -8.509   5.212  0.00  0.00    +0.000 HD
ENDBRANCH  20  23
ENDBRANCH  18  19
ENDBRANCH   4  18
TORSDOF 7
