REMARK  Name = 
REMARK  6 active torsions:
REMARK  status: ('A' for Active; 'I' for Inactive)
REMARK    1  A    between atoms: N_1  and  C_2
REMARK    2  A    between atoms: C_2  and  C_3
REMARK    3  A    between atoms: C_6  and  C_7
REMARK    4  A    between atoms: C_7  and  N_8
REMARK    5  A    between atoms: C_13  and  C_14
REMARK    6  A    between atoms: C_14  and  O_15
REMARK                            x       y       z     vdW  Elec       q    Type
REMARK                         _______ _______ _______ _____ _____    ______ ____
ROOT
ATOM      1  N   UNL     1       4.640  -2.407   6.205  0.00  0.00    +0.000 N 
ATOM      2  C   UNL     1       5.644  -3.348   6.214  0.00  0.00    +0.000 A 
ATOM      3  C   UNL     1       6.646  -2.828   6.996  0.00  0.00    +0.000 A 
ATOM      4  C   UNL     1       5.942  -2.082   7.970  0.00  0.00    +0.000 A 
ATOM      5  C   UNL     1       6.152  -1.789   9.330  0.00  0.00    +0.000 A 
ATOM      6  C   UNL     1       5.197  -1.022  10.018  0.00  0.00    +0.000 A 
ATOM      7  C   UNL     1       4.188  -0.369   9.277  0.00  0.00    +0.000 A 
ATOM      8  C   UNL     1       3.969  -0.649   7.923  0.00  0.00    +0.000 A 
ATOM      9  C   UNL     1       4.774  -1.635   7.345  0.00  0.00    +0.000 A 
ENDROOT
BRANCH   1  10
ATOM     10  C   UNL     1       3.465  -2.502   5.347  0.00  0.00    +0.000 C 
BRANCH  10  14
ATOM     11  C   UNL     1       3.398   0.057   1.826  0.00  0.00    +0.000 A 
ATOM     12  C   UNL     1       4.353  -0.957   1.949  0.00  0.00    +0.000 A 
ATOM     13  C   UNL     1       4.407  -1.771   3.094  0.00  0.00    +0.000 A 
ATOM     14  C   UNL     1       3.496  -1.590   4.144  0.00  0.00    +0.000 A 
ATOM     15  C   UNL     1       2.526  -0.589   4.015  0.00  0.00    +0.000 A 
ATOM     16  C   UNL     1       2.484   0.217   2.868  0.00  0.00    +0.000 A 
BRANCH  11  17
ATOM     17  C   UNL     1       3.363   0.977   0.629  0.00  0.00    +0.000 C 
BRANCH  17  18
ATOM     18  N   UNL     1       3.169   0.262  -0.627  0.00  0.00    +0.000 NA
ATOM     19  H   UNL     1       3.066   0.941  -1.379  0.00  0.00    +0.000 HD
ATOM     20  H   UNL     1       2.286  -0.246  -0.582  0.00  0.00    +0.000 HD
ENDBRANCH  17  18
ENDBRANCH  11  17
ENDBRANCH  10  14
ENDBRANCH   1  10
BRANCH   6  21
ATOM     21  C   UNL     1       5.173  -0.975  11.521  0.00  0.00    +0.000 C 
BRANCH  21  22
ATOM     22  O   UNL     1       5.421   0.325  12.005  0.00  0.00    +0.000 OA
ATOM     23  H   UNL     1       6.126   0.696  11.451  0.00  0.00    +0.000 HD
ENDBRANCH  21  22
ENDBRANCH   6  21
TORSDOF 6
