REMARK  Name = 
REMARK  6 active torsions:
REMARK  status: ('A' for Active; 'I' for Inactive)
REMARK    1  A    between atoms: C_1  and  C_2
REMARK    2  A    between atoms: C_2  and  C_3
REMARK    3  A    between atoms: C_7  and  C_8
REMARK    4  A    between atoms: C_8  and  C_9
REMARK    5  A    between atoms: C_9  and  N_10
REMARK    6  A    between atoms: C_14  and  C_15
REMARK                            x       y       z     vdW  Elec       q    Type
REMARK                         _______ _______ _______ _____ _____    ______ ____
ROOT
ATOM      1  C   UNL     1       2.908   0.259   1.453  0.00  0.00    +0.000 A 
ATOM      2  C   UNL     1       2.669   1.547   1.970  0.00  0.00    +0.000 A 
ATOM      3  C   UNL     1       2.982   1.873   3.293  0.00  0.00    +0.000 A 
ATOM      4  C   UNL     1       3.545   0.920   4.135  0.00  0.00    +0.000 A 
ATOM      5  C   UNL     1       3.818  -0.361   3.653  0.00  0.00    +0.000 A 
ATOM      6  C   UNL     1       3.507  -0.675   2.316  0.00  0.00    +0.000 A 
ENDROOT
BRANCH   1   8
ATOM      7  C   UNL     1       0.886   0.011   0.035  0.00  0.00    +0.000 C 
ATOM      8  C   UNL     1       2.433  -0.110   0.025  0.00  0.00    +0.000 C 
ATOM      9  C   UNL     1       3.045   0.861  -1.022  0.00  0.00    +0.000 C 
ATOM     10  C   UNL     1       2.694   0.488  -2.468  0.00  0.00    +0.000 C 
ATOM     11  N   UNL     1       3.068  -0.884  -2.809  0.00  0.00    +0.000 NA
ATOM     12  C   UNL     1       2.460  -1.847  -1.880  0.00  0.00    +0.000 C 
ATOM     13  C   UNL     1       2.816  -1.553  -0.416  0.00  0.00    +0.000 C 
ATOM     14  F   UNL     1       4.175  -1.708  -0.312  0.00  0.00    +0.000 F 
ATOM     15  H   UNL     1       4.084  -0.972  -2.720  0.00  0.00    +0.000 HD
ENDBRANCH   1   8
BRANCH   5  16
ATOM     16  C   UNL     1       4.328  -1.442   4.582  0.00  0.00    +0.000 C 
BRANCH  16  17
ATOM     17  C   UNL     1       3.140  -2.226   5.151  0.00  0.00    +0.000 C 
BRANCH  17  18
ATOM     18  N   UNL     1       3.572  -3.355   5.965  0.00  0.00    +0.000 N 
ATOM     19  C   UNL     1       2.574  -4.123   6.558  0.00  0.00    +0.000 A 
ATOM     20  C   UNL     1       1.357  -4.437   5.936  0.00  0.00    +0.000 A 
ATOM     21  N   UNL     1       0.380  -5.194   6.497  0.00  0.00    +0.000 NA
ATOM     22  C   UNL     1       0.687  -5.676   7.729  0.00  0.00    +0.000 A 
ATOM     23  C   UNL     1       1.894  -5.404   8.353  0.00  0.00    +0.000 A 
ATOM     24  N   UNL     1       2.851  -4.617   7.783  0.00  0.00    +0.000 NA
ATOM     25  H   UNL     1       4.259  -3.148   6.689  0.00  0.00    +0.000 HD
BRANCH  22  26
ATOM     26  C   UNL     1      -0.344  -6.510   8.404  0.00  0.00    +0.000 C 
ATOM     27  N   UNL     1      -1.515  -6.669   7.710  0.00  0.00    +0.000 N 
ATOM     28  O   UNL     1      -0.163  -7.017   9.502  0.00  0.00    +0.000 OA
ATOM     29  H   UNL     1      -1.629  -6.229   6.803  0.00  0.00    +0.000 HD
ATOM     30  H   UNL     1      -2.264  -7.218   8.108  0.00  0.00    +0.000 HD
ENDBRANCH  22  26
ENDBRANCH  17  18
ENDBRANCH  16  17
ENDBRANCH   5  16
TORSDOF 5
