REMARK  Name = 
REMARK  5 active torsions:
REMARK  status: ('A' for Active; 'I' for Inactive)
REMARK    1  A    between atoms: C_2  and  C_3
REMARK    2  A    between atoms: C_6  and  N_7
REMARK    3  A    between atoms: N_7  and  C_8
REMARK    4  A    between atoms: C_8  and  C_9
REMARK    5  A    between atoms: C_13  and  C_14
REMARK                            x       y       z     vdW  Elec       q    Type
REMARK                         _______ _______ _______ _____ _____    ______ ____
ROOT
ATOM      1  C   UNL     1       6.032  -0.930   0.286  0.00  0.00    +0.000 A 
ATOM      2  C   UNL     1       6.522   0.363   0.335  0.00  0.00    +0.000 A 
ATOM      3  C   UNL     1       7.882   0.497   0.505  0.00  0.00    +0.000 A 
ATOM      4  N   UNL     1       8.724  -0.542   0.608  0.00  0.00    +0.000 NA
ATOM      5  C   UNL     1       8.175  -1.767   0.530  0.00  0.00    +0.000 A 
ATOM      6  N   UNL     1       6.856  -2.002   0.373  0.00  0.00    +0.000 NA
ENDROOT
BRANCH   5   7
ATOM      7  C   UNL     1       9.070  -2.922   0.659  0.00  0.00    +0.000 A 
ATOM      8  C   UNL     1       8.614  -4.245   0.565  0.00  0.00    +0.000 A 
ATOM      9  C   UNL     1       9.500  -5.311   0.714  0.00  0.00    +0.000 A 
ATOM     10  C   UNL     1      10.832  -5.028   0.953  0.00  0.00    +0.000 A 
ATOM     11  F   UNL     1      11.684  -6.050   1.110  0.00  0.00    +0.000 F 
ATOM     12  N   UNL     1      11.329  -3.781   1.045  0.00  0.00    +0.000 NA
ATOM     13  C   UNL     1      10.439  -2.767   0.895  0.00  0.00    +0.000 A 
ENDBRANCH   5   7
BRANCH   1  14
ATOM     14  C   UNL     1       4.535  -1.197   0.202  0.00  0.00    +0.000 C 
BRANCH  14  15
ATOM     15  N   UNL     1       4.047  -1.274  -1.174  0.00  0.00    +0.000 N 
ATOM     16  H   UNL     1       4.438  -0.577  -1.802  0.00  0.00    +0.000 HD
BRANCH  15  20
ATOM     17  C   UNL     1       0.056  -2.276  -2.183  0.00  0.00    +0.000 A 
ATOM     18  C   UNL     1       0.408  -2.111  -0.840  0.00  0.00    +0.000 A 
ATOM     19  C   UNL     1       1.725  -1.775  -0.485  0.00  0.00    +0.000 A 
ATOM     20  C   UNL     1       2.710  -1.561  -1.457  0.00  0.00    +0.000 A 
ATOM     21  C   UNL     1       2.341  -1.747  -2.799  0.00  0.00    +0.000 A 
ATOM     22  C   UNL     1       1.031  -2.097  -3.162  0.00  0.00    +0.000 A 
BRANCH  17  24
ATOM     23  N   UNL     1      -2.376  -2.920  -2.835  0.00  0.00    +0.000 NA
ATOM     24  C   UNL     1      -1.291  -2.634  -2.545  0.00  0.00    +0.000 C 
ENDBRANCH  17  24
ENDBRANCH  15  20
ENDBRANCH  14  15
ENDBRANCH   1  14
TORSDOF 5
