REMARK  Name = 
REMARK  6 active torsions:
REMARK  status: ('A' for Active; 'I' for Inactive)
REMARK    1  A    between atoms: N_1  and  C_2
REMARK    2  A    between atoms: C_2  and  C_3
REMARK    3  A    between atoms: C_7  and  C_8
REMARK    4  A    between atoms: C_8  and  C_9
REMARK    5  A    between atoms: C_9  and  N_10
REMARK    6  A    between atoms: C_15  and  C_16
REMARK                            x       y       z     vdW  Elec       q    Type
REMARK                         _______ _______ _______ _____ _____    ______ ____
ROOT
ATOM      1  N   UNL     1       7.089   2.832  -5.301  0.00  0.00    +0.000 N 
ATOM      2  C   UNL     1       7.477   4.045  -5.921  0.00  0.00    +0.000 A 
ATOM      3  C   UNL     1       8.526   4.043  -6.825  0.00  0.00    +0.000 A 
ATOM      4  C   UNL     1       8.889   5.258  -7.372  0.00  0.00    +0.000 A 
ATOM      5  N   UNL     1       8.276   6.418  -7.081  0.00  0.00    +0.000 NA
ATOM      6  C   UNL     1       7.267   6.311  -6.192  0.00  0.00    +0.000 A 
ATOM      7  N   UNL     1       6.850   5.181  -5.598  0.00  0.00    +0.000 NA
ATOM      8  H   UNL     1       6.874   2.148  -6.025  0.00  0.00    +0.000 HD
ENDROOT
BRANCH   6   9
ATOM      9  C   UNL     1       6.524   7.581  -5.844  0.00  0.00    +0.000 C 
ATOM     10  N   UNL     1       6.988   8.726  -6.447  0.00  0.00    +0.000 N 
ATOM     11  O   UNL     1       5.566   7.627  -5.081  0.00  0.00    +0.000 OA
ATOM     12  H   UNL     1       7.780   8.684  -7.082  0.00  0.00    +0.000 HD
ATOM     13  H   UNL     1       6.527   9.602  -6.249  0.00  0.00    +0.000 HD
ENDBRANCH   6   9
BRANCH   1  14
ATOM     14  C   UNL     1       5.964   3.022  -4.361  0.00  0.00    +0.000 C 
BRANCH  14  15
ATOM     15  C   UNL     1       5.541   1.711  -3.679  0.00  0.00    +0.000 C 
BRANCH  15  20
ATOM     16  C   UNL     1       3.573   2.605  -0.506  0.00  0.00    +0.000 A 
ATOM     17  C   UNL     1       2.258   2.541  -0.985  0.00  0.00    +0.000 A 
ATOM     18  C   UNL     1       2.001   2.146  -2.296  0.00  0.00    +0.000 A 
ATOM     19  C   UNL     1       3.057   1.840  -3.157  0.00  0.00    +0.000 A 
ATOM     20  C   UNL     1       4.386   1.933  -2.718  0.00  0.00    +0.000 A 
ATOM     21  C   UNL     1       4.629   2.303  -1.383  0.00  0.00    +0.000 A 
BRANCH  16  22
ATOM     22  C   UNL     1       3.834   3.032   0.918  0.00  0.00    +0.000 C 
BRANCH  22  23
ATOM     23  N   UNL     1       3.158   2.161   1.876  0.00  0.00    +0.000 NA
ATOM     24  H   UNL     1       3.404   2.446   2.821  0.00  0.00    +0.000 HD
ATOM     25  H   UNL     1       3.507   1.211   1.757  0.00  0.00    +0.000 HD
ENDBRANCH  22  23
ENDBRANCH  16  22
ENDBRANCH  15  20
ENDBRANCH  14  15
ENDBRANCH   1  14
TORSDOF 6
