REMARK  Name = 
REMARK  7 active torsions:
REMARK  status: ('A' for Active; 'I' for Inactive)
REMARK    1  A    between atoms: C_1  and  C_2
REMARK    2  A    between atoms: C_2  and  N_3
REMARK    3  A    between atoms: C_2  and  C_21
REMARK    4  A    between atoms: C_4  and  C_6
REMARK    5  A    between atoms: C_9  and  C_10
REMARK    6  A    between atoms: C_10  and  N_11
REMARK    7  A    between atoms: C_12  and  C_14
REMARK                            x       y       z     vdW  Elec       q    Type
REMARK                         _______ _______ _______ _____ _____    ______ ____
ROOT
ATOM      1  N   UNL     1       1.042  -0.097   0.044  0.00  0.00    +0.000 N 
ATOM      2  C   UNL     1       0.389   0.142   1.238  0.00  0.00    +0.000 C 
ATOM      3  O   UNL     1       0.964   0.471   2.266  0.00  0.00    +0.000 OA
ATOM      4  H   UNL     1       0.516  -0.068  -0.823  0.00  0.00    +0.000 HD
ENDROOT
BRANCH   2   5
ATOM      5  C   UNL     1      -1.096  -0.025   1.248  0.00  0.00    +0.000 A 
ATOM      6  C   UNL     1      -1.755  -0.925   0.402  0.00  0.00    +0.000 A 
ATOM      7  C   UNL     1      -3.138  -1.127   0.525  0.00  0.00    +0.000 A 
ATOM      8  C   UNL     1      -3.885  -0.429   1.487  0.00  0.00    +0.000 A 
ATOM      9  C   UNL     1      -3.219   0.473   2.328  0.00  0.00    +0.000 A 
ATOM     10  C   UNL     1      -1.839   0.673   2.209  0.00  0.00    +0.000 A 
BRANCH   8  11
ATOM     11  C   UNL     1      -5.374  -0.624   1.621  0.00  0.00    +0.000 C 
BRANCH  11  12
ATOM     12  N   UNL     1      -5.740  -1.651   2.561  0.00  0.00    +0.000 N 
ATOM     13  C   UNL     1      -7.066  -1.931   2.807  0.00  0.00    +0.000 C 
ATOM     14  O   UNL     1      -7.993  -1.333   2.267  0.00  0.00    +0.000 OA
ATOM     15  H   UNL     1      -5.047  -2.173   3.089  0.00  0.00    +0.000 HD
BRANCH  13  16
ATOM     16  C   UNL     1      -7.276  -3.015   3.767  0.00  0.00    +0.000 A 
ATOM     17  C   UNL     1      -8.494  -3.495   4.216  0.00  0.00    +0.000 A 
ATOM     18  N   UNL     1      -8.194  -4.507   5.083  0.00  0.00    +0.000 N 
ATOM     19  C   UNL     1      -6.833  -4.610   5.143  0.00  0.00    +0.000 A 
ATOM     20  N   UNL     1      -6.245  -3.727   4.368  0.00  0.00    +0.000 NA
ATOM     21  H   UNL     1      -8.856  -5.079   5.590  0.00  0.00    +0.000 HD
ENDBRANCH  13  16
ENDBRANCH  11  12
ENDBRANCH   8  11
ENDBRANCH   2   5
BRANCH   1  23
ATOM     22  C   UNL     1       3.094  -0.928  -1.056  0.00  0.00    +0.000 C 
ATOM     23  C   UNL     1       2.483   0.064  -0.068  0.00  0.00    +0.000 C 
BRANCH  23  24
ATOM     24  C   UNL     1       2.783   1.500  -0.427  0.00  0.00    +0.000 A 
ATOM     25  C   UNL     1       3.558   2.334   0.365  0.00  0.00    +0.000 A 
ATOM     26  S   UNL     1       3.735   3.905  -0.283  0.00  0.00    +0.000 S 
ATOM     27  C   UNL     1       2.777   3.518  -1.638  0.00  0.00    +0.000 A 
ATOM     28  N   UNL     1       2.516   4.439  -2.604  0.00  0.00    +0.000 NA
ATOM     29  C   UNL     1       1.781   3.998  -3.571  0.00  0.00    +0.000 A 
ATOM     30  N   UNL     1       1.288   2.723  -3.665  0.00  0.00    +0.000 N 
ATOM     31  C   UNL     1       1.483   1.772  -2.690  0.00  0.00    +0.000 A 
ATOM     32  O   UNL     1       0.948   0.669  -2.756  0.00  0.00    +0.000 OA
ATOM     33  C   UNL     1       2.329   2.212  -1.596  0.00  0.00    +0.000 A 
ATOM     34  H   UNL     1       0.703   2.450  -4.440  0.00  0.00    +0.000 HD
ENDBRANCH  23  24
ENDBRANCH   1  23
TORSDOF 6
