REMARK  Name = 
REMARK  6 active torsions:
REMARK  status: ('A' for Active; 'I' for Inactive)
REMARK    1  A    between atoms: C_1  and  C_2
REMARK    2  A    between atoms: C_2  and  N_3
REMARK    3  A    between atoms: C_2  and  C_16
REMARK    4  A    between atoms: C_4  and  C_6
REMARK    5  A    between atoms: C_19  and  C_20
REMARK    6  A    between atoms: C_20  and  C_21
REMARK                            x       y       z     vdW  Elec       q    Type
REMARK                         _______ _______ _______ _____ _____    ______ ____
ROOT
ATOM      1  C   UNL     1       0.847   0.171  -0.115  0.00  0.00    +0.000 C 
ATOM      2  C   UNL     1       2.374   0.113   0.015  0.00  0.00    +0.000 C 
ENDROOT
BRANCH   2   3
ATOM      3  C   UNL     1       2.898  -1.237  -0.456  0.00  0.00    +0.000 A 
ATOM      4  C   UNL     1       3.798  -1.309  -1.528  0.00  0.00    +0.000 A 
ATOM      5  C   UNL     1       4.265  -2.545  -1.985  0.00  0.00    +0.000 A 
ATOM      6  C   UNL     1       3.859  -3.737  -1.370  0.00  0.00    +0.000 A 
ATOM      7  C   UNL     1       2.979  -3.666  -0.284  0.00  0.00    +0.000 A 
ATOM      8  C   UNL     1       2.501  -2.433   0.165  0.00  0.00    +0.000 A 
BRANCH   6   9
ATOM      9  C   UNL     1       4.343  -5.079  -1.871  0.00  0.00    +0.000 C 
BRANCH   9  10
ATOM     10  C   UNL     1       5.612  -5.606  -1.236  0.00  0.00    +0.000 A 
ATOM     11  C   UNL     1       6.818  -4.918  -1.366  0.00  0.00    +0.000 A 
ATOM     12  C   UNL     1       7.989  -5.503  -0.890  0.00  0.00    +0.000 A 
ATOM     13  C   UNL     1       7.930  -6.755  -0.293  0.00  0.00    +0.000 A 
ATOM     14  C   UNL     1       6.694  -7.365  -0.181  0.00  0.00    +0.000 A 
ATOM     15  N   UNL     1       5.542  -6.824  -0.639  0.00  0.00    +0.000 NA
ENDBRANCH   9  10
ENDBRANCH   6   9
ENDBRANCH   2   3
BRANCH   2  16
ATOM     16  N   UNL     1       2.830   0.367   1.372  0.00  0.00    +0.000 N 
ATOM     17  C   UNL     1       2.588   1.557   2.018  0.00  0.00    +0.000 C 
ATOM     18  O   UNL     1       1.936   2.465   1.514  0.00  0.00    +0.000 OA
ATOM     19  H   UNL     1       3.607  -0.199   1.697  0.00  0.00    +0.000 HD
BRANCH  17  20
ATOM     20  C   UNL     1       3.103   1.673   3.385  0.00  0.00    +0.000 A 
ATOM     21  C   UNL     1       2.442   2.482   4.299  0.00  0.00    +0.000 A 
ATOM     22  S   UNL     1       3.173   2.510   5.839  0.00  0.00    +0.000 S 
ATOM     23  C   UNL     1       4.424   1.479   5.323  0.00  0.00    +0.000 A 
ATOM     24  N   UNL     1       5.439   1.135   6.160  0.00  0.00    +0.000 NA
ATOM     25  C   UNL     1       6.336   0.375   5.626  0.00  0.00    +0.000 A 
ATOM     26  N   UNL     1       6.301  -0.085   4.334  0.00  0.00    +0.000 N 
ATOM     27  C   UNL     1       5.276   0.200   3.466  0.00  0.00    +0.000 A 
ATOM     28  O   UNL     1       5.236  -0.277   2.338  0.00  0.00    +0.000 OA
ATOM     29  C   UNL     1       4.262   1.084   4.007  0.00  0.00    +0.000 A 
ATOM     30  H   UNL     1       7.024  -0.697   3.984  0.00  0.00    +0.000 HD
ENDBRANCH  17  20
ENDBRANCH   2  16
TORSDOF 5
