REMARK  Name = 
REMARK  6 active torsions:
REMARK  status: ('A' for Active; 'I' for Inactive)
REMARK    1  A    between atoms: C_5  and  O_6
REMARK    2  A    between atoms: O_6  and  C_7
REMARK    3  A    between atoms: C_7  and  C_8
REMARK    4  A    between atoms: C_8  and  C_11
REMARK    5  A    between atoms: C_15  and  O_16
REMARK    6  A    between atoms: O_16  and  C_17
REMARK                            x       y       z     vdW  Elec       q    Type
REMARK                         _______ _______ _______ _____ _____    ______ ____
ROOT
ATOM      1  C   UNL     1       8.503  -0.813  -1.012  0.00  0.00    +0.000 C 
ATOM      2  F   UNL     1       9.247   0.139  -0.375  0.00  0.00    +0.000 F 
ATOM      3  F   UNL     1       7.390  -0.982  -0.238  0.00  0.00    +0.000 F 
ENDROOT
BRANCH   1   4
ATOM      4  C   UNL     1       9.271  -2.104  -1.177  0.00  0.00    +0.000 A 
ATOM      5  C   UNL     1       8.614  -3.329  -1.184  0.00  0.00    +0.000 A 
ATOM      6  N   UNL     1       9.234  -4.519  -1.367  0.00  0.00    +0.000 NA
ATOM      7  C   UNL     1      10.580  -4.496  -1.529  0.00  0.00    +0.000 A 
ATOM      8  C   UNL     1      11.337  -3.334  -1.513  0.00  0.00    +0.000 A 
ATOM      9  C   UNL     1      10.661  -2.123  -1.349  0.00  0.00    +0.000 A 
BRANCH   8  10
ATOM     10  O   UNL     1      12.693  -3.256  -1.679  0.00  0.00    +0.000 OA
BRANCH  10  11
ATOM     11  C   UNL     1      13.505  -4.406  -1.345  0.00  0.00    +0.000 C 
ATOM     12  C   UNL     1      13.603  -4.789   0.154  0.00  0.00    +0.000 C 
ATOM     13  C   UNL     1      15.117  -4.978  -0.026  0.00  0.00    +0.000 C 
ATOM     14  C   UNL     1      15.028  -4.117  -1.294  0.00  0.00    +0.000 C 
ENDBRANCH  10  11
ENDBRANCH   8  10
ENDBRANCH   1   4
BRANCH   1  15
ATOM     15  C   UNL     1       8.069  -0.261  -2.380  0.00  0.00    +0.000 C 
BRANCH  15  16
ATOM     16  O   UNL     1       7.325   0.969  -2.255  0.00  0.00    +0.000 OA
BRANCH  16  21
ATOM     17  F   UNL     1       5.678   2.950  -7.008  0.00  0.00    +0.000 F 
ATOM     18  C   UNL     1       6.082   2.481  -5.819  0.00  0.00    +0.000 A 
ATOM     19  C   UNL     1       6.826   1.314  -5.769  0.00  0.00    +0.000 A 
ATOM     20  N   UNL     1       7.266   0.771  -4.608  0.00  0.00    +0.000 NA
ATOM     21  C   UNL     1       6.927   1.451  -3.486  0.00  0.00    +0.000 A 
ATOM     22  C   UNL     1       6.182   2.627  -3.540  0.00  0.00    +0.000 A 
ATOM     23  N   UNL     1       5.742   3.167  -4.708  0.00  0.00    +0.000 NA
ENDBRANCH  16  21
ENDBRANCH  15  16
ENDBRANCH   1  15
TORSDOF 6
