REMARK  Name = 
REMARK  6 active torsions:
REMARK  status: ('A' for Active; 'I' for Inactive)
REMARK    1  A    between atoms: C_1  and  N_2
REMARK    2  A    between atoms: C_3  and  C_5
REMARK    3  A    between atoms: C_8  and  N_9
REMARK    4  A    between atoms: N_9  and  C_10
REMARK    5  A    between atoms: C_10  and  C_11
REMARK    6  A    between atoms: C_10  and  C_12
REMARK                            x       y       z     vdW  Elec       q    Type
REMARK                         _______ _______ _______ _____ _____    ______ ____
ROOT
ATOM      1  C   UNL     1      10.327   2.813   5.109  0.00  0.00    +0.000 A 
ATOM      2  C   UNL     1       9.110   2.134   5.207  0.00  0.00    +0.000 A 
ATOM      3  C   UNL     1       8.803   1.122   4.288  0.00  0.00    +0.000 A 
ATOM      4  C   UNL     1       9.670   0.795   3.237  0.00  0.00    +0.000 A 
ATOM      5  C   UNL     1      10.898   1.458   3.173  0.00  0.00    +0.000 A 
ATOM      6  C   UNL     1      11.219   2.470   4.090  0.00  0.00    +0.000 A 
ENDROOT
BRANCH   1   9
ATOM      7  C   UNL     1      10.436   4.884   8.280  0.00  0.00    +0.000 C 
ATOM      8  N   UNL     1      10.136   3.871   7.300  0.00  0.00    +0.000 N 
ATOM      9  C   UNL     1      10.693   3.921   6.038  0.00  0.00    +0.000 C 
ATOM     10  O   UNL     1      11.466   4.799   5.678  0.00  0.00    +0.000 OA
ATOM     11  H   UNL     1       9.659   3.035   7.604  0.00  0.00    +0.000 HD
ENDBRANCH   1   9
BRANCH   4  12
ATOM     12  N   UNL     1       9.276  -0.223   2.369  0.00  0.00    +0.000 N 
ATOM     13  H   UNL     1       9.333  -1.130   2.827  0.00  0.00    +0.000 HD
BRANCH  12  14
ATOM     14  C   UNL     1       9.741  -0.254   0.978  0.00  0.00    +0.000 C 
ATOM     15  C   UNL     1       8.507  -0.244   0.070  0.00  0.00    +0.000 C 
BRANCH  14  16
ATOM     16  C   UNL     1      10.626  -1.467   0.728  0.00  0.00    +0.000 A 
ATOM     17  C   UNL     1      11.964  -1.285   0.340  0.00  0.00    +0.000 A 
ATOM     18  C   UNL     1      12.801  -2.380   0.115  0.00  0.00    +0.000 A 
ATOM     19  C   UNL     1      12.316  -3.675   0.275  0.00  0.00    +0.000 A 
ATOM     20  C   UNL     1      10.989  -3.876   0.650  0.00  0.00    +0.000 A 
ATOM     21  C   UNL     1      10.150  -2.782   0.873  0.00  0.00    +0.000 A 
ENDBRANCH  14  16
ENDBRANCH  12  14
ENDBRANCH   4  12
TORSDOF 4
