REMARK  Name = 
REMARK  5 active torsions:
REMARK  status: ('A' for Active; 'I' for Inactive)
REMARK    1  A    between atoms: C_2  and  C_4
REMARK    2  A    between atoms: C_7  and  C_8
REMARK    3  A    between atoms: C_8  and  C_9
REMARK    4  A    between atoms: C_13  and  C_14
REMARK    5  A    between atoms: C_22  and  O_23
REMARK                            x       y       z     vdW  Elec       q    Type
REMARK                         _______ _______ _______ _____ _____    ______ ____
ROOT
ATOM      1  C   UNL     1       5.153   2.212   4.405  0.00  0.00    +0.000 C 
ATOM      2  C   UNL     1       5.154   3.725   4.681  0.00  0.00    +0.000 C 
ATOM      3  C   UNL     1       6.415   3.075   4.225  0.00  0.00    +0.000 C 
ENDROOT
BRANCH   1   7
ATOM      4  C   UNL     1       3.324   0.919   0.787  0.00  0.00    +0.000 A 
ATOM      5  N   UNL     1       2.544   1.605   1.656  0.00  0.00    +0.000 NA
ATOM      6  C   UNL     1       3.152   1.979   2.806  0.00  0.00    +0.000 A 
ATOM      7  C   UNL     1       4.475   1.721   3.133  0.00  0.00    +0.000 A 
ATOM      8  C   UNL     1       5.144   0.997   2.155  0.00  0.00    +0.000 A 
ATOM      9  N   UNL     1       4.611   0.589   0.986  0.00  0.00    +0.000 NA
BRANCH   4  11
ATOM     10  N   UNL     1       1.366   0.844  -0.681  0.00  0.00    +0.000 N 
ATOM     11  C   UNL     1       2.689   0.492  -0.517  0.00  0.00    +0.000 C 
ATOM     12  O   UNL     1       3.279  -0.115  -1.405  0.00  0.00    +0.000 OA
ATOM     13  H   UNL     1       0.893   0.577  -1.533  0.00  0.00    +0.000 HD
ATOM     14  H   UNL     1       0.875   1.340   0.051  0.00  0.00    +0.000 HD
ENDBRANCH   4  11
ENDBRANCH   1   7
BRANCH   1  15
ATOM     15  C   UNL     1       5.108   1.293   5.631  0.00  0.00    +0.000 A 
ATOM     16  C   UNL     1       6.005   0.226   5.786  0.00  0.00    +0.000 A 
ATOM     17  C   UNL     1       6.157  -0.407   7.020  0.00  0.00    +0.000 A 
ATOM     18  C   UNL     1       5.415   0.020   8.123  0.00  0.00    +0.000 A 
ATOM     19  C   UNL     1       4.468   1.048   8.003  0.00  0.00    +0.000 A 
ATOM     20  C   UNL     1       4.294   1.620   6.730  0.00  0.00    +0.000 A 
BRANCH  19  21
ATOM     21  C   UNL     1       3.769   1.624   9.171  0.00  0.00    +0.000 A 
ATOM     22  C   UNL     1       4.454   1.858  10.377  0.00  0.00    +0.000 A 
ATOM     23  C   UNL     1       3.840   2.514  11.448  0.00  0.00    +0.000 A 
ATOM     24  C   UNL     1       2.526   2.956  11.333  0.00  0.00    +0.000 A 
ATOM     25  C   UNL     1       1.820   2.727  10.156  0.00  0.00    +0.000 A 
ATOM     26  C   UNL     1       2.433   2.059   9.091  0.00  0.00    +0.000 A 
ENDBRANCH  19  21
ENDBRANCH   1  15
BRANCH   3  27
ATOM     27  O   UNL     1       7.461   2.973   5.210  0.00  0.00    +0.000 OA
ATOM     28  H   UNL     1       7.123   2.764   6.101  0.00  0.00    +0.000 HD
ENDBRANCH   3  27
TORSDOF 5
