REMARK  Name = 
REMARK  6 active torsions:
REMARK  status: ('A' for Active; 'I' for Inactive)
REMARK    1  A    between atoms: C_2  and  C_20
REMARK    2  A    between atoms: N_3  and  C_4
REMARK    3  A    between atoms: C_4  and  C_5
REMARK    4  A    between atoms: C_8  and  C_9
REMARK    5  A    between atoms: C_9  and  N_10
REMARK    6  A    between atoms: C_11  and  C_13
REMARK                            x       y       z     vdW  Elec       q    Type
REMARK                         _______ _______ _______ _____ _____    ______ ____
ROOT
ATOM      1  C   UNL     1       2.323   1.676   1.875  0.00  0.00    +0.000 C 
ENDROOT
BRANCH   1   2
ATOM      2  C   UNL     1       3.234   2.570   2.681  0.00  0.00    +0.000 A 
ATOM      3  C   UNL     1       3.122   3.965   2.599  0.00  0.00    +0.000 A 
ATOM      4  C   UNL     1       3.918   4.800   3.396  0.00  0.00    +0.000 A 
ATOM      5  C   UNL     1       4.865   4.258   4.276  0.00  0.00    +0.000 A 
ATOM      6  C   UNL     1       4.986   2.863   4.348  0.00  0.00    +0.000 A 
ATOM      7  C   UNL     1       4.188   2.030   3.552  0.00  0.00    +0.000 A 
BRANCH   5   8
ATOM      8  C   UNL     1       5.721   5.146   5.147  0.00  0.00    +0.000 C 
BRANCH   8   9
ATOM      9  N   UNL     1       5.094   5.406   6.426  0.00  0.00    +0.000 N 
ATOM     10  C   UNL     1       5.718   6.191   7.378  0.00  0.00    +0.000 C 
ATOM     11  O   UNL     1       6.798   6.731   7.176  0.00  0.00    +0.000 OA
ATOM     12  H   UNL     1       4.327   4.809   6.703  0.00  0.00    +0.000 HD
BRANCH  10  13
ATOM     13  C   UNL     1       4.982   6.236   8.715  0.00  0.00    +0.000 C 
ATOM     14  C   UNL     1       3.577   6.794   8.617  0.00  0.00    +0.000 C 
ATOM     15  C   UNL     1       3.762   8.270   8.891  0.00  0.00    +0.000 C 
ATOM     16  O   UNL     1       4.906   8.401   9.735  0.00  0.00    +0.000 OA
ATOM     17  C   UNL     1       5.637   7.165   9.725  0.00  0.00    +0.000 C 
ENDBRANCH  10  13
ENDBRANCH   8   9
ENDBRANCH   5   8
ENDBRANCH   1   2
BRANCH   1  20
ATOM     18  O   UNL     1       1.083  -0.002   0.072  0.00  0.00    +0.000 OA
ATOM     19  C   UNL     1       2.126   0.542  -0.277  0.00  0.00    +0.000 C 
ATOM     20  N   UNL     1       2.850   1.349   0.573  0.00  0.00    +0.000 N 
ATOM     21  H   UNL     1       3.562   1.962   0.188  0.00  0.00    +0.000 HD
BRANCH  19  22
ATOM     22  C   UNL     1       2.681   0.329  -1.619  0.00  0.00    +0.000 A 
ATOM     23  C   UNL     1       2.407  -0.843  -2.310  0.00  0.00    +0.000 A 
ATOM     24  S   UNL     1       3.118  -0.901  -3.862  0.00  0.00    +0.000 S 
ATOM     25  C   UNL     1       3.777   0.659  -3.678  0.00  0.00    +0.000 A 
ATOM     26  N   UNL     1       4.482   1.248  -4.680  0.00  0.00    +0.000 NA
ATOM     27  C   UNL     1       4.886   2.447  -4.415  0.00  0.00    +0.000 A 
ATOM     28  N   UNL     1       4.663   3.101  -3.233  0.00  0.00    +0.000 N 
ATOM     29  C   UNL     1       4.004   2.528  -2.174  0.00  0.00    +0.000 A 
ATOM     30  O   UNL     1       3.896   3.105  -1.099  0.00  0.00    +0.000 OA
ATOM     31  C   UNL     1       3.491   1.195  -2.437  0.00  0.00    +0.000 A 
ATOM     32  H   UNL     1       5.030   4.027  -3.077  0.00  0.00    +0.000 HD
ENDBRANCH  19  22
ENDBRANCH   1  20
TORSDOF 6
