REMARK  Name = 
REMARK  5 active torsions:
REMARK  status: ('A' for Active; 'I' for Inactive)
REMARK    1  A    between atoms: C_1  and  N_2
REMARK    2  A    between atoms: C_10  and  C_11
REMARK    3  A    between atoms: C_11  and  N_12
REMARK    4  A    between atoms: N_12  and  C_13
REMARK    5  A    between atoms: C_16  and  C_17
REMARK                            x       y       z     vdW  Elec       q    Type
REMARK                         _______ _______ _______ _____ _____    ______ ____
ROOT
ATOM      1  C   UNL     1      -4.729  -1.237   3.936  0.00  0.00    +0.000 C 
ENDROOT
BRANCH   1  11
ATOM      2  C   UNL     1       2.424   0.537  -0.043  0.00  0.00    +0.000 C 
ATOM      3  N   UNL     1       1.071   0.040  -0.287  0.00  0.00    +0.000 NA
ATOM      4  C   UNL     1       0.591  -0.713   0.897  0.00  0.00    +0.000 C 
ATOM      5  C   UNL     1      -0.872  -1.182   0.761  0.00  0.00    +0.000 C 
ATOM      6  N   UNL     1      -1.719  -0.022   0.475  0.00  0.00    +0.000 N 
ATOM      7  C   UNL     1      -3.030  -0.085   0.875  0.00  0.00    +0.000 A 
ATOM      8  N   UNL     1      -3.985   0.541   0.172  0.00  0.00    +0.000 NA
ATOM      9  C   UNL     1      -5.235   0.526   0.674  0.00  0.00    +0.000 A 
ATOM     10  C   UNL     1      -5.572  -0.060   1.870  0.00  0.00    +0.000 A 
ATOM     11  C   UNL     1      -4.534  -0.653   2.552  0.00  0.00    +0.000 A 
ATOM     12  N   UNL     1      -3.285  -0.694   2.045  0.00  0.00    +0.000 NA
ATOM     13  C   UNL     1      -1.337   0.725  -0.719  0.00  0.00    +0.000 C 
ATOM     14  C   UNL     1       0.145   1.164  -0.574  0.00  0.00    +0.000 C 
ENDBRANCH   1  11
BRANCH   1  15
ATOM     15  N   UNL     1      -5.161  -2.630   3.891  0.00  0.00    +0.000 N 
ATOM     16  H   UNL     1      -5.765  -2.864   3.109  0.00  0.00    +0.000 HD
BRANCH  15  17
ATOM     17  C   UNL     1      -5.417  -3.343   5.059  0.00  0.00    +0.000 A 
ATOM     18  C   UNL     1      -5.126  -2.875   6.344  0.00  0.00    +0.000 A 
ATOM     19  C   UNL     1      -5.358  -3.676   7.466  0.00  0.00    +0.000 A 
ATOM     20  C   UNL     1      -5.851  -4.957   7.271  0.00  0.00    +0.000 A 
ATOM     21  N   UNL     1      -6.107  -5.484   6.044  0.00  0.00    +0.000 NA
ATOM     22  C   UNL     1      -5.867  -4.668   4.987  0.00  0.00    +0.000 A 
BRANCH  20  23
ATOM     23  C   UNL     1      -6.125  -5.837   8.449  0.00  0.00    +0.000 C 
ATOM     24  N   UNL     1      -6.595  -7.086   8.146  0.00  0.00    +0.000 N 
ATOM     25  O   UNL     1      -5.950  -5.476   9.607  0.00  0.00    +0.000 OA
ATOM     26  H   UNL     1      -6.718  -7.348   7.173  0.00  0.00    +0.000 HD
ATOM     27  H   UNL     1      -6.802  -7.742   8.885  0.00  0.00    +0.000 HD
ENDBRANCH  20  23
ENDBRANCH  15  17
ENDBRANCH   1  15
TORSDOF 4
