REMARK  Name = 
REMARK  6 active torsions:
REMARK  status: ('A' for Active; 'I' for Inactive)
REMARK    1  A    between atoms: C_2  and  C_25
REMARK    2  A    between atoms: N_3  and  C_4
REMARK    3  A    between atoms: C_4  and  C_5
REMARK    4  A    between atoms: C_8  and  C_9
REMARK    5  A    between atoms: C_9  and  N_10
REMARK    6  A    between atoms: C_11  and  C_13
REMARK                            x       y       z     vdW  Elec       q    Type
REMARK                         _______ _______ _______ _____ _____    ______ ____
ROOT
ATOM      1  C   UNL     1       3.143   2.532   2.720  0.00  0.00    +0.000 A 
ATOM      2  C   UNL     1       3.054   3.930   2.677  0.00  0.00    +0.000 A 
ATOM      3  C   UNL     1       3.842   4.722   3.520  0.00  0.00    +0.000 A 
ATOM      4  C   UNL     1       4.753   4.132   4.407  0.00  0.00    +0.000 A 
ATOM      5  C   UNL     1       4.850   2.735   4.441  0.00  0.00    +0.000 A 
ATOM      6  C   UNL     1       4.062   1.944   3.598  0.00  0.00    +0.000 A 
ENDROOT
BRANCH   1   7
ATOM      7  C   UNL     1       2.232   1.679   1.880  0.00  0.00    +0.000 C 
BRANCH   7  10
ATOM      8  O   UNL     1       0.898   0.165  -0.009  0.00  0.00    +0.000 OA
ATOM      9  C   UNL     1       1.987   0.646  -0.316  0.00  0.00    +0.000 C 
ATOM     10  N   UNL     1       2.739   1.407   0.558  0.00  0.00    +0.000 N 
ATOM     11  H   UNL     1       3.627   1.791   0.251  0.00  0.00    +0.000 HD
BRANCH   9  12
ATOM     12  C   UNL     1       2.542   0.424  -1.679  0.00  0.00    +0.000 A 
ATOM     13  C   UNL     1       1.814  -0.292  -2.621  0.00  0.00    +0.000 A 
ATOM     14  C   UNL     1       2.366  -0.471  -3.883  0.00  0.00    +0.000 A 
ATOM     15  C   UNL     1       3.613   0.070  -4.128  0.00  0.00    +0.000 A 
ATOM     16  N   UNL     1       4.303   0.763  -3.193  0.00  0.00    +0.000 NA
ATOM     17  N   UNL     1       3.761   0.945  -1.950  0.00  0.00    +0.000 NA
ENDBRANCH   9  12
ENDBRANCH   7  10
ENDBRANCH   1   7
BRANCH   4  18
ATOM     18  C   UNL     1       5.586   4.975   5.338  0.00  0.00    +0.000 C 
BRANCH  18  19
ATOM     19  N   UNL     1       4.919   5.192   6.599  0.00  0.00    +0.000 N 
ATOM     20  C   UNL     1       5.468   6.010   7.555  0.00  0.00    +0.000 C 
ATOM     21  O   UNL     1       6.521   6.614   7.364  0.00  0.00    +0.000 OA
ATOM     22  H   UNL     1       4.184   4.540   6.857  0.00  0.00    +0.000 HD
BRANCH  20  23
ATOM     23  C   UNL     1       4.706   6.182   8.800  0.00  0.00    +0.000 A 
ATOM     24  C   UNL     1       4.921   7.309   9.583  0.00  0.00    +0.000 A 
ATOM     25  S   UNL     1       3.920   7.389  10.961  0.00  0.00    +0.000 S 
ATOM     26  C   UNL     1       3.201   5.892  10.590  0.00  0.00    +0.000 A 
ATOM     27  N   UNL     1       2.253   5.352  11.403  0.00  0.00    +0.000 NA
ATOM     28  C   UNL     1       1.823   4.195  11.025  0.00  0.00    +0.000 A 
ATOM     29  N   UNL     1       2.248   3.533   9.903  0.00  0.00    +0.000 N 
ATOM     30  C   UNL     1       3.176   4.055   9.033  0.00  0.00    +0.000 A 
ATOM     31  O   UNL     1       3.501   3.457   8.012  0.00  0.00    +0.000 OA
ATOM     32  C   UNL     1       3.706   5.348   9.422  0.00  0.00    +0.000 A 
ATOM     33  H   UNL     1       1.864   2.632   9.657  0.00  0.00    +0.000 HD
ENDBRANCH  20  23
ENDBRANCH  18  19
ENDBRANCH   4  18
TORSDOF 6
