REMARK  Name = 
REMARK  8 active torsions:
REMARK  status: ('A' for Active; 'I' for Inactive)
REMARK    1  A    between atoms: C_2  and  C_21
REMARK    2  A    between atoms: N_3  and  C_4
REMARK    3  A    between atoms: C_4  and  C_5
REMARK    4  A    between atoms: C_8  and  C_9
REMARK    5  A    between atoms: C_9  and  C_10
REMARK    6  A    between atoms: C_10  and  O_11
REMARK    7  A    between atoms: C_10  and  C_12
REMARK    8  A    between atoms: C_12  and  C_13
REMARK                            x       y       z     vdW  Elec       q    Type
REMARK                         _______ _______ _______ _____ _____    ______ ____
ROOT
ATOM      1  C   UNL     1       3.167  -2.672  -2.322  0.00  0.00    +0.000 A 
ATOM      2  C   UNL     1       4.154  -2.127  -3.136  0.00  0.00    +0.000 A 
ATOM      3  C   UNL     1       4.964  -2.985  -3.876  0.00  0.00    +0.000 A 
ATOM      4  C   UNL     1       4.767  -4.367  -3.802  0.00  0.00    +0.000 A 
ATOM      5  C   UNL     1       3.730  -4.816  -2.993  0.00  0.00    +0.000 A 
ATOM      6  N   UNL     1       2.941  -4.009  -2.250  0.00  0.00    +0.000 NA
ENDROOT
BRANCH   1   7
ATOM      7  C   UNL     1       2.277  -1.768  -1.503  0.00  0.00    +0.000 C 
BRANCH   7  10
ATOM      8  O   UNL     1       1.980   0.567  -3.040  0.00  0.00    +0.000 OA
ATOM      9  C   UNL     1       1.054  -0.240  -3.004  0.00  0.00    +0.000 C 
ATOM     10  N   UNL     1       1.096  -1.371  -2.232  0.00  0.00    +0.000 N 
ATOM     11  H   UNL     1       0.446  -2.125  -2.424  0.00  0.00    +0.000 HD
BRANCH   9  12
ATOM     12  C   UNL     1      -0.192  -0.015  -3.744  0.00  0.00    +0.000 A 
ATOM     13  C   UNL     1      -0.586   1.272  -4.076  0.00  0.00    +0.000 A 
ATOM     14  S   UNL     1      -2.072   1.332  -4.913  0.00  0.00    +0.000 S 
ATOM     15  C   UNL     1      -2.218  -0.362  -4.888  0.00  0.00    +0.000 A 
ATOM     16  N   UNL     1      -3.282  -0.986  -5.466  0.00  0.00    +0.000 NA
ATOM     17  C   UNL     1      -3.239  -2.277  -5.405  0.00  0.00    +0.000 A 
ATOM     18  N   UNL     1      -2.237  -2.999  -4.813  0.00  0.00    +0.000 N 
ATOM     19  C   UNL     1      -1.179  -2.414  -4.166  0.00  0.00    +0.000 A 
ATOM     20  O   UNL     1      -0.358  -3.088  -3.551  0.00  0.00    +0.000 OA
ATOM     21  C   UNL     1      -1.159  -0.964  -4.235  0.00  0.00    +0.000 A 
ATOM     22  H   UNL     1      -2.273  -4.006  -4.771  0.00  0.00    +0.000 HD
ENDBRANCH   9  12
ENDBRANCH   7  10
ENDBRANCH   1   7
BRANCH   4  23
ATOM     23  C   UNL     1       5.671  -5.331  -4.532  0.00  0.00    +0.000 C 
BRANCH  23  24
ATOM     24  C   UNL     1       6.938  -5.736  -3.745  0.00  0.00    +0.000 C 
BRANCH  24  25
ATOM     25  O   UNL     1       7.710  -4.558  -3.475  0.00  0.00    +0.000 OA
ATOM     26  H   UNL     1       7.211  -4.019  -2.838  0.00  0.00    +0.000 HD
ENDBRANCH  24  25
BRANCH  24  27
ATOM     27  C   UNL     1       6.640  -6.515  -2.453  0.00  0.00    +0.000 C 
BRANCH  27  28
ATOM     28  C   UNL     1       7.896  -6.953  -1.737  0.00  0.00    +0.000 A 
ATOM     29  C   UNL     1       8.480  -6.127  -0.777  0.00  0.00    +0.000 A 
ATOM     30  C   UNL     1       9.638  -6.551  -0.133  0.00  0.00    +0.000 A 
ATOM     31  C   UNL     1      10.183  -7.784  -0.462  0.00  0.00    +0.000 A 
ATOM     32  C   UNL     1       9.543  -8.543  -1.427  0.00  0.00    +0.000 A 
ATOM     33  N   UNL     1       8.415  -8.160  -2.070  0.00  0.00    +0.000 NA
ENDBRANCH  27  28
ENDBRANCH  24  27
ENDBRANCH  23  24
ENDBRANCH   4  23
TORSDOF 8
