REMARK  Name = 
REMARK  5 active torsions:
REMARK  status: ('A' for Active; 'I' for Inactive)
REMARK    1  A    between atoms: C_2  and  C_4
REMARK    2  A    between atoms: C_7  and  N_8
REMARK    3  A    between atoms: N_8  and  C_9
REMARK    4  A    between atoms: C_9  and  C_10
REMARK    5  A    between atoms: C_14  and  C_15
REMARK                            x       y       z     vdW  Elec       q    Type
REMARK                         _______ _______ _______ _____ _____    ______ ____
ROOT
ATOM      1  C   UNL     1       4.631   5.706  -2.454  0.00  0.00    +0.000 C 
ENDROOT
BRANCH   1   2
ATOM      2  C   UNL     1       5.402   6.701  -3.308  0.00  0.00    +0.000 A 
ATOM      3  N   UNL     1       5.303   7.997  -2.948  0.00  0.00    +0.000 NA
ATOM      4  C   UNL     1       5.919   8.890  -3.734  0.00  0.00    +0.000 A 
ATOM      5  C   UNL     1       6.616   8.543  -4.862  0.00  0.00    +0.000 A 
ATOM      6  C   UNL     1       6.669   7.193  -5.174  0.00  0.00    +0.000 A 
ATOM      7  N   UNL     1       6.046   6.263  -4.414  0.00  0.00    +0.000 NA
BRANCH   6   8
ATOM      8  C   UNL     1       7.390   6.691  -6.356  0.00  0.00    +0.000 A 
ATOM      9  C   UNL     1       6.974   5.541  -7.035  0.00  0.00    +0.000 A 
ATOM     10  N   UNL     1       7.566   5.033  -8.150  0.00  0.00    +0.000 NA
ATOM     11  C   UNL     1       8.647   5.700  -8.615  0.00  0.00    +0.000 A 
ATOM     12  C   UNL     1       9.150   6.836  -8.012  0.00  0.00    +0.000 A 
ATOM     13  F   UNL     1      10.226   7.456  -8.511  0.00  0.00    +0.000 F 
ATOM     14  C   UNL     1       8.525   7.333  -6.877  0.00  0.00    +0.000 A 
ENDBRANCH   6   8
ENDBRANCH   1   2
BRANCH   1  15
ATOM     15  N   UNL     1       5.277   4.397  -2.325  0.00  0.00    +0.000 N 
ATOM     16  H   UNL     1       5.706   4.074  -3.190  0.00  0.00    +0.000 HD
BRANCH  15  20
ATOM     17  C   UNL     1       3.631   1.386   0.135  0.00  0.00    +0.000 A 
ATOM     18  C   UNL     1       2.983   2.616   0.024  0.00  0.00    +0.000 A 
ATOM     19  C   UNL     1       3.507   3.610  -0.807  0.00  0.00    +0.000 A 
ATOM     20  C   UNL     1       4.669   3.398  -1.566  0.00  0.00    +0.000 A 
ATOM     21  C   UNL     1       5.320   2.165  -1.422  0.00  0.00    +0.000 A 
ATOM     22  C   UNL     1       4.813   1.168  -0.577  0.00  0.00    +0.000 A 
BRANCH  17  24
ATOM     23  N   UNL     1       1.767   0.304   1.259  0.00  0.00    +0.000 N 
ATOM     24  C   UNL     1       3.116   0.322   1.034  0.00  0.00    +0.000 C 
ATOM     25  O   UNL     1       3.852  -0.521   1.529  0.00  0.00    +0.000 OA
ATOM     26  H   UNL     1       1.410  -0.479   1.794  0.00  0.00    +0.000 HD
ATOM     27  H   UNL     1       1.114   0.814   0.683  0.00  0.00    +0.000 HD
ENDBRANCH  17  24
ENDBRANCH  15  20
ENDBRANCH   1  15
TORSDOF 5
