REMARK  Name = 
REMARK  7 active torsions:
REMARK  status: ('A' for Active; 'I' for Inactive)
REMARK    1  A    between atoms: N_1  and  C_2
REMARK    2  A    between atoms: C_2  and  C_3
REMARK    3  A    between atoms: C_3  and  C_4
REMARK    4  A    between atoms: C_7  and  C_8
REMARK    5  A    between atoms: C_8  and  N_9
REMARK    6  A    between atoms: C_15  and  C_16
REMARK    7  A    between atoms: C_16  and  O_17
REMARK                            x       y       z     vdW  Elec       q    Type
REMARK                         _______ _______ _______ _____ _____    ______ ____
ROOT
ATOM      1  C   UNL     1       8.649   0.756   1.109  0.00  0.00    +0.000 C 
ENDROOT
BRANCH   1   2
ATOM      2  N   UNL     1       9.207  -0.522   1.535  0.00  0.00    +0.000 N 
ATOM      3  C   UNL     1       9.451  -1.574   0.681  0.00  0.00    +0.000 A 
ATOM      4  C   UNL     1      10.190  -2.513   1.363  0.00  0.00    +0.000 A 
ATOM      5  C   UNL     1      10.423  -2.013   2.674  0.00  0.00    +0.000 A 
ATOM      6  C   UNL     1      11.143  -2.493   3.785  0.00  0.00    +0.000 A 
ATOM      7  C   UNL     1      11.204  -1.729   4.957  0.00  0.00    +0.000 A 
ATOM      8  C   UNL     1      10.542  -0.503   5.051  0.00  0.00    +0.000 A 
ATOM      9  C   UNL     1       9.802  -0.023   3.955  0.00  0.00    +0.000 A 
ATOM     10  C   UNL     1       9.773  -0.780   2.772  0.00  0.00    +0.000 A 
BRANCH   8  11
ATOM     11  C   UNL     1      10.602   0.313   6.317  0.00  0.00    +0.000 C 
BRANCH  11  12
ATOM     12  O   UNL     1      11.118   1.610   6.046  0.00  0.00    +0.000 OA
ATOM     13  H   UNL     1      11.913   1.483   5.501  0.00  0.00    +0.000 HD
ENDBRANCH  11  12
ENDBRANCH   8  11
ENDBRANCH   1   2
BRANCH   1  17
ATOM     14  C   UNL     1       4.336   1.117   1.292  0.00  0.00    +0.000 A 
ATOM     15  C   UNL     1       5.120   1.400   2.416  0.00  0.00    +0.000 A 
ATOM     16  C   UNL     1       6.510   1.251   2.364  0.00  0.00    +0.000 A 
ATOM     17  C   UNL     1       7.146   0.815   1.192  0.00  0.00    +0.000 A 
ATOM     18  C   UNL     1       6.352   0.490   0.081  0.00  0.00    +0.000 A 
ATOM     19  C   UNL     1       4.969   0.643   0.141  0.00  0.00    +0.000 A 
ATOM     20  F   UNL     1       4.242   0.347  -0.945  0.00  0.00    +0.000 F 
BRANCH  14  21
ATOM     21  C   UNL     1       2.842   1.314   1.324  0.00  0.00    +0.000 C 
BRANCH  21  22
ATOM     22  C   UNL     1       2.106   0.052   1.780  0.00  0.00    +0.000 C 
BRANCH  22  23
ATOM     23  N   UNL     1       0.658   0.266   1.786  0.00  0.00    +0.000 NA
ATOM     24  H   UNL     1       0.195  -0.598   2.074  0.00  0.00    +0.000 HD
ATOM     25  H   UNL     1       0.340   0.451   0.836  0.00  0.00    +0.000 HD
ENDBRANCH  22  23
ENDBRANCH  21  22
ENDBRANCH  14  21
ENDBRANCH   1  17
TORSDOF 7
