REMARK  Name = 
REMARK  5 active torsions:
REMARK  status: ('A' for Active; 'I' for Inactive)
REMARK    1  A    between atoms: C_1  and  C_2
REMARK    2  A    between atoms: C_4  and  C_5
REMARK    3  A    between atoms: C_5  and  N_6
REMARK    4  A    between atoms: C_10  and  C_11
REMARK    5  A    between atoms: C_20  and  O_21
REMARK                            x       y       z     vdW  Elec       q    Type
REMARK                         _______ _______ _______ _____ _____    ______ ____
ROOT
ATOM      1  N   UNL     1       4.112  -0.226   0.669  0.00  0.00    +0.000 N 
ATOM      2  C   UNL     1       4.750   0.928   0.251  0.00  0.00    +0.000 A 
ATOM      3  C   UNL     1       4.401   1.658  -0.877  0.00  0.00    +0.000 A 
ATOM      4  C   UNL     1       5.120   2.816  -1.189  0.00  0.00    +0.000 A 
ATOM      5  C   UNL     1       6.164   3.218  -0.354  0.00  0.00    +0.000 A 
ATOM      6  C   UNL     1       6.441   2.437   0.753  0.00  0.00    +0.000 A 
ATOM      7  N   UNL     1       5.756   1.315   1.068  0.00  0.00    +0.000 NA
ATOM      8  H   UNL     1       4.617  -0.590   1.471  0.00  0.00    +0.000 HD
ENDROOT
BRANCH   5   9
ATOM      9  C   UNL     1       6.998   4.412  -0.606  0.00  0.00    +0.000 C 
ATOM     10  N   UNL     1       6.430   5.421  -1.338  0.00  0.00    +0.000 N 
ATOM     11  O   UNL     1       8.130   4.505  -0.170  0.00  0.00    +0.000 OA
ATOM     12  H   UNL     1       5.442   5.471  -1.544  0.00  0.00    +0.000 HD
ATOM     13  H   UNL     1       6.980   6.264  -1.451  0.00  0.00    +0.000 HD
ENDBRANCH   5   9
BRANCH   1  14
ATOM     14  C   UNL     1       3.238  -1.106  -0.100  0.00  0.00    +0.000 C 
ATOM     15  C   UNL     1       3.744  -2.011  -1.206  0.00  0.00    +0.000 C 
ATOM     16  C   UNL     1       3.526  -2.586   0.152  0.00  0.00    +0.000 C 
BRANCH  14  20
ATOM     17  C   UNL     1      -0.926   0.352  -2.668  0.00  0.00    +0.000 C 
ATOM     18  C   UNL     1      -0.249   0.022  -1.369  0.00  0.00    +0.000 A 
ATOM     19  C   UNL     1       1.107  -0.346  -1.340  0.00  0.00    +0.000 A 
ATOM     20  C   UNL     1       1.774  -0.664  -0.137  0.00  0.00    +0.000 A 
ATOM     21  C   UNL     1       1.033  -0.551   1.051  0.00  0.00    +0.000 A 
ATOM     22  C   UNL     1      -0.317  -0.196   1.044  0.00  0.00    +0.000 A 
ATOM     23  C   UNL     1      -0.950   0.073  -0.165  0.00  0.00    +0.000 A 
BRANCH  23  24
ATOM     24  O   UNL     1      -2.277   0.396  -0.189  0.00  0.00    +0.000 OA
ATOM     25  H   UNL     1      -2.625   0.341   0.716  0.00  0.00    +0.000 HD
ENDBRANCH  23  24
ENDBRANCH  14  20
ENDBRANCH   1  14
TORSDOF 4
