REMARK  Name = 
REMARK  7 active torsions:
REMARK  status: ('A' for Active; 'I' for Inactive)
REMARK    1  A    between atoms: C_1  and  C_2
REMARK    2  A    between atoms: C_2  and  C_3
REMARK    3  A    between atoms: C_2  and  C_14
REMARK    4  A    between atoms: C_3  and  N_4
REMARK    5  A    between atoms: N_4  and  C_5
REMARK    6  A    between atoms: C_8  and  C_9
REMARK    7  A    between atoms: C_19  and  C_20
REMARK                            x       y       z     vdW  Elec       q    Type
REMARK                         _______ _______ _______ _____ _____    ______ ____
ROOT
ATOM      1  C   UNL     1       3.057   0.611  -1.336  0.00  0.00    +0.000 C 
ENDROOT
BRANCH   1   3
ATOM      2  C   UNL     1       0.940   0.013  -0.015  0.00  0.00    +0.000 C 
ATOM      3  C   UNL     1       2.381   0.426  -0.009  0.00  0.00    +0.000 C 
BRANCH   3   4
ATOM      4  C   UNL     1       2.953   1.094   1.169  0.00  0.00    +0.000 A 
ATOM      5  C   UNL     1       2.173   1.968   1.927  0.00  0.00    +0.000 A 
ATOM      6  C   UNL     1       2.738   2.681   2.982  0.00  0.00    +0.000 A 
ATOM      7  C   UNL     1       4.089   2.523   3.313  0.00  0.00    +0.000 A 
ATOM      8 CL   UNL     1       4.675   3.490   4.614  0.00  0.00    +0.000 Cl
ATOM      9  C   UNL     1       4.888   1.630   2.593  0.00  0.00    +0.000 A 
ATOM     10  C   UNL     1       4.298   0.921   1.520  0.00  0.00    +0.000 A 
BRANCH   9  11
ATOM     11  C   UNL     1       6.343   1.362   2.880  0.00  0.00    +0.000 C 
ATOM     12  F   UNL     1       6.927   2.121   3.842  0.00  0.00    +0.000 F 
ATOM     13  F   UNL     1       6.549   0.067   3.258  0.00  0.00    +0.000 F 
ATOM     14  F   UNL     1       7.112   1.537   1.766  0.00  0.00    +0.000 F 
ENDBRANCH   9  11
ENDBRANCH   3   4
ENDBRANCH   1   3
BRANCH   1  15
ATOM     15  N   UNL     1       2.581   1.877  -1.882  0.00  0.00    +0.000 N 
ATOM     16  H   UNL     1       2.577   2.616  -1.180  0.00  0.00    +0.000 HD
BRANCH  15  17
ATOM     17  C   UNL     1       3.110   2.315  -3.096  0.00  0.00    +0.000 A 
ATOM     18  C   UNL     1       3.554   1.487  -4.115  0.00  0.00    +0.000 A 
ATOM     19  N   UNL     1       3.993   1.906  -5.321  0.00  0.00    +0.000 NA
ATOM     20  C   UNL     1       3.951   3.244  -5.517  0.00  0.00    +0.000 A 
ATOM     21  N   UNL     1       3.512   4.156  -4.632  0.00  0.00    +0.000 NA
ATOM     22  C   UNL     1       3.087   3.657  -3.452  0.00  0.00    +0.000 A 
BRANCH  20  23
ATOM     23  C   UNL     1       4.415   3.729  -6.870  0.00  0.00    +0.000 C 
ATOM     24  N   UNL     1       4.807   2.739  -7.744  0.00  0.00    +0.000 N 
ATOM     25  O   UNL     1       4.450   4.904  -7.206  0.00  0.00    +0.000 OA
ATOM     26  H   UNL     1       4.752   1.766  -7.463  0.00  0.00    +0.000 HD
ATOM     27  H   UNL     1       5.100   2.995  -8.674  0.00  0.00    +0.000 HD
ENDBRANCH  20  23
ENDBRANCH  15  17
ENDBRANCH   1  15
TORSDOF 6
