REMARK  Name = 
REMARK  12 active torsions:
REMARK  status: ('A' for Active; 'I' for Inactive)
REMARK    1  A    between atoms: C_1  and  C_2
REMARK    2  A    between atoms: C_2  and  C_3
REMARK    3  A    between atoms: C_5  and  N_6
REMARK    4  A    between atoms: C_9  and  C_10
REMARK    5  A    between atoms: C_10  and  C_11
REMARK    6  A    between atoms: C_10  and  C_12
REMARK    7  A    between atoms: C_10  and  C_13
REMARK    8  A    between atoms: C_16  and  N_17
REMARK    9  A    between atoms: N_17  and  C_18
REMARK   10  A    between atoms: C_18  and  C_19
REMARK   11  A    between atoms: C_19  and  C_22
REMARK   12  A    between atoms: C_25  and  C_26
REMARK                            x       y       z     vdW  Elec       q    Type
REMARK                         _______ _______ _______ _____ _____    ______ ____
ROOT
ATOM      1  N   UNL     1      -2.888   0.928   0.053  0.00  0.00    +0.000 N 
ATOM      2  C   UNL     1      -3.974   0.787   0.952  0.00  0.00    +0.000 A 
ATOM      3  C   UNL     1      -3.670   0.777   2.314  0.00  0.00    +0.000 A 
ATOM      4  C   UNL     1      -4.681   0.567   3.257  0.00  0.00    +0.000 A 
ATOM      5  C   UNL     1      -5.974   0.377   2.744  0.00  0.00    +0.000 A 
ATOM      6  C   UNL     1      -6.228   0.469   1.375  0.00  0.00    +0.000 A 
ATOM      7  N   UNL     1      -5.236   0.664   0.486  0.00  0.00    +0.000 NA
ATOM      8  H   UNL     1      -2.582   1.897   0.092  0.00  0.00    +0.000 HD
ENDROOT
BRANCH   1  13
ATOM      9  C   UNL     1      -2.517  -1.183  -3.842  0.00  0.00    +0.000 C 
ATOM     10  C   UNL     1      -1.964  -1.145  -2.417  0.00  0.00    +0.000 C 
ATOM     11  C   UNL     1      -0.903  -2.222  -2.204  0.00  0.00    +0.000 C 
ATOM     12  C   UNL     1      -3.067  -1.120  -1.324  0.00  0.00    +0.000 C 
ATOM     13  C   UNL     1      -2.946   0.425  -1.287  0.00  0.00    +0.000 C 
ATOM     14  C   UNL     1      -1.541   0.270  -1.918  0.00  0.00    +0.000 C 
ENDBRANCH   1  13
BRANCH   4  15
ATOM     15  C   UNL     1      -4.402   0.507   4.767  0.00  0.00    +0.000 C 
ATOM     16  C   UNL     1      -4.099  -0.951   5.161  0.00  0.00    +0.000 C 
ATOM     17  C   UNL     1      -3.211   1.397   5.189  0.00  0.00    +0.000 C 
BRANCH  15  18
ATOM     18  C   UNL     1      -5.571   0.969   5.566  0.00  0.00    +0.000 C 
ATOM     19  N   UNL     1      -6.480   1.318   6.196  0.00  0.00    +0.000 NA
ENDBRANCH  15  18
ENDBRANCH   4  15
BRANCH   6  20
ATOM     20  N   UNL     1      -7.565   0.450   0.978  0.00  0.00    +0.000 N 
ATOM     21  H   UNL     1      -8.075  -0.369   1.297  0.00  0.00    +0.000 HD
BRANCH  20  22
ATOM     22  C   UNL     1      -7.906   0.937  -0.366  0.00  0.00    +0.000 C 
BRANCH  22  23
ATOM     23  C   UNL     1      -9.383   0.639  -0.752  0.00  0.00    +0.000 C 
ATOM     24  F   UNL     1      -9.516  -0.718  -0.891  0.00  0.00    +0.000 F 
ATOM     25  F   UNL     1     -10.191   0.959   0.304  0.00  0.00    +0.000 F 
BRANCH  23  26
ATOM     26  C   UNL     1      -9.794   1.375  -2.006  0.00  0.00    +0.000 A 
ATOM     27  C   UNL     1      -9.612   0.822  -3.277  0.00  0.00    +0.000 A 
ATOM     28  C   UNL     1     -10.007   1.547  -4.405  0.00  0.00    +0.000 A 
ATOM     29  C   UNL     1     -10.571   2.807  -4.224  0.00  0.00    +0.000 A 
ATOM     30  N   UNL     1     -10.759   3.374  -3.000  0.00  0.00    +0.000 NA
ATOM     31  C   UNL     1     -10.372   2.639  -1.926  0.00  0.00    +0.000 A 
BRANCH  29  32
ATOM     32  C   UNL     1     -10.985   3.601  -5.422  0.00  0.00    +0.000 C 
ATOM     33  N   UNL     1     -11.524   4.832  -5.163  0.00  0.00    +0.000 N 
ATOM     34  O   UNL     1     -10.857   3.184  -6.567  0.00  0.00    +0.000 OA
ATOM     35  H   UNL     1     -11.632   5.145  -4.205  0.00  0.00    +0.000 HD
ATOM     36  H   UNL     1     -11.842   5.406  -5.928  0.00  0.00    +0.000 HD
ENDBRANCH  29  32
ENDBRANCH  23  26
ENDBRANCH  22  23
ENDBRANCH  20  22
ENDBRANCH   6  20
TORSDOF 8
