REMARK  Name = 
REMARK  6 active torsions:
REMARK  status: ('A' for Active; 'I' for Inactive)
REMARK    1  A    between atoms: C_2  and  C_20
REMARK    2  A    between atoms: N_3  and  C_4
REMARK    3  A    between atoms: C_4  and  C_5
REMARK    4  A    between atoms: C_8  and  C_9
REMARK    5  A    between atoms: C_9  and  N_10
REMARK    6  A    between atoms: C_11  and  C_13
REMARK                            x       y       z     vdW  Elec       q    Type
REMARK                         _______ _______ _______ _____ _____    ______ ____
ROOT
ATOM      1  C   UNL     1       2.310   2.197   1.204  0.00  0.00    +0.000 C 
ENDROOT
BRANCH   1   2
ATOM      2  C   UNL     1       3.211   3.281   1.741  0.00  0.00    +0.000 A 
ATOM      3  C   UNL     1       2.933   4.631   1.486  0.00  0.00    +0.000 A 
ATOM      4  C   UNL     1       3.737   5.643   2.025  0.00  0.00    +0.000 A 
ATOM      5  C   UNL     1       4.854   5.328   2.811  0.00  0.00    +0.000 A 
ATOM      6  C   UNL     1       5.140   3.978   3.054  0.00  0.00    +0.000 A 
ATOM      7  C   UNL     1       4.335   2.966   2.517  0.00  0.00    +0.000 A 
BRANCH   5   8
ATOM      8  C   UNL     1       5.736   6.416   3.372  0.00  0.00    +0.000 C 
BRANCH   8   9
ATOM      9  N   UNL     1       5.319   6.852   4.687  0.00  0.00    +0.000 N 
ATOM     10  C   UNL     1       6.019   7.842   5.345  0.00  0.00    +0.000 C 
ATOM     11  O   UNL     1       7.008   8.386   4.863  0.00  0.00    +0.000 OA
ATOM     12  H   UNL     1       4.596   6.334   5.168  0.00  0.00    +0.000 HD
BRANCH  10  13
ATOM     13  C   UNL     1       5.475   8.179   6.727  0.00  0.00    +0.000 C 
ATOM     14  C   UNL     1       4.047   8.716   6.674  0.00  0.00    +0.000 C 
ATOM     15  C   UNL     1       3.866   9.525   7.956  0.00  0.00    +0.000 C 
ATOM     16  C   UNL     1       5.267   9.788   8.502  0.00  0.00    +0.000 C 
ATOM     17  C   UNL     1       6.227   9.316   7.418  0.00  0.00    +0.000 C 
ENDBRANCH  10  13
ENDBRANCH   8   9
ENDBRANCH   5   8
ENDBRANCH   1   2
BRANCH   1  20
ATOM     18  O   UNL     1       1.099   0.125  -0.152  0.00  0.00    +0.000 OA
ATOM     19  C   UNL     1       1.981   0.752  -0.735  0.00  0.00    +0.000 C 
ATOM     20  N   UNL     1       2.687   1.758  -0.117  0.00  0.00    +0.000 N 
ATOM     21  H   UNL     1       3.241   2.395  -0.680  0.00  0.00    +0.000 HD
BRANCH  19  22
ATOM     22  C   UNL     1       2.354   0.427  -2.117  0.00  0.00    +0.000 A 
ATOM     23  C   UNL     1       2.102  -0.843  -2.621  0.00  0.00    +0.000 A 
ATOM     24  S   UNL     1       2.606  -1.050  -4.238  0.00  0.00    +0.000 S 
ATOM     25  C   UNL     1       3.131   0.565  -4.338  0.00  0.00    +0.000 A 
ATOM     26  N   UNL     1       3.647   1.065  -5.493  0.00  0.00    +0.000 NA
ATOM     27  C   UNL     1       3.965   2.313  -5.439  0.00  0.00    +0.000 A 
ATOM     28  N   UNL     1       3.824   3.108  -4.330  0.00  0.00    +0.000 N 
ATOM     29  C   UNL     1       3.347   2.639  -3.130  0.00  0.00    +0.000 A 
ATOM     30  O   UNL     1       3.291   3.358  -2.138  0.00  0.00    +0.000 OA
ATOM     31  C   UNL     1       2.951   1.244  -3.145  0.00  0.00    +0.000 A 
ATOM     32  H   UNL     1       4.108   4.077  -4.348  0.00  0.00    +0.000 HD
ENDBRANCH  19  22
ENDBRANCH   1  20
TORSDOF 6
