REMARK  Name = 
REMARK  12 active torsions:
REMARK  status: ('A' for Active; 'I' for Inactive)
REMARK    1  A    between atoms: N_1  and  C_2
REMARK    2  A    between atoms: N_5  and  C_6
REMARK    3  A    between atoms: C_6  and  C_7
REMARK    4  A    between atoms: C_7  and  O_8
REMARK    5  A    between atoms: C_9  and  C_10
REMARK    6  A    between atoms: N_12  and  C_13
REMARK    7  A    between atoms: C_13  and  C_14
REMARK    8  A    between atoms: C_17  and  C_18
REMARK    9  A    between atoms: C_18  and  N_19
REMARK   10  A    between atoms: C_18  and  C_20
REMARK   11  A    between atoms: C_20  and  N_21
REMARK   12  A    between atoms: C_22  and  C_24
REMARK                            x       y       z     vdW  Elec       q    Type
REMARK                         _______ _______ _______ _____ _____    ______ ____
ROOT
ATOM      1  C   UNL     1      -0.773  -4.072   0.062  0.00  0.00    +0.000 A 
ATOM      2  C   UNL     1      -1.459  -5.292   0.081  0.00  0.00    +0.000 A 
ATOM      3  C   UNL     1      -2.855  -5.320   0.146  0.00  0.00    +0.000 A 
ATOM      4  C   UNL     1      -3.602  -4.130   0.186  0.00  0.00    +0.000 A 
ATOM      5  C   UNL     1      -2.903  -2.912   0.187  0.00  0.00    +0.000 A 
ATOM      6  C   UNL     1      -1.509  -2.884   0.104  0.00  0.00    +0.000 A 
ENDROOT
BRANCH   1   7
ATOM      7  C   UNL     1       0.728  -4.031  -0.028  0.00  0.00    +0.000 C 
BRANCH   7  10
ATOM      8  C   UNL     1       1.579  -2.921  -2.065  0.00  0.00    +0.000 C 
ATOM      9  O   UNL     1       1.564  -1.812  -1.540  0.00  0.00    +0.000 OA
ATOM     10  N   UNL     1       1.177  -4.052  -1.399  0.00  0.00    +0.000 N 
ATOM     11  H   UNL     1       0.993  -4.879  -1.955  0.00  0.00    +0.000 HD
BRANCH   8  16
ATOM     12  C   UNL     1       2.295  -4.294  -4.131  0.00  0.00    +0.000 A 
ATOM     13  N   UNL     1       2.737  -4.055  -5.390  0.00  0.00    +0.000 NA
ATOM     14  C   UNL     1       2.765  -2.749  -5.490  0.00  0.00    +0.000 A 
ATOM     15  N   UNL     1       2.333  -2.148  -4.339  0.00  0.00    +0.000 N 
ATOM     16  C   UNL     1       2.032  -3.139  -3.420  0.00  0.00    +0.000 A 
BRANCH  12  17
ATOM     17  N   UNL     1       2.211  -5.569  -3.725  0.00  0.00    +0.000 N 
ATOM     18  H   UNL     1       2.548  -6.223  -4.431  0.00  0.00    +0.000 HD
ATOM     19  H   UNL     1       2.627  -5.802  -2.829  0.00  0.00    +0.000 HD
ENDBRANCH  12  17
BRANCH  15  20
ATOM     20  C   UNL     1       2.195  -0.710  -4.181  0.00  0.00    +0.000 C 
BRANCH  20  21
ATOM     21  C   UNL     1       3.428  -0.060  -3.565  0.00  0.00    +0.000 C 
BRANCH  21  22
ATOM     22  O   UNL     1       4.540  -0.137  -4.456  0.00  0.00    +0.000 OA
ATOM     23  H   UNL     1       4.905  -1.039  -4.391  0.00  0.00    +0.000 HD
ENDBRANCH  21  22
ENDBRANCH  20  21
ENDBRANCH  15  20
ENDBRANCH   8  16
ENDBRANCH   7  10
ENDBRANCH   1   7
BRANCH   4  24
ATOM     24  C   UNL     1      -5.124  -4.209   0.273  0.00  0.00    +0.000 C 
BRANCH  24  25
ATOM     25  N   UNL     1      -5.531  -4.241   1.686  0.00  0.00    +0.000 NA
ATOM     26  H   UNL     1      -5.148  -3.424   2.157  0.00  0.00    +0.000 HD
ATOM     27  H   UNL     1      -5.095  -5.048   2.129  0.00  0.00    +0.000 HD
ENDBRANCH  24  25
BRANCH  24  28
ATOM     28  C   UNL     1      -5.883  -3.077  -0.467  0.00  0.00    +0.000 C 
BRANCH  28  29
ATOM     29  N   UNL     1      -5.567  -3.008  -1.880  0.00  0.00    +0.000 N 
ATOM     30  C   UNL     1      -6.249  -3.710  -2.837  0.00  0.00    +0.000 C 
ATOM     31  O   UNL     1      -7.200  -4.434  -2.557  0.00  0.00    +0.000 OA
ATOM     32  H   UNL     1      -4.685  -2.565  -2.118  0.00  0.00    +0.000 HD
BRANCH  30  33
ATOM     33  C   UNL     1      -5.805  -3.530  -4.231  0.00  0.00    +0.000 A 
ATOM     34  C   UNL     1      -6.500  -4.161  -5.252  0.00  0.00    +0.000 A 
ATOM     35  S   UNL     1      -5.934  -3.773  -6.814  0.00  0.00    +0.000 S 
ATOM     36  C   UNL     1      -4.742  -2.738  -6.182  0.00  0.00    +0.000 A 
ATOM     37  N   UNL     1      -3.930  -2.024  -7.008  0.00  0.00    +0.000 NA
ATOM     38  C   UNL     1      -3.060  -1.290  -6.399  0.00  0.00    +0.000 A 
ATOM     39  N   UNL     1      -2.913  -1.223  -5.040  0.00  0.00    +0.000 N 
ATOM     40  C   UNL     1      -3.701  -1.933  -4.168  0.00  0.00    +0.000 A 
ATOM     41  O   UNL     1      -3.511  -1.868  -2.958  0.00  0.00    +0.000 OA
ATOM     42  C   UNL     1      -4.734  -2.736  -4.797  0.00  0.00    +0.000 A 
ATOM     43  H   UNL     1      -2.191  -0.657  -4.620  0.00  0.00    +0.000 HD
ENDBRANCH  30  33
ENDBRANCH  28  29
ENDBRANCH  24  28
ENDBRANCH   4  24
TORSDOF 12
