REMARK  Name = 
REMARK  9 active torsions:
REMARK  status: ('A' for Active; 'I' for Inactive)
REMARK    1  A    between atoms: C_2  and  C_3
REMARK    2  A    between atoms: C_3  and  N_4
REMARK    3  A    between atoms: C_3  and  C_20
REMARK    4  A    between atoms: C_5  and  C_7
REMARK    5  A    between atoms: N_13  and  C_14
REMARK    6  A    between atoms: C_14  and  C_15
REMARK    7  A    between atoms: C_15  and  O_16
REMARK    8  A    between atoms: C_23  and  C_24
REMARK    9  A    between atoms: C_24  and  N_25
REMARK                            x       y       z     vdW  Elec       q    Type
REMARK                         _______ _______ _______ _____ _____    ______ ____
ROOT
ATOM      1  C   UNL     1       3.765   0.037   0.023  0.00  0.00    +0.000 C 
ENDROOT
BRANCH   1   2
ATOM      2  C   UNL     1       4.232   1.420  -0.420  0.00  0.00    +0.000 A 
ATOM      3  C   UNL     1       4.651   2.357   0.540  0.00  0.00    +0.000 A 
ATOM      4  C   UNL     1       5.043   3.647   0.163  0.00  0.00    +0.000 A 
ATOM      5  C   UNL     1       5.001   4.041  -1.180  0.00  0.00    +0.000 A 
ATOM      6  C   UNL     1       4.588   3.110  -2.141  0.00  0.00    +0.000 A 
ATOM      7  C   UNL     1       4.203   1.820  -1.766  0.00  0.00    +0.000 A 
BRANCH   5   8
ATOM      8  C   UNL     1       5.385   5.446  -1.595  0.00  0.00    +0.000 C 
BRANCH   8   9
ATOM      9  N   UNL     1       6.806   5.499  -1.914  0.00  0.00    +0.000 N 
ATOM     10  C   UNL     1       7.238   6.759  -2.365  0.00  0.00    +0.000 A 
ATOM     11  C   UNL     1       8.574   6.905  -2.742  0.00  0.00    +0.000 A 
ATOM     12  C   UNL     1       9.049   8.158  -3.129  0.00  0.00    +0.000 A 
ATOM     13  C   UNL     1       8.183   9.240  -3.128  0.00  0.00    +0.000 A 
ATOM     14  C   UNL     1       6.874   9.016  -2.744  0.00  0.00    +0.000 A 
ATOM     15  N   UNL     1       6.393   7.810  -2.366  0.00  0.00    +0.000 NA
ATOM     16  H   UNL     1       7.073   4.785  -2.583  0.00  0.00    +0.000 HD
ENDBRANCH   8   9
ENDBRANCH   5   8
ENDBRANCH   1   2
BRANCH   1  17
ATOM     17  N   UNL     1       2.317   0.027   0.155  0.00  0.00    +0.000 N 
ATOM     18  C   UNL     1       1.680   0.280   1.336  0.00  0.00    +0.000 C 
ATOM     19  O   UNL     1       2.295   0.448   2.385  0.00  0.00    +0.000 OA
ATOM     20  H   UNL     1       1.786   0.039  -0.709  0.00  0.00    +0.000 HD
BRANCH  18  21
ATOM     21  C   UNL     1       0.211   0.290   1.295  0.00  0.00    +0.000 A 
ATOM     22  C   UNL     1      -0.510  -0.001   2.445  0.00  0.00    +0.000 A 
ATOM     23  S   UNL     1      -2.199   0.117   2.238  0.00  0.00    +0.000 S 
ATOM     24  C   UNL     1      -2.022   0.573   0.608  0.00  0.00    +0.000 A 
ATOM     25  N   UNL     1      -3.105   0.877  -0.149  0.00  0.00    +0.000 NA
ATOM     26  C   UNL     1      -2.833   1.226  -1.364  0.00  0.00    +0.000 A 
ATOM     27  N   UNL     1      -1.568   1.273  -1.919  0.00  0.00    +0.000 N 
ATOM     28  C   UNL     1      -0.444   0.902  -1.187  0.00  0.00    +0.000 A 
ATOM     29  O   UNL     1       0.672   0.795  -1.690  0.00  0.00    +0.000 OA
ATOM     30  C   UNL     1      -0.700   0.581   0.208  0.00  0.00    +0.000 A 
BRANCH  27  31
ATOM     31  C   UNL     1      -1.408   1.622  -3.329  0.00  0.00    +0.000 C 
BRANCH  31  32
ATOM     32  C   UNL     1      -1.398   0.394  -4.243  0.00  0.00    +0.000 C 
BRANCH  32  33
ATOM     33  O   UNL     1      -2.645  -0.291  -4.172  0.00  0.00    +0.000 OA
ATOM     34  H   UNL     1      -2.621  -0.870  -3.390  0.00  0.00    +0.000 HD
ENDBRANCH  32  33
ENDBRANCH  31  32
ENDBRANCH  27  31
ENDBRANCH  18  21
ENDBRANCH   1  17
BRANCH   1  36
ATOM     35  N   UNL     1       4.465  -1.894  -1.647  0.00  0.00    +0.000 NA
ATOM     36  C   UNL     1       4.185  -1.048  -0.906  0.00  0.00    +0.000 C 
ENDBRANCH   1  36
TORSDOF 9
