REMARK  Name = 
REMARK  10 active torsions:
REMARK  status: ('A' for Active; 'I' for Inactive)
REMARK    1  A    between atoms: C_1  and  C_2
REMARK    2  A    between atoms: C_2  and  C_3
REMARK    3  A    between atoms: C_2  and  C_27
REMARK    4  A    between atoms: C_3  and  N_4
REMARK    5  A    between atoms: C_6  and  O_7
REMARK    6  A    between atoms: C_8  and  C_9
REMARK    7  A    between atoms: C_9  and  O_10
REMARK    8  A    between atoms: N_11  and  C_12
REMARK    9  A    between atoms: C_12  and  C_13
REMARK   10  A    between atoms: C_16  and  C_17
REMARK                            x       y       z     vdW  Elec       q    Type
REMARK                         _______ _______ _______ _____ _____    ______ ____
ROOT
ATOM      1  N   UNL     1       0.485  -0.210  -1.387  0.00  0.00    +0.000 NA
ATOM      2  C   UNL     1       1.088   0.868  -2.200  0.00  0.00    +0.000 C 
ATOM      3  C   UNL     1       0.542   2.272  -1.898  0.00  0.00    +0.000 C 
ATOM      4  C   UNL     1      -1.007   2.235  -1.911  0.00  0.00    +0.000 C 
ATOM      5  N   UNL     1      -1.445   1.173  -0.960  0.00  0.00    +0.000 NA
ATOM      6  C   UNL     1      -0.969  -0.139  -1.407  0.00  0.00    +0.000 C 
ENDROOT
BRANCH   3   7
ATOM      7  O   UNL     1       0.980   2.748  -0.617  0.00  0.00    +0.000 OA
ATOM      8  H   UNL     1       0.351   2.360   0.028  0.00  0.00    +0.000 HD
ENDBRANCH   3   7
BRANCH   1   9
ATOM      9  C   UNL     1       1.099  -0.299  -0.046  0.00  0.00    +0.000 C 
BRANCH   9  11
ATOM     10  C   UNL     1       0.747  -2.821   0.283  0.00  0.00    +0.000 C 
ATOM     11  C   UNL     1       0.593  -1.425   0.885  0.00  0.00    +0.000 C 
BRANCH  11  12
ATOM     12  C   UNL     1       1.322  -1.345   2.216  0.00  0.00    +0.000 A 
ATOM     13  C   UNL     1       0.613  -1.105   3.391  0.00  0.00    +0.000 A 
ATOM     14  C   UNL     1       1.308  -1.045   4.596  0.00  0.00    +0.000 A 
ATOM     15  C   UNL     1       2.686  -1.216   4.597  0.00  0.00    +0.000 A 
ATOM     16  C   UNL     1       3.317  -1.438   3.385  0.00  0.00    +0.000 A 
ATOM     17  N   UNL     1       2.668  -1.510   2.203  0.00  0.00    +0.000 NA
ENDBRANCH  11  12
ENDBRANCH   9  11
ENDBRANCH   1   9
BRANCH   4  18
ATOM     18  C   UNL     1      -1.572   2.185  -3.343  0.00  0.00    +0.000 C 
BRANCH  18  19
ATOM     19  O   UNL     1      -1.192   3.352  -4.068  0.00  0.00    +0.000 OA
ATOM     20  H   UNL     1      -1.514   4.127  -3.571  0.00  0.00    +0.000 HD
ENDBRANCH  18  19
ENDBRANCH   4  18
BRANCH   5  21
ATOM     21  C   UNL     1      -2.904   1.122  -0.744  0.00  0.00    +0.000 C 
BRANCH  21  22
ATOM     22  C   UNL     1      -3.515   2.365  -0.125  0.00  0.00    +0.000 A 
ATOM     23  C   UNL     1      -2.750   3.375   0.476  0.00  0.00    +0.000 A 
ATOM     24  C   UNL     1      -3.338   4.543   0.955  0.00  0.00    +0.000 A 
ATOM     25  C   UNL     1      -4.722   4.696   0.921  0.00  0.00    +0.000 A 
ATOM     26  C   UNL     1      -5.499   3.691   0.334  0.00  0.00    +0.000 A 
ATOM     27  C   UNL     1      -4.906   2.523  -0.152  0.00  0.00    +0.000 A 
BRANCH  25  28
ATOM     28  C   UNL     1      -5.282   5.955   1.485  0.00  0.00    +0.000 C 
ATOM     29  O   UNL     1      -4.596   6.973   1.378  0.00  0.00    +0.000 OA
ATOM     30  N   UNL     1      -6.499   5.936   2.149  0.00  0.00    +0.000 N 
ATOM     31  C   UNL     1      -7.051   7.074   2.705  0.00  0.00    +0.000 C 
ATOM     32  C   UNL     1      -8.104   6.738   3.445  0.00  0.00    +0.000 C 
ATOM     33  N   UNL     1      -8.325   5.384   3.398  0.00  0.00    +0.000 N 
ATOM     34  C   UNL     1      -7.285   4.767   2.570  0.00  0.00    +0.000 C 
ATOM     35  H   UNL     1      -8.463   4.952   4.308  0.00  0.00    +0.000 HD
ENDBRANCH  25  28
ENDBRANCH  21  22
ENDBRANCH   5  21
TORSDOF 9
