REMARK  Name = 
REMARK  9 active torsions:
REMARK  status: ('A' for Active; 'I' for Inactive)
REMARK    1  A    between atoms: C_1  and  C_2
REMARK    2  A    between atoms: C_2  and  O_3
REMARK    3  A    between atoms: O_3  and  C_4
REMARK    4  A    between atoms: C_8  and  C_9
REMARK    5  A    between atoms: C_9  and  C_10
REMARK    6  A    between atoms: C_10  and  N_11
REMARK    7  A    between atoms: N_11  and  C_12
REMARK    8  A    between atoms: C_15  and  C_16
REMARK    9  A    between atoms: C_23  and  O_24
REMARK                            x       y       z     vdW  Elec       q    Type
REMARK                         _______ _______ _______ _____ _____    ______ ____
ROOT
ATOM      1  C   UNL     1       6.100   1.681  -4.665  0.00  0.00    +0.000 C 
ENDROOT
BRANCH   1   6
ATOM      2  C   UNL     1       4.153  -0.228  -1.937  0.00  0.00    +0.000 A 
ATOM      3  C   UNL     1       5.032  -1.272  -1.678  0.00  0.00    +0.000 A 
ATOM      4  C   UNL     1       6.269  -1.315  -2.323  0.00  0.00    +0.000 A 
ATOM      5  C   UNL     1       6.616  -0.338  -3.258  0.00  0.00    +0.000 A 
ATOM      6  C   UNL     1       5.721   0.691  -3.576  0.00  0.00    +0.000 A 
ATOM      7  C   UNL     1       4.498   0.739  -2.884  0.00  0.00    +0.000 A 
BRANCH   2   8
ATOM      8  O   UNL     1       2.927  -0.032  -1.350  0.00  0.00    +0.000 OA
BRANCH   8  10
ATOM      9  C   UNL     1       1.937  -2.134  -0.599  0.00  0.00    +0.000 C 
ATOM     10  C   UNL     1       2.521  -0.788  -0.180  0.00  0.00    +0.000 C 
ATOM     11  C   UNL     1       3.464  -0.769   1.064  0.00  0.00    +0.000 C 
ATOM     12  C   UNL     1       2.683   0.450   1.587  0.00  0.00    +0.000 C 
ATOM     13  C   UNL     1       1.501  -0.006   0.713  0.00  0.00    +0.000 C 
BRANCH  12  14
ATOM     14  O   UNL     1       2.458   0.503   3.007  0.00  0.00    +0.000 OA
ATOM     15  H   UNL     1       2.132  -0.377   3.259  0.00  0.00    +0.000 HD
ENDBRANCH  12  14
ENDBRANCH   8  10
ENDBRANCH   2   8
ENDBRANCH   1   6
BRANCH   1  16
ATOM     16  C   UNL     1       5.034   2.749  -4.925  0.00  0.00    +0.000 C 
BRANCH  16  17
ATOM     17  N   UNL     1       5.366   3.639  -6.041  0.00  0.00    +0.000 N 
ATOM     18  H   UNL     1       5.615   3.121  -6.884  0.00  0.00    +0.000 HD
BRANCH  17  19
ATOM     19  C   UNL     1       4.392   4.623  -6.319  0.00  0.00    +0.000 A 
ATOM     20  C   UNL     1       3.598   5.211  -5.326  0.00  0.00    +0.000 A 
ATOM     21  C   UNL     1       2.691   6.220  -5.637  0.00  0.00    +0.000 A 
ATOM     22  C   UNL     1       2.623   6.654  -6.950  0.00  0.00    +0.000 A 
ATOM     23  N   UNL     1       3.396   6.155  -7.953  0.00  0.00    +0.000 NA
ATOM     24  C   UNL     1       4.265   5.172  -7.600  0.00  0.00    +0.000 A 
BRANCH  22  25
ATOM     25  C   UNL     1       1.667   7.750  -7.305  0.00  0.00    +0.000 C 
ATOM     26  N   UNL     1       1.676   8.132  -8.616  0.00  0.00    +0.000 N 
ATOM     27  O   UNL     1       0.922   8.276  -6.483  0.00  0.00    +0.000 OA
ATOM     28  H   UNL     1       2.323   7.692  -9.260  0.00  0.00    +0.000 HD
ATOM     29  H   UNL     1       1.079   8.886  -8.923  0.00  0.00    +0.000 HD
ENDBRANCH  22  25
ENDBRANCH  17  19
ENDBRANCH  16  17
ENDBRANCH   1  16
TORSDOF 8
