REMARK  Name = 
REMARK  5 active torsions:
REMARK  status: ('A' for Active; 'I' for Inactive)
REMARK    1  A    between atoms: C_2  and  C_4
REMARK    2  A    between atoms: N_8  and  C_9
REMARK    3  A    between atoms: C_9  and  C_10
REMARK    4  A    between atoms: C_10  and  C_11
REMARK    5  A    between atoms: C_15  and  C_16
REMARK                            x       y       z     vdW  Elec       q    Type
REMARK                         _______ _______ _______ _____ _____    ______ ____
ROOT
ATOM      1  C   UNL     1       5.139  -1.745   5.699  0.00  0.00    +0.000 C 
ENDROOT
BRANCH   1   6
ATOM      2  C   UNL     1       3.095  -0.121   1.331  0.00  0.00    +0.000 A 
ATOM      3  C   UNL     1       2.482  -0.697   2.438  0.00  0.00    +0.000 A 
ATOM      4  C   UNL     1       3.227  -0.909   3.599  0.00  0.00    +0.000 A 
ATOM      5  C   UNL     1       4.573  -0.548   3.633  0.00  0.00    +0.000 A 
ATOM      6  N   UNL     1       5.343  -0.631   4.783  0.00  0.00    +0.000 N 
ATOM      7  N   UNL     1       5.188  -0.015   2.556  0.00  0.00    +0.000 NA
ATOM      8  C   UNL     1       4.446   0.179   1.431  0.00  0.00    +0.000 A 
ATOM      9  H   UNL     1       6.305  -0.430   4.518  0.00  0.00    +0.000 HD
BRANCH   2  11
ATOM     10  N   UNL     1       1.028   0.448   0.193  0.00  0.00    +0.000 N 
ATOM     11  C   UNL     1       2.366   0.181   0.086  0.00  0.00    +0.000 C 
ATOM     12  O   UNL     1       2.937   0.223  -0.998  0.00  0.00    +0.000 OA
ATOM     13  H   UNL     1       0.561   0.759  -0.648  0.00  0.00    +0.000 HD
ATOM     14  H   UNL     1       0.587   0.663   1.077  0.00  0.00    +0.000 HD
ENDBRANCH   2  11
ENDBRANCH   1   6
BRANCH   1  15
ATOM     15  C   UNL     1       6.173  -1.707   6.831  0.00  0.00    +0.000 C 
BRANCH  15  16
ATOM     16  C   UNL     1       5.929  -2.792   7.847  0.00  0.00    +0.000 A 
ATOM     17  C   UNL     1       6.504  -4.047   7.711  0.00  0.00    +0.000 A 
ATOM     18  N   UNL     1       6.298  -5.064   8.572  0.00  0.00    +0.000 NA
ATOM     19  C   UNL     1       5.478  -4.816   9.624  0.00  0.00    +0.000 A 
ATOM     20  C   UNL     1       4.825  -3.607   9.874  0.00  0.00    +0.000 A 
ATOM     21  C   UNL     1       5.077  -2.586   8.942  0.00  0.00    +0.000 A 
BRANCH  20  22
ATOM     22  C   UNL     1       3.915  -3.420  11.026  0.00  0.00    +0.000 A 
ATOM     23  C   UNL     1       3.779  -2.171  11.663  0.00  0.00    +0.000 A 
ATOM     24  C   UNL     1       2.890  -1.984  12.726  0.00  0.00    +0.000 A 
ATOM     25  C   UNL     1       2.123  -3.048  13.190  0.00  0.00    +0.000 A 
ATOM     26  C   UNL     1       2.250  -4.298  12.595  0.00  0.00    +0.000 A 
ATOM     27  C   UNL     1       3.134  -4.479  11.526  0.00  0.00    +0.000 A 
ENDBRANCH  20  22
ENDBRANCH  15  16
ENDBRANCH   1  15
TORSDOF 5
