REMARK  Name = 
REMARK  4 active torsions:
REMARK  status: ('A' for Active; 'I' for Inactive)
REMARK    1  A    between atoms: C_2  and  C_4
REMARK    2  A    between atoms: C_7  and  C_8
REMARK    3  A    between atoms: C_8  and  N_9
REMARK    4  A    between atoms: N_9  and  C_10
REMARK                            x       y       z     vdW  Elec       q    Type
REMARK                         _______ _______ _______ _____ _____    ______ ____
ROOT
ATOM      1  C   UNL     1       2.987  -1.281   0.539  0.00  0.00    +0.000 A 
ATOM      2  C   UNL     1       4.039  -1.629  -0.310  0.00  0.00    +0.000 A 
ATOM      3  C   UNL     1       4.851  -2.718   0.015  0.00  0.00    +0.000 A 
ATOM      4  C   UNL     1       4.599  -3.426   1.191  0.00  0.00    +0.000 A 
ATOM      5  N   UNL     1       3.582  -3.094   2.027  0.00  0.00    +0.000 NA
ATOM      6  C   UNL     1       2.807  -2.032   1.691  0.00  0.00    +0.000 A 
ENDROOT
BRANCH   1   8
ATOM      7  N   UNL     1       1.903   0.245  -1.013  0.00  0.00    +0.000 N 
ATOM      8  C   UNL     1       2.082  -0.142   0.288  0.00  0.00    +0.000 C 
ATOM      9  O   UNL     1       1.486   0.417   1.199  0.00  0.00    +0.000 OA
ATOM     10  H   UNL     1       1.195   0.952  -1.173  0.00  0.00    +0.000 HD
ATOM     11  H   UNL     1       2.163  -0.338  -1.795  0.00  0.00    +0.000 HD
ENDBRANCH   1   8
BRANCH   4  12
ATOM     12  C   UNL     1       5.476  -4.601   1.591  0.00  0.00    +0.000 C 
BRANCH  12  13
ATOM     13  N   UNL     1       5.019  -5.847   0.975  0.00  0.00    +0.000 N 
ATOM     14  H   UNL     1       4.781  -5.747  -0.007  0.00  0.00    +0.000 HD
BRANCH  13  15
ATOM     15  C   UNL     1       5.676  -7.043   1.270  0.00  0.00    +0.000 A 
ATOM     16  C   UNL     1       6.372  -7.277   2.458  0.00  0.00    +0.000 A 
ATOM     17  C   UNL     1       6.938  -8.527   2.721  0.00  0.00    +0.000 A 
ATOM     18  C   UNL     1       6.777  -9.534   1.788  0.00  0.00    +0.000 A 
ATOM     19  N   UNL     1       6.088  -9.379   0.641  0.00  0.00    +0.000 NA
ATOM     20  C   UNL     1       5.543  -8.154   0.428  0.00  0.00    +0.000 A 
ENDBRANCH  13  15
ENDBRANCH  12  13
ENDBRANCH   4  12
TORSDOF 4
