REMARK  Name = 
REMARK  5 active torsions:
REMARK  status: ('A' for Active; 'I' for Inactive)
REMARK    1  A    between atoms: C_2  and  C_4
REMARK    2  A    between atoms: C_7  and  N_8
REMARK    3  A    between atoms: N_8  and  C_9
REMARK    4  A    between atoms: C_9  and  C_10
REMARK    5  A    between atoms: C_14  and  N_15
REMARK                            x       y       z     vdW  Elec       q    Type
REMARK                         _______ _______ _______ _____ _____    ______ ____
ROOT
ATOM      1  C   UNL     1       5.322  -4.345   4.061  0.00  0.00    +0.000 C 
ENDROOT
BRANCH   1   2
ATOM      2  C   UNL     1       6.314  -4.909   5.043  0.00  0.00    +0.000 A 
ATOM      3  C   UNL     1       6.387  -6.290   5.189  0.00  0.00    +0.000 A 
ATOM      4  N   UNL     1       7.235  -6.921   6.022  0.00  0.00    +0.000 NA
ATOM      5  C   UNL     1       8.056  -6.128   6.751  0.00  0.00    +0.000 A 
ATOM      6  C   UNL     1       8.092  -4.731   6.713  0.00  0.00    +0.000 A 
ATOM      7  C   UNL     1       7.183  -4.139   5.831  0.00  0.00    +0.000 A 
BRANCH   6   8
ATOM      8  N   UNL     1       8.963  -3.994   7.491  0.00  0.00    +0.000 N 
ATOM      9  C   UNL     1       8.652  -2.642   7.975  0.00  0.00    +0.000 C 
ATOM     10  C   UNL     1       9.706  -1.624   7.489  0.00  0.00    +0.000 C 
ATOM     11  N   UNL     1      11.097  -2.025   7.790  0.00  0.00    +0.000 NA
ATOM     12  C   UNL     1      11.341  -3.359   7.202  0.00  0.00    +0.000 C 
ATOM     13  C   UNL     1      10.348  -4.444   7.683  0.00  0.00    +0.000 C 
ATOM     14  H   UNL     1      11.187  -2.110   8.803  0.00  0.00    +0.000 HD
ENDBRANCH   6   8
ENDBRANCH   1   2
BRANCH   1  15
ATOM     15  N   UNL     1       5.319  -2.893   3.972  0.00  0.00    +0.000 N 
ATOM     16  H   UNL     1       6.180  -2.480   3.628  0.00  0.00    +0.000 HD
BRANCH  15  20
ATOM     17  C   UNL     1       2.829  -0.375   6.251  0.00  0.00    +0.000 A 
ATOM     18  C   UNL     1       2.845  -1.745   6.513  0.00  0.00    +0.000 A 
ATOM     19  C   UNL     1       3.694  -2.584   5.787  0.00  0.00    +0.000 A 
ATOM     20  C   UNL     1       4.556  -2.085   4.805  0.00  0.00    +0.000 A 
ATOM     21  C   UNL     1       4.533  -0.703   4.559  0.00  0.00    +0.000 A 
ATOM     22  C   UNL     1       3.680   0.146   5.273  0.00  0.00    +0.000 A 
BRANCH  17  24
ATOM     23  N   UNL     1       1.456   0.187   8.184  0.00  0.00    +0.000 N 
ATOM     24  C   UNL     1       1.879   0.536   6.933  0.00  0.00    +0.000 C 
ATOM     25  O   UNL     1       1.498   1.576   6.407  0.00  0.00    +0.000 OA
ATOM     26  H   UNL     1       0.869   0.860   8.661  0.00  0.00    +0.000 HD
ATOM     27  H   UNL     1       1.927  -0.510   8.743  0.00  0.00    +0.000 HD
ENDBRANCH  17  24
ENDBRANCH  15  20
ENDBRANCH   1  15
TORSDOF 5
