REMARK  Name = 
REMARK  10 active torsions:
REMARK  status: ('A' for Active; 'I' for Inactive)
REMARK    1  A    between atoms: C_2  and  C_23
REMARK    2  A    between atoms: N_3  and  C_4
REMARK    3  A    between atoms: C_4  and  C_5
REMARK    4  A    between atoms: C_8  and  C_9
REMARK    5  A    between atoms: C_9  and  N_10
REMARK    6  A    between atoms: N_10  and  C_11
REMARK    7  A    between atoms: N_10  and  C_14
REMARK    8  A    between atoms: C_11  and  C_12
REMARK    9  A    between atoms: C_12  and  O_13
REMARK   10  A    between atoms: C_14  and  C_15
REMARK                            x       y       z     vdW  Elec       q    Type
REMARK                         _______ _______ _______ _____ _____    ______ ____
ROOT
ATOM      1  C   UNL     1       3.196   2.360  -2.867  0.00  0.00    +0.000 A 
ATOM      2  C   UNL     1       2.798   3.628  -3.305  0.00  0.00    +0.000 A 
ATOM      3  C   UNL     1       3.650   4.407  -4.086  0.00  0.00    +0.000 A 
ATOM      4  C   UNL     1       4.923   3.935  -4.432  0.00  0.00    +0.000 A 
ATOM      5  C   UNL     1       5.269   2.617  -4.103  0.00  0.00    +0.000 A 
ATOM      6  C   UNL     1       4.408   1.831  -3.332  0.00  0.00    +0.000 A 
ENDROOT
BRANCH   1   7
ATOM      7  C   UNL     1       2.342   1.610  -1.880  0.00  0.00    +0.000 C 
BRANCH   7  10
ATOM      8  O   UNL     1      -0.314   2.308  -2.549  0.00  0.00    +0.000 OA
ATOM      9  C   UNL     1       0.121   1.206  -2.867  0.00  0.00    +0.000 C 
ATOM     10  N   UNL     1       1.373   0.771  -2.526  0.00  0.00    +0.000 N 
ATOM     11  H   UNL     1       1.741  -0.069  -2.956  0.00  0.00    +0.000 HD
BRANCH   9  12
ATOM     12  C   UNL     1      -0.704   0.233  -3.586  0.00  0.00    +0.000 A 
ATOM     13  C   UNL     1      -2.092   0.301  -3.512  0.00  0.00    +0.000 A 
ATOM     14  S   UNL     1      -2.880  -0.942  -4.377  0.00  0.00    +0.000 S 
ATOM     15  C   UNL     1      -1.397  -1.583  -4.917  0.00  0.00    +0.000 A 
ATOM     16  N   UNL     1      -1.357  -2.674  -5.729  0.00  0.00    +0.000 NA
ATOM     17  C   UNL     1      -0.167  -3.022  -6.094  0.00  0.00    +0.000 A 
ATOM     18  N   UNL     1       0.985  -2.382  -5.722  0.00  0.00    +0.000 N 
ATOM     19  C   UNL     1       0.997  -1.336  -4.845  0.00  0.00    +0.000 A 
ATOM     20  O   UNL     1       2.052  -0.887  -4.407  0.00  0.00    +0.000 OA
ATOM     21  C   UNL     1      -0.318  -0.869  -4.427  0.00  0.00    +0.000 A 
ATOM     22  H   UNL     1       1.884  -2.725  -6.015  0.00  0.00    +0.000 HD
ENDBRANCH   9  12
ENDBRANCH   7  10
ENDBRANCH   1   7
BRANCH   4  23
ATOM     23  C   UNL     1       5.921   4.856  -5.105  0.00  0.00    +0.000 C 
BRANCH  23  24
ATOM     24  N   UNL     1       6.215   6.089  -4.320  0.00  0.00    +0.000 NA
BRANCH  24  25
ATOM     25  C   UNL     1       6.825   5.752  -3.009  0.00  0.00    +0.000 C 
BRANCH  25  26
ATOM     26  C   UNL     1       7.110   6.956  -2.087  0.00  0.00    +0.000 C 
BRANCH  26  27
ATOM     27  O   UNL     1       7.617   6.518  -0.828  0.00  0.00    +0.000 OA
ATOM     28  H   UNL     1       6.854   6.245  -0.290  0.00  0.00    +0.000 HD
ENDBRANCH  26  27
ENDBRANCH  25  26
ENDBRANCH  24  25
BRANCH  24  29
ATOM     29  C   UNL     1       7.139   6.948  -5.102  0.00  0.00    +0.000 C 
BRANCH  29  30
ATOM     30  C   UNL     1       6.586   7.466  -6.418  0.00  0.00    +0.000 A 
ATOM     31  C   UNL     1       5.414   8.221  -6.442  0.00  0.00    +0.000 A 
ATOM     32  C   UNL     1       4.966   8.724  -7.660  0.00  0.00    +0.000 A 
ATOM     33  C   UNL     1       5.695   8.463  -8.813  0.00  0.00    +0.000 A 
ATOM     34  C   UNL     1       6.844   7.697  -8.703  0.00  0.00    +0.000 A 
ATOM     35  N   UNL     1       7.302   7.193  -7.537  0.00  0.00    +0.000 NA
ENDBRANCH  29  30
ENDBRANCH  24  29
ENDBRANCH  23  24
ENDBRANCH   4  23
TORSDOF 10
