REMARK  Name = 
REMARK  5 active torsions:
REMARK  status: ('A' for Active; 'I' for Inactive)
REMARK    1  A    between atoms: N_1  and  C_2
REMARK    2  A    between atoms: C_2  and  C_3
REMARK    3  A    between atoms: C_6  and  C_7
REMARK    4  A    between atoms: C_7  and  O_8
REMARK    5  A    between atoms: O_8  and  C_9
REMARK                            x       y       z     vdW  Elec       q    Type
REMARK                         _______ _______ _______ _____ _____    ______ ____
ROOT
ATOM      1  C   UNL     1       2.762   1.275   0.819  0.00  0.00    +0.000 A 
ATOM      2  N   UNL     1       3.532   1.122   1.938  0.00  0.00    +0.000 NA
ATOM      3  C   UNL     1       3.881   2.238   2.620  0.00  0.00    +0.000 A 
ATOM      4  C   UNL     1       3.524   3.526   2.243  0.00  0.00    +0.000 A 
ATOM      5  C   UNL     1       2.752   3.663   1.085  0.00  0.00    +0.000 A 
ATOM      6  C   UNL     1       2.374   2.534   0.355  0.00  0.00    +0.000 A 
ATOM      7 CL   UNL     1       1.437   2.768  -1.073  0.00  0.00    +0.000 Cl
ENDROOT
BRANCH   1   8
ATOM      8  C   UNL     1       2.362  -0.007   0.119  0.00  0.00    +0.000 C 
BRANCH   8   9
ATOM      9  N   UNL     1       3.337  -0.434  -0.889  0.00  0.00    +0.000 NA
ATOM     10  H   UNL     1       3.062  -1.353  -1.232  0.00  0.00    +0.000 HD
ATOM     11  H   UNL     1       4.232  -0.568  -0.415  0.00  0.00    +0.000 HD
ENDBRANCH   8   9
ENDBRANCH   1   8
BRANCH   4  12
ATOM     12  C   UNL     1       3.919   4.718   3.070  0.00  0.00    +0.000 C 
BRANCH  12  13
ATOM     13  O   UNL     1       2.904   4.939   4.047  0.00  0.00    +0.000 OA
BRANCH  13  14
ATOM     14  C   UNL     1       3.062   6.013   4.873  0.00  0.00    +0.000 A 
ATOM     15  C   UNL     1       4.137   6.898   4.890  0.00  0.00    +0.000 A 
ATOM     16  C   UNL     1       4.146   7.956   5.802  0.00  0.00    +0.000 A 
ATOM     17  C   UNL     1       3.076   8.093   6.671  0.00  0.00    +0.000 A 
ATOM     18  N   UNL     1       2.019   7.256   6.688  0.00  0.00    +0.000 NA
ATOM     19  C   UNL     1       2.041   6.240   5.789  0.00  0.00    +0.000 A 
ENDBRANCH  13  14
ENDBRANCH  12  13
ENDBRANCH   4  12
TORSDOF 5
