REMARK  Name = 
REMARK  10 active torsions:
REMARK  status: ('A' for Active; 'I' for Inactive)
REMARK    1  A    between atoms: N_1  and  C_2
REMARK    2  A    between atoms: C_2  and  C_3
REMARK    3  A    between atoms: C_3  and  C_4
REMARK    4  A    between atoms: C_4  and  N_5
REMARK    5  A    between atoms: N_5  and  C_6
REMARK    6  A    between atoms: C_6  and  C_7
REMARK    7  A    between atoms: C_10  and  C_11
REMARK    8  A    between atoms: C_11  and  O_12
REMARK    9  A    between atoms: O_12  and  C_13
REMARK   10  A    between atoms: C_21  and  C_23
REMARK                            x       y       z     vdW  Elec       q    Type
REMARK                         _______ _______ _______ _____ _____    ______ ____
ROOT
ATOM      1  N   UNL     1       4.963  -0.805  -2.511  0.00  0.00    +0.000 N 
ATOM      2  C   UNL     1       6.283  -0.545  -2.930  0.00  0.00    +0.000 C 
ATOM      3  O   UNL     1       6.748  -1.094  -3.929  0.00  0.00    +0.000 OA
ENDROOT
BRANCH   2   4
ATOM      4  C   UNL     1       7.099   0.485  -2.250  0.00  0.00    +0.000 A 
ATOM      5  C   UNL     1       6.612   1.649  -1.675  0.00  0.00    +0.000 A 
ATOM      6  S   UNL     1       7.823   2.786  -1.279  0.00  0.00    +0.000 S 
ATOM      7  C   UNL     1       9.039   1.779  -1.906  0.00  0.00    +0.000 A 
ATOM      8  N   UNL     1      10.319   2.217  -2.026  0.00  0.00    +0.000 NA
ATOM      9  C   UNL     1      11.129   1.342  -2.525  0.00  0.00    +0.000 A 
ATOM     10  N   UNL     1      10.784   0.055  -2.858  0.00  0.00    +0.000 N 
ATOM     11  C   UNL     1       9.521  -0.461  -2.645  0.00  0.00    +0.000 A 
ATOM     12  O   UNL     1       9.317  -1.672  -2.679  0.00  0.00    +0.000 OA
ATOM     13  C   UNL     1       8.544   0.537  -2.257  0.00  0.00    +0.000 A 
ATOM     14  H   UNL     1      11.497  -0.613  -3.114  0.00  0.00    +0.000 HD
ENDBRANCH   2   4
BRANCH   1  15
ATOM     15  C   UNL     1       4.462  -0.418  -1.191  0.00  0.00    +0.000 C 
BRANCH  15  16
ATOM     16  C   UNL     1       3.351  -1.254  -0.550  0.00  0.00    +0.000 C 
BRANCH  16  17
ATOM     17  C   UNL     1       3.052  -0.753   0.870  0.00  0.00    +0.000 C 
BRANCH  17  18
ATOM     18  N   UNL     1       2.696   0.663   0.884  0.00  0.00    +0.000 NA
ATOM     19  H   UNL     1       2.413   0.940   1.824  0.00  0.00    +0.000 HD
ATOM     20  H   UNL     1       1.892   0.831   0.280  0.00  0.00    +0.000 HD
ENDBRANCH  17  18
ENDBRANCH  16  17
ENDBRANCH  15  16
ENDBRANCH   1  15
BRANCH   1  21
ATOM     21  C   UNL     1       4.072  -1.479  -3.463  0.00  0.00    +0.000 C 
BRANCH  21  22
ATOM     22  C   UNL     1       2.954  -0.641  -4.069  0.00  0.00    +0.000 A 
ATOM     23  C   UNL     1       3.201   0.581  -4.712  0.00  0.00    +0.000 A 
ATOM     24  C   UNL     1       2.205   1.201  -5.488  0.00  0.00    +0.000 A 
ATOM     25  C   UNL     1       0.939   0.617  -5.639  0.00  0.00    +0.000 A 
ATOM     26  C   UNL     1       0.674  -0.575  -4.954  0.00  0.00    +0.000 A 
ATOM     27  C   UNL     1       1.666  -1.191  -4.181  0.00  0.00    +0.000 A 
BRANCH  25  28
ATOM     28  C   UNL     1      -0.090   1.195  -6.593  0.00  0.00    +0.000 C 
BRANCH  28  29
ATOM     29  O   UNL     1       0.104   0.596  -7.872  0.00  0.00    +0.000 OA
BRANCH  29  30
ATOM     30  C   UNL     1      -0.721   1.135  -8.834  0.00  0.00    +0.000 A 
ATOM     31  N   UNL     1      -0.267   1.032 -10.092  0.00  0.00    +0.000 NA
ATOM     32  C   UNL     1      -1.064   1.530 -11.057  0.00  0.00    +0.000 A 
ATOM     33  C   UNL     1      -2.286   2.112 -10.807  0.00  0.00    +0.000 A 
ATOM     34  C   UNL     1      -2.660   2.149  -9.486  0.00  0.00    +0.000 A 
ATOM     35  N   UNL     1      -1.901   1.672  -8.478  0.00  0.00    +0.000 NA
ENDBRANCH  29  30
ENDBRANCH  28  29
ENDBRANCH  25  28
ENDBRANCH  21  22
ENDBRANCH   1  21
TORSDOF 10
