REMARK  Name = 
REMARK  9 active torsions:
REMARK  status: ('A' for Active; 'I' for Inactive)
REMARK    1  A    between atoms: C_1  and  C_2
REMARK    2  A    between atoms: C_2  and  C_3
REMARK    3  A    between atoms: C_2  and  C_4
REMARK    4  A    between atoms: C_2  and  C_22
REMARK    5  A    between atoms: C_4  and  N_5
REMARK    6  A    between atoms: N_5  and  C_6
REMARK    7  A    between atoms: C_10  and  C_11
REMARK    8  A    between atoms: C_16  and  C_17
REMARK    9  A    between atoms: C_26  and  C_27
REMARK                            x       y       z     vdW  Elec       q    Type
REMARK                         _______ _______ _______ _____ _____    ______ ____
ROOT
ATOM      1  N   UNL     1       2.453  -1.467   1.913  0.00  0.00    +0.000 N 
ATOM      2  H   UNL     1       1.459  -1.269   2.026  0.00  0.00    +0.000 HD
ENDROOT
BRANCH   1   3
ATOM      3  C   UNL     1       2.838  -2.585   2.662  0.00  0.00    +0.000 A 
ATOM      4  C   UNL     1       2.106  -2.934   3.797  0.00  0.00    +0.000 A 
ATOM      5  N   UNL     1       2.465  -3.872   4.698  0.00  0.00    +0.000 NA
ATOM      6  C   UNL     1       3.639  -4.502   4.470  0.00  0.00    +0.000 A 
ATOM      7  C   UNL     1       4.465  -4.303   3.360  0.00  0.00    +0.000 A 
ATOM      8  C   UNL     1       4.029  -3.299   2.465  0.00  0.00    +0.000 A 
BRANCH   7   9
ATOM      9  C   UNL     1       5.764  -5.020   3.191  0.00  0.00    +0.000 A 
ATOM     10  C   UNL     1       6.878  -4.287   2.707  0.00  0.00    +0.000 A 
ATOM     11  C   UNL     1       8.159  -4.839   2.603  0.00  0.00    +0.000 A 
ATOM     12  C   UNL     1       8.385  -6.140   3.017  0.00  0.00    +0.000 A 
ATOM     13  C   UNL     1       7.314  -6.901   3.469  0.00  0.00    +0.000 A 
ATOM     14  C   UNL     1       5.994  -6.382   3.517  0.00  0.00    +0.000 A 
BRANCH  14  15
ATOM     15  C   UNL     1       4.932  -7.386   3.921  0.00  0.00    +0.000 C 
ATOM     16  F   UNL     1       3.654  -7.044   3.619  0.00  0.00    +0.000 F 
ATOM     17  F   UNL     1       5.120  -8.599   3.320  0.00  0.00    +0.000 F 
ATOM     18  F   UNL     1       4.954  -7.638   5.261  0.00  0.00    +0.000 F 
ENDBRANCH  14  15
ENDBRANCH   7   9
ENDBRANCH   1   3
BRANCH   1  19
ATOM     19  C   UNL     1       2.901  -1.305   0.530  0.00  0.00    +0.000 C 
BRANCH  19  21
ATOM     20  C   UNL     1       3.180   1.201   0.689  0.00  0.00    +0.000 C 
ATOM     21  C   UNL     1       2.440   0.068  -0.065  0.00  0.00    +0.000 C 
ATOM     22  C   UNL     1       2.923   0.126  -1.534  0.00  0.00    +0.000 C 
BRANCH  21  23
ATOM     23  C   UNL     1       0.911   0.223  -0.028  0.00  0.00    +0.000 A 
ATOM     24  C   UNL     1       0.271   1.259   0.654  0.00  0.00    +0.000 A 
ATOM     25  N   UNL     1      -1.071   1.427   0.726  0.00  0.00    +0.000 NA
ATOM     26  C   UNL     1      -1.839   0.521   0.081  0.00  0.00    +0.000 A 
ATOM     27  C   UNL     1      -1.333  -0.554  -0.627  0.00  0.00    +0.000 A 
ATOM     28  C   UNL     1       0.063  -0.697  -0.675  0.00  0.00    +0.000 A 
BRANCH  27  29
ATOM     29  C   UNL     1      -2.186  -1.539  -1.326  0.00  0.00    +0.000 C 
ATOM     30  N   UNL     1      -3.547  -1.415  -1.268  0.00  0.00    +0.000 N 
ATOM     31  O   UNL     1      -1.687  -2.470  -1.956  0.00  0.00    +0.000 OA
ATOM     32  H   UNL     1      -4.063  -0.700  -0.774  0.00  0.00    +0.000 HD
ATOM     33  H   UNL     1      -4.088  -2.118  -1.754  0.00  0.00    +0.000 HD
ENDBRANCH  27  29
ENDBRANCH  21  23
ENDBRANCH  19  21
ENDBRANCH   1  19
TORSDOF 7
