REMARK  Name = 
REMARK  6 active torsions:
REMARK  status: ('A' for Active; 'I' for Inactive)
REMARK    1  A    between atoms: C_1  and  C_2
REMARK    2  A    between atoms: C_2  and  N_3
REMARK    3  A    between atoms: C_2  and  C_14
REMARK    4  A    between atoms: N_3  and  C_4
REMARK    5  A    between atoms: C_7  and  C_8
REMARK    6  A    between atoms: C_12  and  O_13
REMARK                            x       y       z     vdW  Elec       q    Type
REMARK                         _______ _______ _______ _____ _____    ______ ____
ROOT
ATOM      1  C   UNL     1       2.398   2.432   0.257  0.00  0.00    +0.000 A 
ATOM      2  N   UNL     1       2.381   2.598  -1.081  0.00  0.00    +0.000 NA
ATOM      3  C   UNL     1       2.048   3.826  -1.563  0.00  0.00    +0.000 A 
ATOM      4  C   UNL     1       1.691   4.908  -0.774  0.00  0.00    +0.000 A 
ATOM      5  C   UNL     1       1.741   4.737   0.608  0.00  0.00    +0.000 A 
ATOM      6  C   UNL     1       2.133   3.505   1.126  0.00  0.00    +0.000 A 
ENDROOT
BRANCH   4   7
ATOM      7  C   UNL     1       1.261   6.223  -1.304  0.00  0.00    +0.000 C 
ATOM      8  N   UNL     1       1.276   6.425  -2.660  0.00  0.00    +0.000 N 
ATOM      9  O   UNL     1       0.893   7.119  -0.561  0.00  0.00    +0.000 OA
ATOM     10  H   UNL     1       1.570   5.761  -3.358  0.00  0.00    +0.000 HD
ATOM     11  H   UNL     1       0.971   7.338  -2.979  0.00  0.00    +0.000 HD
ENDBRANCH   4   7
BRANCH   1  12
ATOM     12  N   UNL     1       2.719   1.180   0.798  0.00  0.00    +0.000 N 
ATOM     13  H   UNL     1       3.663   1.275   1.162  0.00  0.00    +0.000 HD
BRANCH  12  15
ATOM     14  C   UNL     1       1.014  -0.185  -0.337  0.00  0.00    +0.000 C 
ATOM     15  C   UNL     1       2.512  -0.019  -0.025  0.00  0.00    +0.000 C 
BRANCH  15  16
ATOM     16  C   UNL     1       3.044  -1.288   0.725  0.00  0.00    +0.000 C 
ATOM     17  C   UNL     1       2.302  -1.559   2.052  0.00  0.00    +0.000 C 
ATOM     18  C   UNL     1       2.904  -2.706   2.861  0.00  0.00    +0.000 C 
ATOM     19  C   UNL     1       4.397  -2.508   3.077  0.00  0.00    +0.000 C 
ATOM     20  C   UNL     1       5.117  -2.399   1.740  0.00  0.00    +0.000 C 
ATOM     21  C   UNL     1       4.570  -1.231   0.913  0.00  0.00    +0.000 C 
ENDBRANCH  15  16
ENDBRANCH  12  15
ENDBRANCH   1  12
BRANCH   6  22
ATOM     22  O   UNL     1       2.227   3.341   2.483  0.00  0.00    +0.000 OA
ATOM     23  H   UNL     1       1.724   4.050   2.917  0.00  0.00    +0.000 HD
ENDBRANCH   6  22
TORSDOF 5
