REMARK  Name = 
REMARK  5 active torsions:
REMARK  status: ('A' for Active; 'I' for Inactive)
REMARK    1  A    between atoms: C_2  and  C_4
REMARK    2  A    between atoms: N_8  and  C_9
REMARK    3  A    between atoms: C_9  and  C_10
REMARK    4  A    between atoms: C_14  and  C_15
REMARK    5  A    between atoms: C_19  and  O_20
REMARK                            x       y       z     vdW  Elec       q    Type
REMARK                         _______ _______ _______ _____ _____    ______ ____
ROOT
ATOM      1  C   UNL     1       5.701  -5.458   1.892  0.00  0.00    +0.000 C 
ATOM      2  C   UNL     1       5.721  -6.362   0.670  0.00  0.00    +0.000 C 
ATOM      3  C   UNL     1       4.530  -6.387   1.565  0.00  0.00    +0.000 C 
ENDROOT
BRANCH   1   8
ATOM      4  C   UNL     1       8.076  -1.343  -0.247  0.00  0.00    +0.000 A 
ATOM      5  C   UNL     1       8.599  -2.562   0.166  0.00  0.00    +0.000 A 
ATOM      6  C   UNL     1       7.767  -3.490   0.805  0.00  0.00    +0.000 A 
ATOM      7  C   UNL     1       6.423  -3.186   1.010  0.00  0.00    +0.000 A 
ATOM      8  N   UNL     1       5.535  -4.018   1.692  0.00  0.00    +0.000 N 
ATOM      9  N   UNL     1       5.899  -2.015   0.590  0.00  0.00    +0.000 NA
ATOM     10  C   UNL     1       6.726  -1.121  -0.015  0.00  0.00    +0.000 A 
ATOM     11  H   UNL     1       4.605  -3.614   1.643  0.00  0.00    +0.000 HD
BRANCH   4  13
ATOM     12  N   UNL     1      10.024  -0.618  -1.522  0.00  0.00    +0.000 N 
ATOM     13  C   UNL     1       8.874  -0.265  -0.870  0.00  0.00    +0.000 C 
ATOM     14  O   UNL     1       8.509   0.902  -0.828  0.00  0.00    +0.000 OA
ATOM     15  H   UNL     1      10.506   0.127  -2.009  0.00  0.00    +0.000 HD
ATOM     16  H   UNL     1      10.241  -1.567  -1.782  0.00  0.00    +0.000 HD
ENDBRANCH   4  13
ENDBRANCH   1   8
BRANCH   1  17
ATOM     17  C   UNL     1       6.405  -5.862   3.183  0.00  0.00    +0.000 A 
ATOM     18  C   UNL     1       5.778  -5.700   4.430  0.00  0.00    +0.000 A 
ATOM     19  C   UNL     1       6.304  -6.276   5.585  0.00  0.00    +0.000 A 
ATOM     20  C   UNL     1       7.481  -7.021   5.518  0.00  0.00    +0.000 A 
ATOM     21  C   UNL     1       8.172  -7.166   4.306  0.00  0.00    +0.000 A 
ATOM     22  C   UNL     1       7.629  -6.551   3.164  0.00  0.00    +0.000 A 
BRANCH  21  23
ATOM     23  C   UNL     1       9.377  -8.004   4.183  0.00  0.00    +0.000 A 
ATOM     24  C   UNL     1       9.468  -9.257   4.797  0.00  0.00    +0.000 A 
ATOM     25  N   UNL     1      10.514 -10.112   4.671  0.00  0.00    +0.000 NA
ATOM     26  C   UNL     1      11.528  -9.708   3.877  0.00  0.00    +0.000 A 
ATOM     27  C   UNL     1      11.541  -8.489   3.218  0.00  0.00    +0.000 A 
ATOM     28  C   UNL     1      10.465  -7.630   3.382  0.00  0.00    +0.000 A 
BRANCH  27  29
ATOM     29  O   UNL     1      12.559  -8.097   2.402  0.00  0.00    +0.000 OA
ATOM     30  H   UNL     1      13.234  -8.796   2.380  0.00  0.00    +0.000 HD
ENDBRANCH  27  29
ENDBRANCH  21  23
ENDBRANCH   1  17
TORSDOF 5
