REMARK  Name = 
REMARK  7 active torsions:
REMARK  status: ('A' for Active; 'I' for Inactive)
REMARK    1  A    between atoms: C_1  and  N_2
REMARK    2  A    between atoms: N_2  and  C_3
REMARK    3  A    between atoms: C_3  and  C_4
REMARK    4  A    between atoms: C_7  and  C_8
REMARK    5  A    between atoms: C_8  and  N_9
REMARK    6  A    between atoms: C_10  and  C_12
REMARK    7  A    between atoms: C_19  and  C_21
REMARK                            x       y       z     vdW  Elec       q    Type
REMARK                         _______ _______ _______ _____ _____    ______ ____
ROOT
ATOM      1  C   UNL     1       3.061   1.408   0.408  0.00  0.00    +0.000 C 
ENDROOT
BRANCH   1   2
ATOM      2  C   UNL     1       2.237   2.358   1.241  0.00  0.00    +0.000 A 
ATOM      3  C   UNL     1       1.318   1.868   2.183  0.00  0.00    +0.000 A 
ATOM      4  C   UNL     1       0.485   2.742   2.884  0.00  0.00    +0.000 A 
ATOM      5  C   UNL     1       0.553   4.121   2.650  0.00  0.00    +0.000 A 
ATOM      6  C   UNL     1       1.523   4.614   1.766  0.00  0.00    +0.000 A 
ATOM      7  C   UNL     1       2.351   3.740   1.059  0.00  0.00    +0.000 A 
BRANCH   5   8
ATOM      8  C   UNL     1      -0.422   5.059   3.305  0.00  0.00    +0.000 C 
BRANCH   8   9
ATOM      9  N   UNL     1       0.049   5.547   4.570  0.00  0.00    +0.000 N 
ATOM     10  C   UNL     1      -0.656   6.511   5.259  0.00  0.00    +0.000 C 
ATOM     11  O   UNL     1      -1.703   6.990   4.830  0.00  0.00    +0.000 OA
ATOM     12  H   UNL     1       0.869   5.145   5.008  0.00  0.00    +0.000 HD
BRANCH  10  13
ATOM     13  C   UNL     1      -0.053   6.900   6.515  0.00  0.00    +0.000 A 
ATOM     14  C   UNL     1      -0.475   7.788   7.487  0.00  0.00    +0.000 A 
ATOM     15  C   UNL     1       0.518   7.790   8.495  0.00  0.00    +0.000 A 
ATOM     16  C   UNL     1       1.486   6.907   8.081  0.00  0.00    +0.000 A 
ATOM     17  O   UNL     1       1.149   6.354   6.887  0.00  0.00    +0.000 OA
ENDBRANCH  10  13
ENDBRANCH   8   9
ENDBRANCH   5   8
ENDBRANCH   1   2
BRANCH   1  19
ATOM     18  C   UNL     1       1.152   1.316  -1.275  0.00  0.00    +0.000 C 
ATOM     19  N   UNL     1       2.532   1.019  -0.908  0.00  0.00    +0.000 N 
ATOM     20  C   UNL     1       3.290   0.379  -1.908  0.00  0.00    +0.000 C 
ATOM     21  O   UNL     1       2.796   0.119  -3.006  0.00  0.00    +0.000 OA
BRANCH  20  22
ATOM     22  C   UNL     1       4.678  -0.017  -1.633  0.00  0.00    +0.000 A 
ATOM     23  C   UNL     1       5.093  -0.683  -0.491  0.00  0.00    +0.000 A 
ATOM     24  S   UNL     1       6.754  -1.075  -0.490  0.00  0.00    +0.000 S 
ATOM     25  C   UNL     1       6.942  -0.505  -2.081  0.00  0.00    +0.000 A 
ATOM     26  N   UNL     1       8.125  -0.643  -2.737  0.00  0.00    +0.000 NA
ATOM     27  C   UNL     1       8.099  -0.226  -3.959  0.00  0.00    +0.000 A 
ATOM     28  N   UNL     1       7.014   0.342  -4.571  0.00  0.00    +0.000 N 
ATOM     29  C   UNL     1       5.839   0.624  -3.907  0.00  0.00    +0.000 A 
ATOM     30  O   UNL     1       4.982   1.337  -4.416  0.00  0.00    +0.000 OA
ATOM     31  C   UNL     1       5.779   0.068  -2.565  0.00  0.00    +0.000 A 
ATOM     32  H   UNL     1       7.084   0.705  -5.511  0.00  0.00    +0.000 HD
ENDBRANCH  20  22
ENDBRANCH   1  19
TORSDOF 6
