REMARK  Name = 
REMARK  8 active torsions:
REMARK  status: ('A' for Active; 'I' for Inactive)
REMARK    1  A    between atoms: C_1  and  O_2
REMARK    2  A    between atoms: O_2  and  C_3
REMARK    3  A    between atoms: C_5  and  C_6
REMARK    4  A    between atoms: C_11  and  N_12
REMARK    5  A    between atoms: N_12  and  C_13
REMARK    6  A    between atoms: C_13  and  C_14
REMARK    7  A    between atoms: C_18  and  C_19
REMARK    8  A    between atoms: C_23  and  C_24
REMARK                            x       y       z     vdW  Elec       q    Type
REMARK                         _______ _______ _______ _____ _____    ______ ____
ROOT
ATOM      1  N   UNL     1       4.418   0.050   1.943  0.00  0.00    +0.000 N 
ATOM      2  H   UNL     1       5.391  -0.003   1.661  0.00  0.00    +0.000 HD
ENDROOT
BRANCH   1   8
ATOM      3  C   UNL     1       4.377  -2.386   1.761  0.00  0.00    +0.000 A 
ATOM      4  C   UNL     1       3.624  -3.547   1.543  0.00  0.00    +0.000 A 
ATOM      5  C   UNL     1       2.292  -3.459   1.137  0.00  0.00    +0.000 A 
ATOM      6  C   UNL     1       1.770  -2.193   0.954  0.00  0.00    +0.000 A 
ATOM      7  N   UNL     1       2.466  -1.050   1.167  0.00  0.00    +0.000 NA
ATOM      8  C   UNL     1       3.751  -1.137   1.582  0.00  0.00    +0.000 A 
BRANCH   5   9
ATOM      9  C   UNL     1       1.518  -4.705   0.929  0.00  0.00    +0.000 C 
ATOM     10  N   UNL     1       0.210  -4.626   0.549  0.00  0.00    +0.000 N 
ATOM     11  O   UNL     1       2.038  -5.806   1.098  0.00  0.00    +0.000 OA
ATOM     12  H   UNL     1      -0.322  -3.780   0.412  0.00  0.00    +0.000 HD
ATOM     13  H   UNL     1      -0.281  -5.505   0.441  0.00  0.00    +0.000 HD
ENDBRANCH   5   9
BRANCH   3  15
ATOM     14  C   UNL     1       6.394  -3.623   1.952  0.00  0.00    +0.000 C 
ATOM     15  O   UNL     1       5.695  -2.396   2.153  0.00  0.00    +0.000 OA
ENDBRANCH   3  15
ENDBRANCH   1   8
BRANCH   1  16
ATOM     16  C   UNL     1       3.751   1.274   1.508  0.00  0.00    +0.000 C 
BRANCH  16  17
ATOM     17  C   UNL     1       4.225   2.494   2.273  0.00  0.00    +0.000 A 
ATOM     18  C   UNL     1       4.169   3.758   1.670  0.00  0.00    +0.000 A 
ATOM     19  C   UNL     1       4.443   4.906   2.410  0.00  0.00    +0.000 A 
ATOM     20  C   UNL     1       4.761   4.805   3.766  0.00  0.00    +0.000 A 
ATOM     21  C   UNL     1       4.803   3.560   4.418  0.00  0.00    +0.000 A 
ATOM     22  C   UNL     1       4.539   2.416   3.641  0.00  0.00    +0.000 A 
BRANCH  21  23
ATOM     23  C   UNL     1       5.052   3.454   5.873  0.00  0.00    +0.000 A 
ATOM     24  C   UNL     1       5.752   2.376   6.427  0.00  0.00    +0.000 A 
ATOM     25  C   UNL     1       5.922   2.310   7.801  0.00  0.00    +0.000 A 
ATOM     26  N   UNL     1       5.462   3.239   8.663  0.00  0.00    +0.000 NA
ATOM     27  C   UNL     1       4.788   4.284   8.135  0.00  0.00    +0.000 A 
ATOM     28  C   UNL     1       4.269   5.324   9.081  0.00  0.00    +0.000 C 
ATOM     29  C   UNL     1       4.564   4.419   6.767  0.00  0.00    +0.000 A 
ENDBRANCH  21  23
ENDBRANCH  16  17
ENDBRANCH   1  16
TORSDOF 6
