REMARK  Name = 
REMARK  5 active torsions:
REMARK  status: ('A' for Active; 'I' for Inactive)
REMARK    1  A    between atoms: N_1  and  C_2
REMARK    2  A    between atoms: C_2  and  C_3
REMARK    3  A    between atoms: C_6  and  C_7
REMARK    4  A    between atoms: C_7  and  O_8
REMARK    5  A    between atoms: O_8  and  C_9
REMARK                            x       y       z     vdW  Elec       q    Type
REMARK                         _______ _______ _______ _____ _____    ______ ____
ROOT
ATOM      1  C   UNL     1       3.925  -2.063   5.258  0.00  0.00    +0.000 C 
ENDROOT
BRANCH   1   5
ATOM      2  C   UNL     1       2.928  -0.511   1.335  0.00  0.00    +0.000 A 
ATOM      3  C   UNL     1       3.289   0.355   2.376  0.00  0.00    +0.000 A 
ATOM      4  C   UNL     1       3.618  -0.145   3.639  0.00  0.00    +0.000 A 
ATOM      5  C   UNL     1       3.599  -1.523   3.885  0.00  0.00    +0.000 A 
ATOM      6  C   UNL     1       3.231  -2.390   2.848  0.00  0.00    +0.000 A 
ATOM      7  C   UNL     1       2.902  -1.889   1.585  0.00  0.00    +0.000 A 
BRANCH   2   8
ATOM      8  C   UNL     1       2.534   0.032  -0.016  0.00  0.00    +0.000 C 
BRANCH   8   9
ATOM      9  N   UNL     1       3.600   0.828  -0.614  0.00  0.00    +0.000 NA
ATOM     10  H   UNL     1       3.342   1.063  -1.570  0.00  0.00    +0.000 HD
ATOM     11  H   UNL     1       4.440   0.255  -0.674  0.00  0.00    +0.000 HD
ENDBRANCH   8   9
ENDBRANCH   2   8
ENDBRANCH   1   5
BRANCH   1  12
ATOM     12  O   UNL     1       2.710  -2.151   5.996  0.00  0.00    +0.000 OA
BRANCH  12  13
ATOM     13  C   UNL     1       2.899  -2.531   7.306  0.00  0.00    +0.000 A 
ATOM     14  N   UNL     1       4.105  -2.915   7.716  0.00  0.00    +0.000 NA
ATOM     15  C   UNL     1       4.145  -3.256   8.998  0.00  0.00    +0.000 A 
ATOM     16  N   UNL     1       3.121  -3.242   9.845  0.00  0.00    +0.000 NA
ATOM     17  C   UNL     1       1.976  -2.830   9.318  0.00  0.00    +0.000 A 
ATOM     18  N   UNL     1       0.875  -2.788  10.149  0.00  0.00    +0.000 N 
ATOM     19  N   UNL     1       1.802  -2.485   8.054  0.00  0.00    +0.000 NA
ATOM     20  H   UNL     1       0.993  -3.417  10.931  0.00  0.00    +0.000 HD
ATOM     21  H   UNL     1       0.024  -2.863   9.610  0.00  0.00    +0.000 HD
ENDBRANCH  12  13
ENDBRANCH   1  12
TORSDOF 5
