REMARK  Name = 
REMARK  7 active torsions:
REMARK  status: ('A' for Active; 'I' for Inactive)
REMARK    1  A    between atoms: C_1  and  C_2
REMARK    2  A    between atoms: C_2  and  C_3
REMARK    3  A    between atoms: C_2  and  N_4
REMARK    4  A    between atoms: C_2  and  C_5
REMARK    5  A    between atoms: C_8  and  N_9
REMARK    6  A    between atoms: N_9  and  C_10
REMARK    7  A    between atoms: C_10  and  C_11
REMARK                            x       y       z     vdW  Elec       q    Type
REMARK                         _______ _______ _______ _____ _____    ______ ____
ROOT
ATOM      1  C   UNL     1       2.941  -0.979   1.205  0.00  0.00    +0.000 A 
ATOM      2  C   UNL     1       2.665  -2.346   1.206  0.00  0.00    +0.000 A 
ATOM      3  N   UNL     1       2.971  -3.172   2.243  0.00  0.00    +0.000 NA
ATOM      4  C   UNL     1       3.592  -2.615   3.301  0.00  0.00    +0.000 A 
ATOM      5  C   UNL     1       3.838  -1.243   3.303  0.00  0.00    +0.000 A 
ATOM      6  N   UNL     1       3.535  -0.407   2.280  0.00  0.00    +0.000 NA
ENDROOT
BRANCH   1   8
ATOM      7  C   UNL     1       3.161  -0.515  -1.272  0.00  0.00    +0.000 C 
ATOM      8  C   UNL     1       2.513  -0.072   0.050  0.00  0.00    +0.000 C 
ATOM      9  C   UNL     1       2.912   1.395   0.326  0.00  0.00    +0.000 C 
BRANCH   8  10
ATOM     10  N   UNL     1       1.046  -0.116  -0.122  0.00  0.00    +0.000 NA
ATOM     11  H   UNL     1       0.764   0.623  -0.766  0.00  0.00    +0.000 HD
ATOM     12  H   UNL     1       0.613   0.125   0.771  0.00  0.00    +0.000 HD
ENDBRANCH   8  10
ENDBRANCH   1   8
BRANCH   4  13
ATOM     13  N   UNL     1       3.861  -3.455   4.383  0.00  0.00    +0.000 N 
ATOM     14  H   UNL     1       2.999  -3.550   4.915  0.00  0.00    +0.000 HD
BRANCH  13  15
ATOM     15  C   UNL     1       4.968  -3.061   5.243  0.00  0.00    +0.000 C 
BRANCH  15  16
ATOM     16  C   UNL     1       5.537  -4.266   5.943  0.00  0.00    +0.000 A 
ATOM     17  C   UNL     1       6.035  -5.336   5.193  0.00  0.00    +0.000 A 
ATOM     18  C   UNL     1       6.606  -6.406   5.859  0.00  0.00    +0.000 A 
ATOM     19  N   UNL     1       6.718  -6.480   7.202  0.00  0.00    +0.000 NA
ATOM     20  C   UNL     1       6.233  -5.437   7.908  0.00  0.00    +0.000 A 
ATOM     21  C   UNL     1       5.643  -4.321   7.334  0.00  0.00    +0.000 A 
ENDBRANCH  15  16
ENDBRANCH  13  15
ENDBRANCH   4  13
TORSDOF 5
