REMARK  Name = 
REMARK  9 active torsions:
REMARK  status: ('A' for Active; 'I' for Inactive)
REMARK    1  A    between atoms: C_2  and  C_3
REMARK    2  A    between atoms: C_6  and  N_7
REMARK    3  A    between atoms: N_7  and  C_8
REMARK    4  A    between atoms: C_8  and  C_9
REMARK    5  A    between atoms: C_9  and  C_10
REMARK    6  A    between atoms: C_9  and  C_12
REMARK    7  A    between atoms: C_10  and  O_11
REMARK    8  A    between atoms: C_16  and  C_17
REMARK    9  A    between atoms: C_17  and  C_18
REMARK                            x       y       z     vdW  Elec       q    Type
REMARK                         _______ _______ _______ _____ _____    ______ ____
ROOT
ATOM      1  C   UNL     1       5.903  -1.008   0.379  0.00  0.00    +0.000 C 
ENDROOT
BRANCH   1   2
ATOM      2  C   UNL     1       6.806  -2.240   0.366  0.00  0.00    +0.000 A 
ATOM      3  C   UNL     1       7.754  -2.410  -0.650  0.00  0.00    +0.000 A 
ATOM      4  C   UNL     1       8.709  -3.425  -0.561  0.00  0.00    +0.000 A 
ATOM      5  C   UNL     1       8.731  -4.277   0.545  0.00  0.00    +0.000 A 
ATOM      6  C   UNL     1       7.765  -4.157   1.550  0.00  0.00    +0.000 A 
ATOM      7  C   UNL     1       6.798  -3.151   1.436  0.00  0.00    +0.000 A 
BRANCH   6   8
ATOM      8  C   UNL     1       7.773  -5.064   2.757  0.00  0.00    +0.000 C 
BRANCH   8   9
ATOM      9  C   UNL     1       8.558  -4.439   3.901  0.00  0.00    +0.000 C 
ATOM     10  C   UNL     1       8.518  -5.239   5.212  0.00  0.00    +0.000 C 
ATOM     11  O   UNL     1       8.107  -4.074   5.963  0.00  0.00    +0.000 OA
ATOM     12  C   UNL     1       7.895  -3.333   4.738  0.00  0.00    +0.000 C 
ENDBRANCH   8   9
ENDBRANCH   6   8
ENDBRANCH   1   2
BRANCH   1  13
ATOM     13  C   UNL     1       6.248  -0.167   1.630  0.00  0.00    +0.000 C 
BRANCH  13  14
ATOM     14  N   UNL     1       5.477   1.073   1.724  0.00  0.00    +0.000 N 
ATOM     15  H   UNL     1       5.129   1.224   2.669  0.00  0.00    +0.000 HD
BRANCH  14  19
ATOM     16  C   UNL     1       6.568   4.706  -0.108  0.00  0.00    +0.000 A 
ATOM     17  C   UNL     1       7.136   3.515  -0.560  0.00  0.00    +0.000 A 
ATOM     18  C   UNL     1       6.816   2.301   0.063  0.00  0.00    +0.000 A 
ATOM     19  C   UNL     1       5.935   2.256   1.146  0.00  0.00    +0.000 A 
ATOM     20  C   UNL     1       5.364   3.462   1.576  0.00  0.00    +0.000 A 
ATOM     21  C   UNL     1       5.684   4.678   0.968  0.00  0.00    +0.000 A 
BRANCH  16  23
ATOM     22  N   UNL     1       7.128   6.945  -1.288  0.00  0.00    +0.000 NA
ATOM     23  C   UNL     1       6.879   5.942  -0.759  0.00  0.00    +0.000 C 
ENDBRANCH  16  23
ENDBRANCH  14  19
ENDBRANCH  13  14
ENDBRANCH   1  13
BRANCH   1  24
ATOM     24  C   UNL     1       4.402  -1.320   0.275  0.00  0.00    +0.000 C 
BRANCH  24  25
ATOM     25  O   UNL     1       3.899  -1.960   1.445  0.00  0.00    +0.000 OA
ATOM     26  H   UNL     1       3.082  -1.492   1.692  0.00  0.00    +0.000 HD
ENDBRANCH  24  25
ENDBRANCH   1  24
TORSDOF 9
