REMARK  Name = 
REMARK  7 active torsions:
REMARK  status: ('A' for Active; 'I' for Inactive)
REMARK    1  A    between atoms: C_1  and  O_2
REMARK    2  A    between atoms: O_2  and  C_3
REMARK    3  A    between atoms: C_7  and  C_8
REMARK    4  A    between atoms: C_12  and  C_13
REMARK    5  A    between atoms: C_13  and  N_14
REMARK    6  A    between atoms: N_14  and  C_15
REMARK    7  A    between atoms: C_18  and  C_19
REMARK                            x       y       z     vdW  Elec       q    Type
REMARK                         _______ _______ _______ _____ _____    ______ ____
ROOT
ATOM      1  C   UNL     1       2.113   6.285  -5.367  0.00  0.00    +0.000 C 
ATOM      2  C   UNL     1       0.725   6.796  -5.683  0.00  0.00    +0.000 C 
ATOM      3  C   UNL     1       1.096   5.415  -6.107  0.00  0.00    +0.000 C 
ENDROOT
BRANCH   1   8
ATOM      4  C   UNL     1       3.086   4.186  -2.256  0.00  0.00    +0.000 A 
ATOM      5  C   UNL     1       3.055   5.173  -1.261  0.00  0.00    +0.000 A 
ATOM      6  C   UNL     1       2.720   6.493  -1.569  0.00  0.00    +0.000 A 
ATOM      7  C   UNL     1       2.416   6.854  -2.884  0.00  0.00    +0.000 A 
ATOM      8  C   UNL     1       2.435   5.912  -3.920  0.00  0.00    +0.000 A 
ATOM      9  C   UNL     1       2.770   4.587  -3.571  0.00  0.00    +0.000 A 
BRANCH   4  14
ATOM     10  C   UNL     1       4.426   0.650  -2.620  0.00  0.00    +0.000 A 
ATOM     11  C   UNL     1       3.997   0.133  -1.407  0.00  0.00    +0.000 A 
ATOM     12  N   UNL     1       3.343   0.850  -0.465  0.00  0.00    +0.000 NA
ATOM     13  C   UNL     1       3.080   2.146  -0.767  0.00  0.00    +0.000 A 
ATOM     14  C   UNL     1       3.435   2.779  -1.960  0.00  0.00    +0.000 A 
ATOM     15  C   UNL     1       4.134   1.985  -2.888  0.00  0.00    +0.000 A 
BRANCH  10  17
ATOM     16  C   UNL     1       5.964   0.396  -4.392  0.00  0.00    +0.000 C 
ATOM     17  O   UNL     1       5.060  -0.208  -3.472  0.00  0.00    +0.000 OA
ENDBRANCH  10  17
ENDBRANCH   4  14
ENDBRANCH   1   8
BRANCH   1  18
ATOM     18  N   UNL     1       3.287   6.628  -6.183  0.00  0.00    +0.000 N 
ATOM     19  H   UNL     1       3.876   5.855  -6.468  0.00  0.00    +0.000 HD
BRANCH  18  20
ATOM     20  C   UNL     1       3.894   7.889  -6.306  0.00  0.00    +0.000 A 
ATOM     21  C   UNL     1       3.345   9.072  -5.809  0.00  0.00    +0.000 A 
ATOM     22  C   UNL     1       3.955  10.308  -6.070  0.00  0.00    +0.000 A 
ATOM     23  C   UNL     1       5.124  10.379  -6.837  0.00  0.00    +0.000 A 
ATOM     24  C   UNL     1       5.686   9.203  -7.334  0.00  0.00    +0.000 A 
ATOM     25  C   UNL     1       5.073   7.976  -7.067  0.00  0.00    +0.000 A 
BRANCH  23  26
ATOM     26  C   UNL     1       5.702  11.715  -7.155  0.00  0.00    +0.000 C 
ATOM     27  N   UNL     1       7.023  11.777  -7.488  0.00  0.00    +0.000 N 
ATOM     28  O   UNL     1       5.021  12.732  -7.106  0.00  0.00    +0.000 OA
ATOM     29  H   UNL     1       7.670  11.018  -7.325  0.00  0.00    +0.000 HD
ATOM     30  H   UNL     1       7.409  12.700  -7.634  0.00  0.00    +0.000 HD
ENDBRANCH  23  26
ENDBRANCH  18  20
ENDBRANCH   1  18
TORSDOF 6
