REMARK  Name = 
REMARK  6 active torsions:
REMARK  status: ('A' for Active; 'I' for Inactive)
REMARK    1  A    between atoms: C_2  and  C_20
REMARK    2  A    between atoms: N_3  and  C_4
REMARK    3  A    between atoms: C_4  and  C_5
REMARK    4  A    between atoms: C_8  and  C_9
REMARK    5  A    between atoms: C_9  and  N_10
REMARK    6  A    between atoms: C_11  and  C_13
REMARK                            x       y       z     vdW  Elec       q    Type
REMARK                         _______ _______ _______ _____ _____    ______ ____
ROOT
ATOM      1  C   UNL     1      -0.564  13.266  -6.819  0.00  0.00    +0.000 A 
ATOM      2  C   UNL     1       0.455  13.157  -5.864  0.00  0.00    +0.000 A 
ATOM      3  C   UNL     1       1.375  12.103  -5.915  0.00  0.00    +0.000 A 
ATOM      4  C   UNL     1       1.310  11.147  -6.937  0.00  0.00    +0.000 A 
ATOM      5  C   UNL     1       0.300  11.265  -7.902  0.00  0.00    +0.000 A 
ATOM      6  C   UNL     1      -0.621  12.319  -7.850  0.00  0.00    +0.000 A 
ENDROOT
BRANCH   1   7
ATOM      7  C   UNL     1      -1.544  14.413  -6.767  0.00  0.00    +0.000 C 
BRANCH   7  10
ATOM      8  O   UNL     1      -2.930  16.802  -7.213  0.00  0.00    +0.000 OA
ATOM      9  C   UNL     1      -1.790  16.691  -7.654  0.00  0.00    +0.000 C 
ATOM     10  N   UNL     1      -1.069  15.529  -7.543  0.00  0.00    +0.000 N 
ATOM     11  H   UNL     1      -0.074  15.548  -7.733  0.00  0.00    +0.000 HD
BRANCH   9  12
ATOM     12  C   UNL     1      -1.135  17.785  -8.383  0.00  0.00    +0.000 A 
ATOM     13  C   UNL     1      -1.898  18.768  -8.999  0.00  0.00    +0.000 A 
ATOM     14  S   UNL     1      -0.968  19.920  -9.849  0.00  0.00    +0.000 S 
ATOM     15  C   UNL     1       0.489  19.175  -9.375  0.00  0.00    +0.000 A 
ATOM     16  N   UNL     1       1.691  19.680  -9.761  0.00  0.00    +0.000 NA
ATOM     17  C   UNL     1       2.712  19.037  -9.299  0.00  0.00    +0.000 A 
ATOM     18  N   UNL     1       2.638  17.935  -8.485  0.00  0.00    +0.000 N 
ATOM     19  C   UNL     1       1.447  17.375  -8.093  0.00  0.00    +0.000 A 
ATOM     20  O   UNL     1       1.419  16.367  -7.399  0.00  0.00    +0.000 OA
ATOM     21  C   UNL     1       0.267  18.062  -8.586  0.00  0.00    +0.000 A 
ATOM     22  H   UNL     1       3.475  17.475  -8.160  0.00  0.00    +0.000 HD
ENDBRANCH   9  12
ENDBRANCH   7  10
ENDBRANCH   1   7
BRANCH   4  23
ATOM     23  C   UNL     1       2.309  10.020  -7.003  0.00  0.00    +0.000 C 
BRANCH  23  24
ATOM     24  N   UNL     1       1.901   8.872  -6.225  0.00  0.00    +0.000 N 
ATOM     25  C   UNL     1       2.678   7.725  -6.220  0.00  0.00    +0.000 C 
ATOM     26  O   UNL     1       3.751   7.651  -6.811  0.00  0.00    +0.000 OA
ATOM     27  H   UNL     1       0.959   8.834  -5.857  0.00  0.00    +0.000 HD
BRANCH  25  28
ATOM     28  C   UNL     1       2.058   6.562  -5.412  0.00  0.00    +0.000 C 
ATOM     29  C   UNL     1       2.899   5.295  -5.417  0.00  0.00    +0.000 C 
ATOM     30  C   UNL     1       3.888   5.516  -4.290  0.00  0.00    +0.000 C 
ATOM     31  C   UNL     1       3.154   6.412  -3.306  0.00  0.00    +0.000 C 
ATOM     32  N   UNL     1       1.955   6.923  -3.981  0.00  0.00    +0.000 NA
ATOM     33  H   UNL     1       1.905   7.936  -3.875  0.00  0.00    +0.000 HD
ENDBRANCH  25  28
ENDBRANCH  23  24
ENDBRANCH   4  23
TORSDOF 6
