REMARK  Name = 
REMARK  7 active torsions:
REMARK  status: ('A' for Active; 'I' for Inactive)
REMARK    1  A    between atoms: C_2  and  C_19
REMARK    2  A    between atoms: N_3  and  C_4
REMARK    3  A    between atoms: C_4  and  C_5
REMARK    4  A    between atoms: C_8  and  C_9
REMARK    5  A    between atoms: C_9  and  C_10
REMARK    6  A    between atoms: C_10  and  N_11
REMARK    7  A    between atoms: C_14  and  O_15
REMARK                            x       y       z     vdW  Elec       q    Type
REMARK                         _______ _______ _______ _____ _____    ______ ____
ROOT
ATOM      1  C   UNL     1       2.185   2.525   0.209  0.00  0.00    +0.000 C 
ENDROOT
BRANCH   1   2
ATOM      2  C   UNL     1       3.134   3.693   0.274  0.00  0.00    +0.000 A 
ATOM      3  C   UNL     1       2.667   4.995   0.055  0.00  0.00    +0.000 A 
ATOM      4  C   UNL     1       3.540   6.085   0.110  0.00  0.00    +0.000 A 
ATOM      5  C   UNL     1       4.900   5.894   0.380  0.00  0.00    +0.000 A 
ATOM      6  C   UNL     1       5.371   4.587   0.577  0.00  0.00    +0.000 A 
ATOM      7  C   UNL     1       4.499   3.497   0.518  0.00  0.00    +0.000 A 
BRANCH   5   8
ATOM      8  C   UNL     1       5.864   7.058   0.397  0.00  0.00    +0.000 C 
BRANCH   8   9
ATOM      9  C   UNL     1       5.599   8.081   1.519  0.00  0.00    +0.000 C 
BRANCH   9  10
ATOM     10  N   UNL     1       6.603   9.161   1.544  0.00  0.00    +0.000 NA
ATOM     11  C   UNL     1       7.966   8.677   1.805  0.00  0.00    +0.000 C 
ATOM     12  C   UNL     1       8.702   9.828   2.487  0.00  0.00    +0.000 C 
ATOM     13  C   UNL     1       7.648  10.910   2.674  0.00  0.00    +0.000 C 
ATOM     14  C   UNL     1       6.327  10.147   2.604  0.00  0.00    +0.000 C 
BRANCH  13  15
ATOM     15  O   UNL     1       7.739  11.846   1.598  0.00  0.00    +0.000 OA
ATOM     16  H   UNL     1       7.449  11.356   0.804  0.00  0.00    +0.000 HD
ENDBRANCH  13  15
ENDBRANCH   9  10
ENDBRANCH   8   9
ENDBRANCH   5   8
ENDBRANCH   1   2
BRANCH   1  19
ATOM     17  O   UNL     1       0.177   3.121  -1.679  0.00  0.00    +0.000 OA
ATOM     18  C   UNL     1       1.094   2.369  -2.000  0.00  0.00    +0.000 C 
ATOM     19  N   UNL     1       2.084   2.002  -1.129  0.00  0.00    +0.000 N 
ATOM     20  H   UNL     1       2.907   1.528  -1.483  0.00  0.00    +0.000 HD
BRANCH  18  21
ATOM     21  C   UNL     1       1.150   1.760  -3.337  0.00  0.00    +0.000 A 
ATOM     22  C   UNL     1      -0.003   1.686  -4.108  0.00  0.00    +0.000 A 
ATOM     23  S   UNL     1       0.232   0.934  -5.621  0.00  0.00    +0.000 S 
ATOM     24  C   UNL     1       1.892   0.719  -5.317  0.00  0.00    +0.000 A 
ATOM     25  N   UNL     1       2.703   0.149  -6.248  0.00  0.00    +0.000 NA
ATOM     26  C   UNL     1       3.946   0.081  -5.904  0.00  0.00    +0.000 A 
ATOM     27  N   UNL     1       4.448   0.521  -4.708  0.00  0.00    +0.000 N 
ATOM     28  C   UNL     1       3.656   1.035  -3.710  0.00  0.00    +0.000 A 
ATOM     29  O   UNL     1       4.120   1.291  -2.604  0.00  0.00    +0.000 OA
ATOM     30  C   UNL     1       2.257   1.183  -4.066  0.00  0.00    +0.000 A 
ATOM     31  H   UNL     1       5.427   0.410  -4.485  0.00  0.00    +0.000 HD
ENDBRANCH  18  21
ENDBRANCH   1  19
TORSDOF 7
