REMARK  Name = 
REMARK  5 active torsions:
REMARK  status: ('A' for Active; 'I' for Inactive)
REMARK    1  A    between atoms: N_1  and  C_2
REMARK    2  A    between atoms: C_2  and  C_3
REMARK    3  A    between atoms: C_6  and  O_7
REMARK    4  A    between atoms: O_7  and  C_8
REMARK    5  A    between atoms: C_8  and  C_9
REMARK                            x       y       z     vdW  Elec       q    Type
REMARK                         _______ _______ _______ _____ _____    ______ ____
ROOT
ATOM      1  C   UNL     1       2.791   1.053   0.982  0.00  0.00    +0.000 A 
ATOM      2  C   UNL     1       2.547   2.397   0.681  0.00  0.00    +0.000 A 
ATOM      3  C   UNL     1       2.886   3.389   1.600  0.00  0.00    +0.000 A 
ATOM      4  C   UNL     1       3.436   2.999   2.806  0.00  0.00    +0.000 A 
ATOM      5  N   UNL     1       3.704   1.715   3.128  0.00  0.00    +0.000 NA
ATOM      6  C   UNL     1       3.380   0.778   2.211  0.00  0.00    +0.000 A 
ENDROOT
BRANCH   1   7
ATOM      7  C   UNL     1       2.397  -0.059   0.052  0.00  0.00    +0.000 C 
BRANCH   7   8
ATOM      8  N   UNL     1       3.017   0.079  -1.259  0.00  0.00    +0.000 NA
ATOM      9  H   UNL     1       2.787  -0.737  -1.823  0.00  0.00    +0.000 HD
ATOM     10  H   UNL     1       4.031   0.075  -1.152  0.00  0.00    +0.000 HD
ENDBRANCH   7   8
ENDBRANCH   1   7
BRANCH   4  11
ATOM     11  O   UNL     1       3.738   3.997   3.716  0.00  0.00    +0.000 OA
BRANCH  11  12
ATOM     12  C   UNL     1       3.828   3.474   5.044  0.00  0.00    +0.000 C 
BRANCH  12  13
ATOM     13  C   UNL     1       4.173   4.559   6.041  0.00  0.00    +0.000 A 
ATOM     14  C   UNL     1       3.643   4.497   7.342  0.00  0.00    +0.000 A 
ATOM     15  C   UNL     1       4.018   5.432   8.308  0.00  0.00    +0.000 A 
ATOM     16  C   UNL     1       4.930   6.426   7.979  0.00  0.00    +0.000 A 
ATOM     17  F   UNL     1       5.300   7.315   8.910  0.00  0.00    +0.000 F 
ATOM     18  C   UNL     1       5.473   6.504   6.701  0.00  0.00    +0.000 A 
ATOM     19  C   UNL     1       5.100   5.569   5.734  0.00  0.00    +0.000 A 
ENDBRANCH  12  13
ENDBRANCH  11  12
ENDBRANCH   4  11
TORSDOF 5
