REMARK  Name = 
REMARK  5 active torsions:
REMARK  status: ('A' for Active; 'I' for Inactive)
REMARK    1  A    between atoms: C_2  and  C_4
REMARK    2  A    between atoms: C_7  and  N_8
REMARK    3  A    between atoms: N_8  and  C_9
REMARK    4  A    between atoms: C_9  and  C_10
REMARK    5  A    between atoms: C_14  and  C_15
REMARK                            x       y       z     vdW  Elec       q    Type
REMARK                         _______ _______ _______ _____ _____    ______ ____
ROOT
ATOM      1  C   UNL     1       4.396  -5.519   2.482  0.00  0.00    +0.000 C 
ENDROOT
BRANCH   1   2
ATOM      2  C   UNL     1       5.122  -6.528   3.342  0.00  0.00    +0.000 A 
ATOM      3  C   UNL     1       4.836  -7.881   3.204  0.00  0.00    +0.000 A 
ATOM      4  N   UNL     1       5.399  -8.861   3.941  0.00  0.00    +0.000 NA
ATOM      5  C   UNL     1       6.286  -8.474   4.886  0.00  0.00    +0.000 A 
ATOM      6  C   UNL     1       6.662  -7.154   5.143  0.00  0.00    +0.000 A 
ATOM      7  C   UNL     1       6.041  -6.178   4.343  0.00  0.00    +0.000 A 
BRANCH   6   8
ATOM      8  C   UNL     1       7.642  -6.807   6.190  0.00  0.00    +0.000 A 
ATOM      9  C   UNL     1       8.695  -7.681   6.535  0.00  0.00    +0.000 A 
ATOM     10  C   UNL     1       9.619  -7.358   7.530  0.00  0.00    +0.000 A 
ATOM     11  C   UNL     1       9.520  -6.146   8.201  0.00  0.00    +0.000 A 
ATOM     12  C   UNL     1       8.495  -5.271   7.872  0.00  0.00    +0.000 A 
ATOM     13  F   UNL     1       8.393  -4.101   8.516  0.00  0.00    +0.000 F 
ATOM     14  C   UNL     1       7.567  -5.589   6.887  0.00  0.00    +0.000 A 
ENDBRANCH   6   8
ENDBRANCH   1   2
BRANCH   1  15
ATOM     15  N   UNL     1       5.221  -4.336   2.247  0.00  0.00    +0.000 N 
ATOM     16  H   UNL     1       6.127  -4.587   1.859  0.00  0.00    +0.000 HD
BRANCH  15  20
ATOM     17  C   UNL     1       3.611  -1.271   0.009  0.00  0.00    +0.000 A 
ATOM     18  C   UNL     1       2.902  -2.449   0.208  0.00  0.00    +0.000 A 
ATOM     19  N   UNL     1       3.395  -3.498   0.930  0.00  0.00    +0.000 NA
ATOM     20  C   UNL     1       4.632  -3.343   1.446  0.00  0.00    +0.000 A 
ATOM     21  C   UNL     1       5.335  -2.148   1.219  0.00  0.00    +0.000 A 
ATOM     22  N   UNL     1       4.864  -1.093   0.500  0.00  0.00    +0.000 NA
BRANCH  17  24
ATOM     23  N   UNL     1       3.772   0.974  -0.917  0.00  0.00    +0.000 N 
ATOM     24  C   UNL     1       2.995  -0.145  -0.742  0.00  0.00    +0.000 C 
ATOM     25  O   UNL     1       1.859  -0.204  -1.190  0.00  0.00    +0.000 OA
ATOM     26  H   UNL     1       3.407   1.722  -1.487  0.00  0.00    +0.000 HD
ATOM     27  H   UNL     1       4.756   0.948  -0.686  0.00  0.00    +0.000 HD
ENDBRANCH  17  24
ENDBRANCH  15  20
ENDBRANCH   1  15
TORSDOF 5
