REMARK  Name = 
REMARK  5 active torsions:
REMARK  status: ('A' for Active; 'I' for Inactive)
REMARK    1  A    between atoms: N_1  and  C_2
REMARK    2  A    between atoms: C_2  and  C_3
REMARK    3  A    between atoms: C_6  and  C_7
REMARK    4  A    between atoms: C_7  and  N_8
REMARK    5  A    between atoms: C_13  and  C_14
REMARK                            x       y       z     vdW  Elec       q    Type
REMARK                         _______ _______ _______ _____ _____    ______ ____
ROOT
ATOM      1  N   UNL     1       6.301   4.430   0.163  0.00  0.00    +0.000 N 
ATOM      2  C   UNL     1       6.965   5.277  -0.696  0.00  0.00    +0.000 A 
ATOM      3  C   UNL     1       8.317   5.101  -0.508  0.00  0.00    +0.000 A 
ATOM      4  C   UNL     1       8.484   4.175   0.553  0.00  0.00    +0.000 A 
ATOM      5  C   UNL     1       9.596   3.628   1.217  0.00  0.00    +0.000 A 
ATOM      6  C   UNL     1       9.358   2.761   2.286  0.00  0.00    +0.000 A 
ATOM      7  C   UNL     1       8.035   2.458   2.605  0.00  0.00    +0.000 A 
ATOM      8  N   UNL     1       6.927   2.931   1.972  0.00  0.00    +0.000 NA
ATOM      9  C   UNL     1       7.213   3.788   0.971  0.00  0.00    +0.000 A 
ENDROOT
BRANCH   6  10
ATOM     10  C   UNL     1      10.439   2.168   3.112  0.00  0.00    +0.000 C 
ATOM     11  N   UNL     1      11.736   2.503   2.834  0.00  0.00    +0.000 N 
ATOM     12  O   UNL     1      10.188   1.403   4.036  0.00  0.00    +0.000 OA
ATOM     13  H   UNL     1      12.035   3.147   2.121  0.00  0.00    +0.000 HD
ATOM     14  H   UNL     1      12.448   2.104   3.433  0.00  0.00    +0.000 HD
ENDBRANCH   6  10
BRANCH   1  15
ATOM     15  C   UNL     1       4.855   4.240   0.172  0.00  0.00    +0.000 C 
BRANCH  15  19
ATOM     16  C   UNL     1       2.903   1.106  -0.680  0.00  0.00    +0.000 C 
ATOM     17  C   UNL     1       4.435   1.247  -0.706  0.00  0.00    +0.000 C 
ATOM     18  C   UNL     1       4.902   2.386  -1.607  0.00  0.00    +0.000 C 
ATOM     19  C   UNL     1       4.302   3.735  -1.185  0.00  0.00    +0.000 C 
ATOM     20  C   UNL     1       2.768   3.634  -1.188  0.00  0.00    +0.000 C 
ATOM     21  C   UNL     1       2.229   2.458  -0.373  0.00  0.00    +0.000 C 
BRANCH  16  22
ATOM     22  C   UNL     1       2.348   0.471  -1.972  0.00  0.00    +0.000 C 
BRANCH  22  23
ATOM     23  N   UNL     1       2.887  -0.873  -2.171  0.00  0.00    +0.000 NA
ATOM     24  H   UNL     1       2.478  -1.294  -3.002  0.00  0.00    +0.000 HD
ATOM     25  H   UNL     1       2.628  -1.467  -1.385  0.00  0.00    +0.000 HD
ENDBRANCH  22  23
ENDBRANCH  16  22
ENDBRANCH  15  19
ENDBRANCH   1  15
TORSDOF 5
