REMARK  Name = 
REMARK  7 active torsions:
REMARK  status: ('A' for Active; 'I' for Inactive)
REMARK    1  A    between atoms: C_1  and  C_2
REMARK    2  A    between atoms: C_2  and  C_3
REMARK    3  A    between atoms: C_7  and  C_8
REMARK    4  A    between atoms: C_8  and  C_9
REMARK    5  A    between atoms: C_9  and  N_10
REMARK    6  A    between atoms: C_14  and  C_15
REMARK    7  A    between atoms: C_23  and  O_24
REMARK                            x       y       z     vdW  Elec       q    Type
REMARK                         _______ _______ _______ _____ _____    ______ ____
ROOT
ATOM      1  C   UNL     1       2.924   0.421   1.307  0.00  0.00    +0.000 A 
ATOM      2  C   UNL     1       2.681   1.695   1.841  0.00  0.00    +0.000 A 
ATOM      3  C   UNL     1       2.999   1.992   3.171  0.00  0.00    +0.000 A 
ATOM      4  C   UNL     1       3.555   1.018   4.003  0.00  0.00    +0.000 A 
ATOM      5  C   UNL     1       3.822  -0.261   3.508  0.00  0.00    +0.000 A 
ATOM      6  C   UNL     1       3.527  -0.519   2.156  0.00  0.00    +0.000 A 
ENDROOT
BRANCH   1   8
ATOM      7  C   UNL     1       0.908   0.137  -0.107  0.00  0.00    +0.000 C 
ATOM      8  C   UNL     1       2.454   0.035  -0.116  0.00  0.00    +0.000 C 
ATOM      9  C   UNL     1       3.067   1.000  -1.164  0.00  0.00    +0.000 C 
ATOM     10  C   UNL     1       2.720   0.634  -2.609  0.00  0.00    +0.000 C 
ATOM     11  C   UNL     1       3.088  -0.807  -2.950  0.00  0.00    +0.000 C 
ATOM     12  C   UNL     1       2.496  -1.796  -1.954  0.00  0.00    +0.000 C 
ATOM     13  C   UNL     1       2.852  -1.421  -0.520  0.00  0.00    +0.000 C 
BRANCH  11  14
ATOM     14  O   UNL     1       2.626  -1.121  -4.259  0.00  0.00    +0.000 OA
ATOM     15  H   UNL     1       1.654  -1.095  -4.249  0.00  0.00    +0.000 HD
ENDBRANCH  11  14
ENDBRANCH   1   8
BRANCH   5  16
ATOM     16  C   UNL     1       4.361  -1.345   4.432  0.00  0.00    +0.000 C 
BRANCH  16  17
ATOM     17  C   UNL     1       4.594  -2.692   3.730  0.00  0.00    +0.000 C 
BRANCH  17  18
ATOM     18  N   UNL     1       5.063  -3.756   4.624  0.00  0.00    +0.000 N 
ATOM     19  C   UNL     1       5.262  -4.962   3.904  0.00  0.00    +0.000 A 
ATOM     20  C   UNL     1       5.707  -6.114   4.566  0.00  0.00    +0.000 A 
ATOM     21  N   UNL     1       5.933  -7.311   3.956  0.00  0.00    +0.000 NA
ATOM     22  C   UNL     1       5.703  -7.310   2.614  0.00  0.00    +0.000 A 
ATOM     23  C   UNL     1       5.273  -6.184   1.938  0.00  0.00    +0.000 A 
ATOM     24  N   UNL     1       5.050  -5.002   2.567  0.00  0.00    +0.000 NA
ATOM     25  H   UNL     1       4.403  -3.934   5.378  0.00  0.00    +0.000 HD
BRANCH  22  26
ATOM     26  C   UNL     1       5.925  -8.571   1.855  0.00  0.00    +0.000 C 
ATOM     27  N   UNL     1       6.364  -9.639   2.588  0.00  0.00    +0.000 N 
ATOM     28  O   UNL     1       5.730  -8.654   0.651  0.00  0.00    +0.000 OA
ATOM     29  H   UNL     1       6.540  -9.542   3.582  0.00  0.00    +0.000 HD
ATOM     30  H   UNL     1       6.551 -10.514   2.119  0.00  0.00    +0.000 HD
ENDBRANCH  22  26
ENDBRANCH  17  18
ENDBRANCH  16  17
ENDBRANCH   5  16
TORSDOF 6
