REMARK  Name = 
REMARK  6 active torsions:
REMARK  status: ('A' for Active; 'I' for Inactive)
REMARK    1  A    between atoms: C_2  and  C_3
REMARK    2  A    between atoms: N_7  and  C_8
REMARK    3  A    between atoms: C_8  and  C_9
REMARK    4  A    between atoms: C_13  and  C_14
REMARK    5  A    between atoms: C_18  and  O_19
REMARK    6  A    between atoms: O_19  and  C_20
REMARK                            x       y       z     vdW  Elec       q    Type
REMARK                         _______ _______ _______ _____ _____    ______ ____
ROOT
ATOM      1  C   UNL     1      -5.510   0.123   0.230  0.00  0.00    +0.000 A 
ATOM      2  C   UNL     1      -5.767  -0.903  -0.679  0.00  0.00    +0.000 A 
ATOM      3  C   UNL     1      -6.320  -2.092  -0.224  0.00  0.00    +0.000 A 
ATOM      4  C   UNL     1      -6.639  -2.221   1.124  0.00  0.00    +0.000 A 
ATOM      5  C   UNL     1      -6.459  -1.132   1.972  0.00  0.00    +0.000 A 
ATOM      6  N   UNL     1      -5.921   0.028   1.520  0.00  0.00    +0.000 NA
ENDROOT
BRANCH   5   7
ATOM      7  C   UNL     1      -6.748  -1.159   3.423  0.00  0.00    +0.000 A 
ATOM      8  C   UNL     1      -7.648  -2.066   4.005  0.00  0.00    +0.000 A 
ATOM      9  C   UNL     1      -7.884  -2.069   5.384  0.00  0.00    +0.000 A 
ATOM     10  C   UNL     1      -7.236  -1.153   6.215  0.00  0.00    +0.000 A 
ATOM     11  C   UNL     1      -6.358  -0.225   5.664  0.00  0.00    +0.000 A 
ATOM     12  C   UNL     1      -6.110  -0.247   4.289  0.00  0.00    +0.000 A 
BRANCH  11  13
ATOM     13  O   UNL     1      -5.660   0.722   6.359  0.00  0.00    +0.000 OA
BRANCH  13  14
ATOM     14  C   UNL     1      -6.269   1.173   7.555  0.00  0.00    +0.000 C 
ATOM     15  F   UNL     1      -5.964   0.310   8.555  0.00  0.00    +0.000 F 
ATOM     16  F   UNL     1      -5.696   2.361   7.877  0.00  0.00    +0.000 F 
ENDBRANCH  13  14
ENDBRANCH  11  13
ENDBRANCH   5   7
BRANCH   1  17
ATOM     17  C   UNL     1      -4.519   1.240  -0.129  0.00  0.00    +0.000 C 
ATOM     18  C   UNL     1      -3.476   1.648   0.898  0.00  0.00    +0.000 C 
ATOM     19  C   UNL     1      -3.076   0.721  -0.201  0.00  0.00    +0.000 C 
BRANCH  17  24
ATOM     20  C   UNL     1      -7.914   5.051  -1.365  0.00  0.00    +0.000 A 
ATOM     21  C   UNL     1      -7.769   4.348  -0.170  0.00  0.00    +0.000 A 
ATOM     22  C   UNL     1      -6.763   3.378  -0.057  0.00  0.00    +0.000 A 
ATOM     23  C   UNL     1      -5.926   3.135  -1.140  0.00  0.00    +0.000 A 
ATOM     24  N   UNL     1      -4.915   2.186  -1.170  0.00  0.00    +0.000 N 
ATOM     25  N   UNL     1      -6.056   3.825  -2.296  0.00  0.00    +0.000 NA
ATOM     26  C   UNL     1      -7.034   4.757  -2.389  0.00  0.00    +0.000 A 
ATOM     27  H   UNL     1      -4.439   2.218  -2.059  0.00  0.00    +0.000 HD
BRANCH  20  29
ATOM     28  N   UNL     1      -9.757   6.832  -1.726  0.00  0.00    +0.000 NA
ATOM     29  C   UNL     1      -8.933   6.036  -1.553  0.00  0.00    +0.000 C 
ENDBRANCH  20  29
ENDBRANCH  17  24
ENDBRANCH   1  17
TORSDOF 6
