REMARK  Name = 
REMARK  8 active torsions:
REMARK  status: ('A' for Active; 'I' for Inactive)
REMARK    1  A    between atoms: N_1  and  C_2
REMARK    2  A    between atoms: C_2  and  C_3
REMARK    3  A    between atoms: C_3  and  N_4
REMARK    4  A    between atoms: C_3  and  C_17
REMARK    5  A    between atoms: C_5  and  C_7
REMARK    6  A    between atoms: C_20  and  C_21
REMARK    7  A    between atoms: C_21  and  N_22
REMARK    8  A    between atoms: N_22  and  C_23
REMARK                            x       y       z     vdW  Elec       q    Type
REMARK                         _______ _______ _______ _____ _____    ______ ____
ROOT
ATOM      1  C   UNL     1       2.897  -0.161  -1.389  0.00  0.00    +0.000 C 
ENDROOT
BRANCH   1   2
ATOM      2  C   UNL     1       4.424  -0.100  -1.456  0.00  0.00    +0.000 A 
ATOM      3  C   UNL     1       5.084  -0.310  -2.678  0.00  0.00    +0.000 A 
ATOM      4  C   UNL     1       6.484  -0.270  -2.760  0.00  0.00    +0.000 A 
ATOM      5  C   UNL     1       7.258  -0.029  -1.619  0.00  0.00    +0.000 A 
ATOM      6  C   UNL     1       6.605   0.164  -0.398  0.00  0.00    +0.000 A 
ATOM      7  C   UNL     1       5.213   0.112  -0.315  0.00  0.00    +0.000 A 
BRANCH   5   8
ATOM      8  C   UNL     1       8.767  -0.053  -1.658  0.00  0.00    +0.000 C 
BRANCH   8   9
ATOM      9  N   UNL     1       9.342   1.031  -2.453  0.00  0.00    +0.000 NA
ATOM     10  H   UNL     1       9.015   1.934  -2.111  0.00  0.00    +0.000 HD
BRANCH   9  11
ATOM     11  C   UNL     1      10.815   0.979  -2.463  0.00  0.00    +0.000 C 
ATOM     12  C   UNL     1      11.475   1.309  -1.134  0.00  0.00    +0.000 C 
ATOM     13  C   UNL     1      11.597   2.816  -1.150  0.00  0.00    +0.000 C 
ATOM     14  O   UNL     1      11.663   3.224  -2.519  0.00  0.00    +0.000 OA
ATOM     15  C   UNL     1      11.409   2.079  -3.350  0.00  0.00    +0.000 C 
ENDBRANCH   9  11
ENDBRANCH   8   9
ENDBRANCH   5   8
ENDBRANCH   1   2
BRANCH   1  16
ATOM     16  N   UNL     1       2.503  -1.551  -1.202  0.00  0.00    +0.000 N 
ATOM     17  C   UNL     1       1.335  -2.082  -1.683  0.00  0.00    +0.000 C 
ATOM     18  O   UNL     1       0.566  -1.463  -2.407  0.00  0.00    +0.000 OA
ATOM     19  H   UNL     1       3.045  -2.070  -0.523  0.00  0.00    +0.000 HD
BRANCH  17  20
ATOM     20  C   UNL     1       1.064  -3.474  -1.299  0.00  0.00    +0.000 A 
ATOM     21  C   UNL     1       0.225  -4.255  -2.082  0.00  0.00    +0.000 A 
ATOM     22  S   UNL     1       0.056  -5.853  -1.512  0.00  0.00    +0.000 S 
ATOM     23  C   UNL     1       1.051  -5.540  -0.169  0.00  0.00    +0.000 A 
ATOM     24  N   UNL     1       1.304  -6.507   0.753  0.00  0.00    +0.000 NA
ATOM     25  C   UNL     1       2.044  -6.124   1.740  0.00  0.00    +0.000 A 
ATOM     26  N   UNL     1       2.551  -4.858   1.890  0.00  0.00    +0.000 N 
ATOM     27  C   UNL     1       2.356  -3.862   0.965  0.00  0.00    +0.000 A 
ATOM     28  O   UNL     1       2.879  -2.761   1.098  0.00  0.00    +0.000 OA
ATOM     29  C   UNL     1       1.520  -4.240  -0.161  0.00  0.00    +0.000 A 
ATOM     30  H   UNL     1       3.133  -4.628   2.683  0.00  0.00    +0.000 HD
ENDBRANCH  17  20
ENDBRANCH   1  16
BRANCH   1  31
ATOM     31  C   UNL     1       2.315   0.753  -0.261  0.00  0.00    +0.000 C 
BRANCH  31  32
ATOM     32  N   UNL     1       0.855   0.797  -0.152  0.00  0.00    +0.000 NA
ATOM     33  H   UNL     1       0.595   1.243   0.725  0.00  0.00    +0.000 HD
ATOM     34  H   UNL     1       0.491  -0.155  -0.115  0.00  0.00    +0.000 HD
ENDBRANCH  31  32
ENDBRANCH   1  31
TORSDOF 8
