REMARK  Name = 
REMARK  6 active torsions:
REMARK  status: ('A' for Active; 'I' for Inactive)
REMARK    1  A    between atoms: C_1  and  C_2
REMARK    2  A    between atoms: C_2  and  C_3
REMARK    3  A    between atoms: C_2  and  N_4
REMARK    4  A    between atoms: N_4  and  C_5
REMARK    5  A    between atoms: C_5  and  C_6
REMARK    6  A    between atoms: C_15  and  C_16
REMARK                            x       y       z     vdW  Elec       q    Type
REMARK                         _______ _______ _______ _____ _____    ______ ____
ROOT
ATOM      1  N   UNL     1       3.089   0.560   1.357  0.00  0.00    +0.000 N 
ATOM      2  C   UNL     1       4.438   0.472   1.757  0.00  0.00    +0.000 A 
ATOM      3  C   UNL     1       4.949   1.355   2.723  0.00  0.00    +0.000 A 
ATOM      4  N   UNL     1       6.239   1.366   3.156  0.00  0.00    +0.000 NA
ATOM      5  C   UNL     1       7.034   0.435   2.563  0.00  0.00    +0.000 A 
ATOM      6  C   UNL     1       6.557  -0.451   1.616  0.00  0.00    +0.000 A 
ATOM      7  N   UNL     1       5.262  -0.448   1.207  0.00  0.00    +0.000 NA
ENDROOT
BRANCH   5   8
ATOM      8  C   UNL     1       8.470   0.402   2.946  0.00  0.00    +0.000 C 
ATOM      9  N   UNL     1       8.855   1.344   3.865  0.00  0.00    +0.000 N 
ATOM     10  O   UNL     1       9.260  -0.400   2.471  0.00  0.00    +0.000 OA
ATOM     11  H   UNL     1       8.178   2.013   4.214  0.00  0.00    +0.000 HD
ATOM     12  H   UNL     1       9.824   1.402   4.141  0.00  0.00    +0.000 HD
ENDBRANCH   5   8
BRANCH   1  14
ATOM     13  C   UNL     1       3.649   0.676  -1.101  0.00  0.00    +0.000 C 
ATOM     14  C   UNL     1       2.765   0.050  -0.008  0.00  0.00    +0.000 C 
ATOM     15  C   UNL     1       2.728  -1.477  -0.131  0.00  0.00    +0.000 C 
ENDBRANCH   1  14
BRANCH   1  16
ATOM     16  C   UNL     1       2.191   0.135   2.453  0.00  0.00    +0.000 C 
BRANCH  16  17
ATOM     17  C   UNL     1       1.007   1.050   2.699  0.00  0.00    +0.000 A 
ATOM     18  C   UNL     1       0.772   2.235   1.998  0.00  0.00    +0.000 A 
ATOM     19  C   UNL     1      -0.366   2.975   2.295  0.00  0.00    +0.000 A 
ATOM     20  N   UNL     1      -1.267   2.632   3.240  0.00  0.00    +0.000 NA
ATOM     21  C   UNL     1      -1.017   1.501   3.929  0.00  0.00    +0.000 A 
ATOM     22  C   UNL     1       0.089   0.695   3.702  0.00  0.00    +0.000 A 
ENDBRANCH  16  17
ENDBRANCH   1  16
TORSDOF 4
