REMARK  Name = 
REMARK  7 active torsions:
REMARK  status: ('A' for Active; 'I' for Inactive)
REMARK    1  A    between atoms: C_2  and  C_19
REMARK    2  A    between atoms: N_3  and  C_4
REMARK    3  A    between atoms: C_4  and  C_5
REMARK    4  A    between atoms: C_8  and  C_9
REMARK    5  A    between atoms: C_9  and  C_10
REMARK    6  A    between atoms: C_10  and  C_11
REMARK    7  A    between atoms: C_11  and  N_12
REMARK                            x       y       z     vdW  Elec       q    Type
REMARK                         _______ _______ _______ _____ _____    ______ ____
ROOT
ATOM      1  C   UNL     1       2.230   1.560  -1.863  0.00  0.00    +0.000 C 
ENDROOT
BRANCH   1   2
ATOM      2  C   UNL     1       3.179   2.342  -2.733  0.00  0.00    +0.000 A 
ATOM      3  C   UNL     1       3.016   3.723  -2.890  0.00  0.00    +0.000 A 
ATOM      4  C   UNL     1       3.874   4.450  -3.717  0.00  0.00    +0.000 A 
ATOM      5  C   UNL     1       4.904   3.802  -4.412  0.00  0.00    +0.000 A 
ATOM      6  C   UNL     1       5.058   2.420  -4.270  0.00  0.00    +0.000 A 
ATOM      7  C   UNL     1       4.201   1.693  -3.439  0.00  0.00    +0.000 A 
BRANCH   5   8
ATOM      8  C   UNL     1       5.842   4.583  -5.300  0.00  0.00    +0.000 C 
BRANCH   8   9
ATOM      9  C   UNL     1       6.982   5.263  -4.541  0.00  0.00    +0.000 C 
BRANCH   9  10
ATOM     10  C   UNL     1       7.962   4.299  -3.851  0.00  0.00    +0.000 C 
BRANCH  10  11
ATOM     11  N   UNL     1       9.049   5.043  -3.209  0.00  0.00    +0.000 NA
ATOM     12  C   UNL     1       8.595   5.935  -2.144  0.00  0.00    +0.000 C 
ATOM     13  C   UNL     1       9.871   6.139  -1.360  0.00  0.00    +0.000 C 
ATOM     14  N   UNL     1      10.457   4.794  -1.334  0.00  0.00    +0.000 NA
ATOM     15  C   UNL     1      10.079   4.197  -2.619  0.00  0.00    +0.000 C 
ATOM     16  H   UNL     1       9.980   4.262  -0.609  0.00  0.00    +0.000 HD
ENDBRANCH  10  11
ENDBRANCH   9  10
ENDBRANCH   8   9
ENDBRANCH   5   8
ENDBRANCH   1   2
BRANCH   1  19
ATOM     17  O   UNL     1      -0.295   2.780  -2.129  0.00  0.00    +0.000 OA
ATOM     18  C   UNL     1      -0.059   1.754  -2.759  0.00  0.00    +0.000 C 
ATOM     19  N   UNL     1       1.120   1.063  -2.632  0.00  0.00    +0.000 N 
ATOM     20  H   UNL     1       1.343   0.348  -3.314  0.00  0.00    +0.000 HD
BRANCH  18  21
ATOM     21  C   UNL     1      -1.061   1.153  -3.650  0.00  0.00    +0.000 A 
ATOM     22  C   UNL     1      -2.405   1.453  -3.477  0.00  0.00    +0.000 A 
ATOM     23  S   UNL     1      -3.434   0.637  -4.567  0.00  0.00    +0.000 S 
ATOM     24  C   UNL     1      -2.114  -0.106  -5.342  0.00  0.00    +0.000 A 
ATOM     25  N   UNL     1      -2.302  -0.936  -6.406  0.00  0.00    +0.000 NA
ATOM     26  C   UNL     1      -1.212  -1.392  -6.925  0.00  0.00    +0.000 A 
ATOM     27  N   UNL     1       0.048  -1.099  -6.478  0.00  0.00    +0.000 N 
ATOM     28  C   UNL     1       0.284  -0.327  -5.366  0.00  0.00    +0.000 A 
ATOM     29  O   UNL     1       1.418  -0.192  -4.918  0.00  0.00    +0.000 OA
ATOM     30  C   UNL     1      -0.907   0.247  -4.765  0.00  0.00    +0.000 A 
ATOM     31  H   UNL     1       0.861  -1.509  -6.914  0.00  0.00    +0.000 HD
ENDBRANCH  18  21
ENDBRANCH   1  19
TORSDOF 7
