REMARK  Name = 
REMARK  4 active torsions:
REMARK  status: ('A' for Active; 'I' for Inactive)
REMARK    1  A    between atoms: C_2  and  C_4
REMARK    2  A    between atoms: N_8  and  C_9
REMARK    3  A    between atoms: C_9  and  C_10
REMARK    4  A    between atoms: C_14  and  C_15
REMARK                            x       y       z     vdW  Elec       q    Type
REMARK                         _______ _______ _______ _____ _____    ______ ____
ROOT
ATOM      1  C   UNL     1       5.071   1.366  -5.844  0.00  0.00    +0.000 C 
ENDROOT
BRANCH   1   6
ATOM      2  C   UNL     1       3.618   1.469  -0.931  0.00  0.00    +0.000 A 
ATOM      3  C   UNL     1       2.878   1.479  -2.109  0.00  0.00    +0.000 A 
ATOM      4  C   UNL     1       3.549   1.473  -3.330  0.00  0.00    +0.000 A 
ATOM      5  C   UNL     1       4.942   1.461  -3.369  0.00  0.00    +0.000 A 
ATOM      6  N   UNL     1       5.657   1.459  -4.533  0.00  0.00    +0.000 N 
ATOM      7  N   UNL     1       5.666   1.471  -2.230  0.00  0.00    +0.000 NA
ATOM      8  C   UNL     1       5.000   1.484  -1.043  0.00  0.00    +0.000 A 
ATOM      9  H   UNL     1       6.662   1.423  -4.417  0.00  0.00    +0.000 HD
BRANCH   2  11
ATOM     10  N   UNL     1       1.742   0.919   0.505  0.00  0.00    +0.000 N 
ATOM     11  C   UNL     1       2.994   1.462   0.405  0.00  0.00    +0.000 C 
ATOM     12  O   UNL     1       3.577   1.894   1.390  0.00  0.00    +0.000 OA
ATOM     13  H   UNL     1       1.365   0.825   1.439  0.00  0.00    +0.000 HD
ATOM     14  H   UNL     1       1.340   0.340  -0.219  0.00  0.00    +0.000 HD
ENDBRANCH   2  11
ENDBRANCH   1   6
BRANCH   1  15
ATOM     15  C   UNL     1       6.138   1.335  -6.908  0.00  0.00    +0.000 A 
ATOM     16  C   UNL     1       6.623   2.531  -7.450  0.00  0.00    +0.000 A 
ATOM     17  C   UNL     1       7.584   2.505  -8.455  0.00  0.00    +0.000 A 
ATOM     18  C   UNL     1       8.098   1.285  -8.897  0.00  0.00    +0.000 A 
ATOM     19  C   UNL     1       7.685   0.064  -8.331  0.00  0.00    +0.000 A 
ATOM     20  C   UNL     1       6.675   0.113  -7.353  0.00  0.00    +0.000 A 
BRANCH  19  21
ATOM     21  C   UNL     1       8.327  -1.213  -8.705  0.00  0.00    +0.000 A 
ATOM     22  C   UNL     1       9.690  -1.286  -9.011  0.00  0.00    +0.000 A 
ATOM     23  C   UNL     1      10.269  -2.519  -9.312  0.00  0.00    +0.000 A 
ATOM     24  C   UNL     1       9.477  -3.655  -9.298  0.00  0.00    +0.000 A 
ATOM     25 CL   UNL     1      10.152  -5.192  -9.647  0.00  0.00    +0.000 Cl
ATOM     26  C   UNL     1       8.134  -3.511  -8.986  0.00  0.00    +0.000 A 
ATOM     27  N   UNL     1       7.544  -2.324  -8.688  0.00  0.00    +0.000 NA
ENDBRANCH  19  21
ENDBRANCH   1  15
TORSDOF 4
