REMARK  Name = 
REMARK  6 active torsions:
REMARK  status: ('A' for Active; 'I' for Inactive)
REMARK    1  A    between atoms: C_2  and  C_4
REMARK    2  A    between atoms: C_7  and  O_8
REMARK    3  A    between atoms: O_8  and  C_9
REMARK    4  A    between atoms: C_9  and  C_10
REMARK    5  A    between atoms: C_10  and  C_13
REMARK    6  A    between atoms: C_17  and  C_18
REMARK                            x       y       z     vdW  Elec       q    Type
REMARK                         _______ _______ _______ _____ _____    ______ ____
ROOT
ATOM      1  C   UNL     1       5.809  -7.041  -0.841  0.00  0.00    +0.000 C 
ATOM      2  F   UNL     1       6.223  -7.363   0.422  0.00  0.00    +0.000 F 
ATOM      3  F   UNL     1       4.726  -6.226  -0.672  0.00  0.00    +0.000 F 
ENDROOT
BRANCH   1   4
ATOM      4  C   UNL     1       5.465  -8.282  -1.643  0.00  0.00    +0.000 A 
ATOM      5  C   UNL     1       6.201  -9.456  -1.437  0.00  0.00    +0.000 A 
ATOM      6  C   UNL     1       5.915 -10.602  -2.165  0.00  0.00    +0.000 A 
ATOM      7  C   UNL     1       4.874 -10.593  -3.092  0.00  0.00    +0.000 A 
ATOM      8  C   UNL     1       4.088  -9.452  -3.305  0.00  0.00    +0.000 A 
ATOM      9  C   UNL     1       4.413  -8.287  -2.582  0.00  0.00    +0.000 A 
BRANCH   8  10
ATOM     10  C   UNL     1       2.858  -9.468  -4.216  0.00  0.00    +0.000 C 
ATOM     11  C   UNL     1       1.580  -9.809  -3.426  0.00  0.00    +0.000 C 
ATOM     12  C   UNL     1       1.478 -11.304  -3.120  0.00  0.00    +0.000 C 
ATOM     13  C   UNL     1       1.678 -12.173  -4.363  0.00  0.00    +0.000 C 
ATOM     14  N   UNL     1       2.867 -11.826  -5.135  0.00  0.00    +0.000 NA
ATOM     15  C   UNL     1       2.940 -10.396  -5.454  0.00  0.00    +0.000 C 
ATOM     16  H   UNL     1       2.904 -12.378  -5.991  0.00  0.00    +0.000 HD
ENDBRANCH   8  10
ENDBRANCH   1   4
BRANCH   1  17
ATOM     17  C   UNL     1       6.929  -6.243  -1.530  0.00  0.00    +0.000 C 
BRANCH  17  18
ATOM     18  O   UNL     1       7.248  -5.073  -0.760  0.00  0.00    +0.000 OA
BRANCH  18  22
ATOM     19  C   UNL     1      10.201  -2.418  -2.029  0.00  0.00    +0.000 A 
ATOM     20  C   UNL     1       9.937  -3.542  -2.814  0.00  0.00    +0.000 A 
ATOM     21  C   UNL     1       8.953  -4.460  -2.423  0.00  0.00    +0.000 A 
ATOM     22  C   UNL     1       8.231  -4.257  -1.246  0.00  0.00    +0.000 A 
ATOM     23  C   UNL     1       8.508  -3.137  -0.456  0.00  0.00    +0.000 A 
ATOM     24  C   UNL     1       9.495  -2.222  -0.840  0.00  0.00    +0.000 A 
BRANCH  19  26
ATOM     25  N   UNL     1      11.509  -1.292  -3.749  0.00  0.00    +0.000 N 
ATOM     26  C   UNL     1      11.239  -1.426  -2.415  0.00  0.00    +0.000 C 
ATOM     27  O   UNL     1      11.807  -0.728  -1.581  0.00  0.00    +0.000 OA
ATOM     28  H   UNL     1      12.137  -0.541  -4.004  0.00  0.00    +0.000 HD
ATOM     29  H   UNL     1      10.888  -1.648  -4.463  0.00  0.00    +0.000 HD
ENDBRANCH  19  26
ENDBRANCH  18  22
ENDBRANCH  17  18
ENDBRANCH   1  17
TORSDOF 6
