REMARK  Name = 
REMARK  5 active torsions:
REMARK  status: ('A' for Active; 'I' for Inactive)
REMARK    1  A    between atoms: C_2  and  C_4
REMARK    2  A    between atoms: C_7  and  O_8
REMARK    3  A    between atoms: O_8  and  C_9
REMARK    4  A    between atoms: C_9  and  C_10
REMARK    5  A    between atoms: C_19  and  O_20
REMARK                            x       y       z     vdW  Elec       q    Type
REMARK                         _______ _______ _______ _____ _____    ______ ____
ROOT
ATOM      1  C   UNL     1       2.783   1.804   0.354  0.00  0.00    +0.000 A 
ATOM      2  C   UNL     1       3.914   1.060   0.700  0.00  0.00    +0.000 A 
ATOM      3  C   UNL     1       4.767   1.506   1.713  0.00  0.00    +0.000 A 
ATOM      4  C   UNL     1       4.498   2.698   2.389  0.00  0.00    +0.000 A 
ATOM      5  C   UNL     1       3.383   3.457   2.045  0.00  0.00    +0.000 A 
ATOM      6  C   UNL     1       2.527   3.007   1.032  0.00  0.00    +0.000 A 
ENDROOT
BRANCH   1   8
ATOM      7  N   UNL     1       0.625   1.670  -0.780  0.00  0.00    +0.000 N 
ATOM      8  C   UNL     1       1.929   1.273  -0.747  0.00  0.00    +0.000 C 
ATOM      9  O   UNL     1       2.370   0.491  -1.583  0.00  0.00    +0.000 OA
ATOM     10  H   UNL     1       0.066   1.402  -1.577  0.00  0.00    +0.000 HD
ATOM     11  H   UNL     1       0.311   2.427  -0.183  0.00  0.00    +0.000 HD
ENDBRANCH   1   8
BRANCH   6  12
ATOM     12  O   UNL     1       1.443   3.780   0.698  0.00  0.00    +0.000 OA
ATOM     13  H   UNL     1       1.582   4.675   1.055  0.00  0.00    +0.000 HD
ENDBRANCH   6  12
BRANCH   4  14
ATOM     14  O   UNL     1       5.418   3.046   3.342  0.00  0.00    +0.000 OA
BRANCH  14  15
ATOM     15  C   UNL     1       5.028   3.877   4.467  0.00  0.00    +0.000 C 
ATOM     16  C   UNL     1       5.184   3.090   5.768  0.00  0.00    +0.000 C 
ATOM     17  C   UNL     1       3.827   3.506   5.321  0.00  0.00    +0.000 C 
BRANCH  15  18
ATOM     18  C   UNL     1       5.537   5.311   4.468  0.00  0.00    +0.000 A 
ATOM     19  C   UNL     1       4.665   6.415   4.459  0.00  0.00    +0.000 A 
ATOM     20  C   UNL     1       5.141   7.727   4.554  0.00  0.00    +0.000 A 
ATOM     21  C   UNL     1       6.508   7.966   4.644  0.00  0.00    +0.000 A 
ATOM     22  C   UNL     1       7.397   6.896   4.618  0.00  0.00    +0.000 A 
ATOM     23  C   UNL     1       6.914   5.587   4.528  0.00  0.00    +0.000 A 
ENDBRANCH  15  18
ENDBRANCH  14  15
ENDBRANCH   4  14
TORSDOF 5
