REMARK  Name = 
REMARK  9 active torsions:
REMARK  status: ('A' for Active; 'I' for Inactive)
REMARK    1  A    between atoms: C_1  and  C_2
REMARK    2  A    between atoms: C_2  and  N_3
REMARK    3  A    between atoms: C_2  and  C_20
REMARK    4  A    between atoms: N_3  and  C_4
REMARK    5  A    between atoms: C_4  and  C_5
REMARK    6  A    between atoms: C_8  and  C_9
REMARK    7  A    between atoms: C_9  and  O_10
REMARK    8  A    between atoms: O_10  and  C_11
REMARK    9  A    between atoms: C_11  and  C_12
REMARK                            x       y       z     vdW  Elec       q    Type
REMARK                         _______ _______ _______ _____ _____    ______ ____
ROOT
ATOM      1  C   UNL     1       1.774  -1.160  -4.394  0.00  0.00    +0.000 C 
ENDROOT
BRANCH   1   2
ATOM      2  C   UNL     1       3.027  -1.093  -3.484  0.00  0.00    +0.000 C 
ATOM      3  C   UNL     1       3.992  -2.271  -3.714  0.00  0.00    +0.000 C 
ATOM      4  C   UNL     1       4.713  -2.179  -5.059  0.00  0.00    +0.000 C 
ATOM      5  C   UNL     1       5.451  -0.843  -5.253  0.00  0.00    +0.000 C 
ATOM      6  C   UNL     1       4.499   0.337  -5.011  0.00  0.00    +0.000 C 
ATOM      7  C   UNL     1       3.777   0.242  -3.666  0.00  0.00    +0.000 C 
BRANCH   5   8
ATOM      8  C   UNL     1       6.715  -0.732  -4.381  0.00  0.00    +0.000 C 
BRANCH   8   9
ATOM      9  O   UNL     1       7.600  -1.799  -4.714  0.00  0.00    +0.000 OA
BRANCH   9  10
ATOM     10  C   UNL     1       8.804  -1.764  -3.953  0.00  0.00    +0.000 C 
BRANCH  10  11
ATOM     11  C   UNL     1       9.669  -2.914  -4.391  0.00  0.00    +0.000 A 
ATOM     12  C   UNL     1      10.090  -3.017  -5.720  0.00  0.00    +0.000 A 
ATOM     13  C   UNL     1      10.896  -4.084  -6.085  0.00  0.00    +0.000 A 
ATOM     14  N   UNL     1      11.308  -5.041  -5.228  0.00  0.00    +0.000 NA
ATOM     15  C   UNL     1      10.883  -4.931  -3.951  0.00  0.00    +0.000 A 
ATOM     16  C   UNL     1      10.075  -3.901  -3.490  0.00  0.00    +0.000 A 
ENDBRANCH  10  11
ENDBRANCH   9  10
ENDBRANCH   8   9
ENDBRANCH   5   8
ENDBRANCH   1   2
BRANCH   1  17
ATOM     17  N   UNL     1       0.981  -2.360  -4.117  0.00  0.00    +0.000 NA
ATOM     18  H   UNL     1       1.574  -3.182  -4.229  0.00  0.00    +0.000 HD
BRANCH  17  20
ATOM     19  C   UNL     1      -1.196  -1.422  -4.921  0.00  0.00    +0.000 C 
ATOM     20  C   UNL     1      -0.153  -2.535  -5.037  0.00  0.00    +0.000 C 
BRANCH  20  21
ATOM     21  C   UNL     1      -0.751  -3.885  -4.692  0.00  0.00    +0.000 A 
ATOM     22  C   UNL     1      -1.347  -4.180  -3.474  0.00  0.00    +0.000 A 
ATOM     23  S   UNL     1      -1.870  -5.798  -3.351  0.00  0.00    +0.000 S 
ATOM     24  C   UNL     1      -1.310  -6.158  -4.916  0.00  0.00    +0.000 A 
ATOM     25  N   UNL     1      -1.419  -7.412  -5.430  0.00  0.00    +0.000 NA
ATOM     26  C   UNL     1      -0.965  -7.535  -6.631  0.00  0.00    +0.000 A 
ATOM     27  N   UNL     1      -0.421  -6.517  -7.375  0.00  0.00    +0.000 N 
ATOM     28  C   UNL     1      -0.286  -5.234  -6.899  0.00  0.00    +0.000 A 
ATOM     29  O   UNL     1       0.197  -4.342  -7.594  0.00  0.00    +0.000 OA
ATOM     30  C   UNL     1      -0.764  -5.051  -5.541  0.00  0.00    +0.000 A 
ATOM     31  H   UNL     1      -0.107  -6.678  -8.320  0.00  0.00    +0.000 HD
ENDBRANCH  20  21
ENDBRANCH  17  20
ENDBRANCH   1  17
TORSDOF 8
