REMARK  Name = 
REMARK  5 active torsions:
REMARK  status: ('A' for Active; 'I' for Inactive)
REMARK    1  A    between atoms: C_2  and  C_4
REMARK    2  A    between atoms: C_7  and  O_8
REMARK    3  A    between atoms: O_8  and  C_9
REMARK    4  A    between atoms: C_9  and  C_10
REMARK    5  A    between atoms: C_14  and  C_15
REMARK                            x       y       z     vdW  Elec       q    Type
REMARK                         _______ _______ _______ _____ _____    ______ ____
ROOT
ATOM      1  C   UNL     1       5.139  -5.469  -2.325  0.00  0.00    +0.000 C 
ENDROOT
BRANCH   1   2
ATOM      2  C   UNL     1       6.101  -6.624  -2.396  0.00  0.00    +0.000 A 
ATOM      3  C   UNL     1       5.629  -7.930  -2.385  0.00  0.00    +0.000 A 
ATOM      4  N   UNL     1       6.421  -9.018  -2.477  0.00  0.00    +0.000 NA
ATOM      5  C   UNL     1       7.753  -8.791  -2.592  0.00  0.00    +0.000 A 
ATOM      6  C   UNL     1       8.356  -7.532  -2.644  0.00  0.00    +0.000 A 
ATOM      7  C   UNL     1       7.480  -6.440  -2.554  0.00  0.00    +0.000 A 
BRANCH   6   8
ATOM      8  C   UNL     1       9.817  -7.352  -2.785  0.00  0.00    +0.000 A 
ATOM      9  C   UNL     1      10.608  -8.266  -3.510  0.00  0.00    +0.000 A 
ATOM     10  C   UNL     1      11.991  -8.095  -3.642  0.00  0.00    +0.000 A 
ATOM     11  C   UNL     1      12.615  -6.996  -3.061  0.00  0.00    +0.000 A 
ATOM     12  C   UNL     1      11.851  -6.084  -2.349  0.00  0.00    +0.000 A 
ATOM     13  F   UNL     1      12.444  -5.020  -1.791  0.00  0.00    +0.000 F 
ATOM     14  C   UNL     1      10.477  -6.254  -2.203  0.00  0.00    +0.000 A 
ENDBRANCH   6   8
ENDBRANCH   1   2
BRANCH   1  15
ATOM     15  O   UNL     1       5.748  -4.351  -1.666  0.00  0.00    +0.000 OA
BRANCH  15  19
ATOM     16  C   UNL     1       3.245  -1.094  -1.422  0.00  0.00    +0.000 A 
ATOM     17  C   UNL     1       4.540  -1.006  -0.906  0.00  0.00    +0.000 A 
ATOM     18  C   UNL     1       5.382  -2.118  -0.992  0.00  0.00    +0.000 A 
ATOM     19  C   UNL     1       4.897  -3.270  -1.593  0.00  0.00    +0.000 A 
ATOM     20  N   UNL     1       3.647  -3.381  -2.094  0.00  0.00    +0.000 NA
ATOM     21  C   UNL     1       2.845  -2.296  -1.989  0.00  0.00    +0.000 A 
BRANCH  16  23
ATOM     22  N   UNL     1       2.764   1.287  -1.373  0.00  0.00    +0.000 N 
ATOM     23  C   UNL     1       2.270   0.014  -1.381  0.00  0.00    +0.000 C 
ATOM     24  O   UNL     1       1.065  -0.199  -1.400  0.00  0.00    +0.000 OA
ATOM     25  H   UNL     1       2.080   2.028  -1.470  0.00  0.00    +0.000 HD
ATOM     26  H   UNL     1       3.720   1.501  -1.620  0.00  0.00    +0.000 HD
ENDBRANCH  16  23
ENDBRANCH  15  19
ENDBRANCH   1  15
TORSDOF 5
