REMARK  Name = 
REMARK  4 active torsions:
REMARK  status: ('A' for Active; 'I' for Inactive)
REMARK    1  A    between atoms: C_2  and  C_4
REMARK    2  A    between atoms: C_7  and  N_8
REMARK    3  A    between atoms: N_8  and  C_9
REMARK    4  A    between atoms: C_9  and  C_10
REMARK                            x       y       z     vdW  Elec       q    Type
REMARK                         _______ _______ _______ _____ _____    ______ ____
ROOT
ATOM      1  C   UNL     1       2.735   1.725  -0.019  0.00  0.00    +0.000 A 
ATOM      2  C   UNL     1       4.109   1.540  -0.069  0.00  0.00    +0.000 A 
ATOM      3  N   UNL     1       4.990   2.522   0.268  0.00  0.00    +0.000 NA
ATOM      4  C   UNL     1       4.468   3.691   0.690  0.00  0.00    +0.000 A 
ATOM      5  C   UNL     1       3.076   3.852   0.712  0.00  0.00    +0.000 A 
ATOM      6  N   UNL     1       2.175   2.896   0.374  0.00  0.00    +0.000 NA
ENDROOT
BRANCH   1   8
ATOM      7  N   UNL     1       0.468   0.937  -0.425  0.00  0.00    +0.000 N 
ATOM      8  C   UNL     1       1.805   0.650  -0.452  0.00  0.00    +0.000 C 
ATOM      9  O   UNL     1       2.215  -0.439  -0.846  0.00  0.00    +0.000 OA
ATOM     10  H   UNL     1      -0.175   0.255  -0.805  0.00  0.00    +0.000 HD
ATOM     11  H   UNL     1       0.152   1.887  -0.262  0.00  0.00    +0.000 HD
ENDBRANCH   1   8
BRANCH   4  12
ATOM     12  N   UNL     1       5.359   4.724   0.991  0.00  0.00    +0.000 N 
ATOM     13  H   UNL     1       5.630   5.175   0.121  0.00  0.00    +0.000 HD
BRANCH  12  14
ATOM     14  C   UNL     1       4.898   5.708   1.964  0.00  0.00    +0.000 C 
BRANCH  14  15
ATOM     15  C   UNL     1       6.084   6.349   2.634  0.00  0.00    +0.000 A 
ATOM     16  C   UNL     1       6.999   5.558   3.351  0.00  0.00    +0.000 A 
ATOM     17  C   UNL     1       8.096   6.140   3.989  0.00  0.00    +0.000 A 
ATOM     18  C   UNL     1       8.285   7.518   3.926  0.00  0.00    +0.000 A 
ATOM     19  C   UNL     1       7.376   8.302   3.223  0.00  0.00    +0.000 A 
ATOM     20  F   UNL     1       7.557   9.628   3.164  0.00  0.00    +0.000 F 
ATOM     21  C   UNL     1       6.283   7.734   2.579  0.00  0.00    +0.000 A 
ENDBRANCH  14  15
ENDBRANCH  12  14
ENDBRANCH   4  12
TORSDOF 4
