REMARK  Name = 
REMARK  6 active torsions:
REMARK  status: ('A' for Active; 'I' for Inactive)
REMARK    1  A    between atoms: C_2  and  C_25
REMARK    2  A    between atoms: N_3  and  C_4
REMARK    3  A    between atoms: C_4  and  C_5
REMARK    4  A    between atoms: C_8  and  C_9
REMARK    5  A    between atoms: C_9  and  N_10
REMARK    6  A    between atoms: C_11  and  C_13
REMARK                            x       y       z     vdW  Elec       q    Type
REMARK                         _______ _______ _______ _____ _____    ______ ____
ROOT
ATOM      1  C   UNL     1       3.301   3.200  -1.776  0.00  0.00    +0.000 A 
ATOM      2  C   UNL     1       2.924   4.550  -1.763  0.00  0.00    +0.000 A 
ATOM      3  C   UNL     1       3.761   5.531  -2.305  0.00  0.00    +0.000 A 
ATOM      4  C   UNL     1       4.985   5.180  -2.891  0.00  0.00    +0.000 A 
ATOM      5  C   UNL     1       5.362   3.831  -2.903  0.00  0.00    +0.000 A 
ATOM      6  C   UNL     1       4.524   2.850  -2.363  0.00  0.00    +0.000 A 
ENDROOT
BRANCH   1   7
ATOM      7  C   UNL     1       2.392   2.143  -1.203  0.00  0.00    +0.000 C 
BRANCH   7  10
ATOM      8  O   UNL     1       0.488   0.132  -0.802  0.00  0.00    +0.000 OA
ATOM      9  C   UNL     1       0.565   0.655  -1.910  0.00  0.00    +0.000 C 
ATOM     10  N   UNL     1       1.473   1.649  -2.197  0.00  0.00    +0.000 N 
ATOM     11  H   UNL     1       1.423   2.129  -3.083  0.00  0.00    +0.000 HD
BRANCH   9  12
ATOM     12  C   UNL     1      -0.297   0.283  -3.013  0.00  0.00    +0.000 A 
ATOM     13  C   UNL     1      -0.309   0.656  -4.349  0.00  0.00    +0.000 A 
ATOM     14  C   UNL     1      -1.368  -0.030  -4.992  0.00  0.00    +0.000 A 
ATOM     15  C   UNL     1      -1.985  -0.808  -4.041  0.00  0.00    +0.000 A 
ATOM     16  N   UNL     1      -1.332  -0.616  -2.853  0.00  0.00    +0.000 N 
ATOM     17  H   UNL     1      -1.558  -1.062  -1.971  0.00  0.00    +0.000 HD
ENDBRANCH   9  12
ENDBRANCH   7  10
ENDBRANCH   1   7
BRANCH   4  18
ATOM     18  C   UNL     1       5.899   6.233  -3.465  0.00  0.00    +0.000 C 
BRANCH  18  19
ATOM     19  N   UNL     1       6.816   6.732  -2.470  0.00  0.00    +0.000 N 
ATOM     20  C   UNL     1       7.684   7.756  -2.754  0.00  0.00    +0.000 C 
ATOM     21  O   UNL     1       7.685   8.323  -3.844  0.00  0.00    +0.000 OA
ATOM     22  H   UNL     1       6.989   6.139  -1.665  0.00  0.00    +0.000 HD
BRANCH  20  23
ATOM     23  C   UNL     1       8.576   8.185  -1.669  0.00  0.00    +0.000 A 
ATOM     24  C   UNL     1       9.115   9.465  -1.687  0.00  0.00    +0.000 A 
ATOM     25  S   UNL     1      10.079   9.822  -0.326  0.00  0.00    +0.000 S 
ATOM     26  C   UNL     1       9.854   8.260   0.311  0.00  0.00    +0.000 A 
ATOM     27  N   UNL     1      10.444   7.890   1.479  0.00  0.00    +0.000 NA
ATOM     28  C   UNL     1      10.220   6.667   1.826  0.00  0.00    +0.000 A 
ATOM     29  N   UNL     1       9.455   5.781   1.112  0.00  0.00    +0.000 N 
ATOM     30  C   UNL     1       8.815   6.120  -0.057  0.00  0.00    +0.000 A 
ATOM     31  O   UNL     1       8.102   5.316  -0.649  0.00  0.00    +0.000 OA
ATOM     32  C   UNL     1       9.044   7.482  -0.497  0.00  0.00    +0.000 A 
ATOM     33  H   UNL     1       9.312   4.838   1.441  0.00  0.00    +0.000 HD
ENDBRANCH  20  23
ENDBRANCH  18  19
ENDBRANCH   4  18
TORSDOF 6
