REMARK  Name = 
REMARK  6 active torsions:
REMARK  status: ('A' for Active; 'I' for Inactive)
REMARK    1  A    between atoms: C_2  and  C_20
REMARK    2  A    between atoms: N_3  and  C_4
REMARK    3  A    between atoms: C_4  and  C_5
REMARK    4  A    between atoms: C_8  and  C_9
REMARK    5  A    between atoms: C_9  and  N_10
REMARK    6  A    between atoms: C_11  and  C_13
REMARK                            x       y       z     vdW  Elec       q    Type
REMARK                         _______ _______ _______ _____ _____    ______ ____
ROOT
ATOM      1  C   UNL     1      13.131  -2.464  -9.752  0.00  0.00    +0.000 A 
ATOM      2  C   UNL     1      12.966  -2.542  -8.362  0.00  0.00    +0.000 A 
ATOM      3  C   UNL     1      12.066  -3.454  -7.796  0.00  0.00    +0.000 A 
ATOM      4  C   UNL     1      11.328  -4.326  -8.606  0.00  0.00    +0.000 A 
ATOM      5  C   UNL     1      11.512  -4.266  -9.995  0.00  0.00    +0.000 A 
ATOM      6  C   UNL     1      12.411  -3.352 -10.560  0.00  0.00    +0.000 A 
ENDROOT
BRANCH   1   7
ATOM      7  C   UNL     1      14.097  -1.475 -10.361  0.00  0.00    +0.000 C 
BRANCH   7  10
ATOM      8  O   UNL     1      16.288  -0.263 -11.616  0.00  0.00    +0.000 OA
ATOM      9  C   UNL     1      16.433  -1.376 -11.118  0.00  0.00    +0.000 C 
ATOM     10  N   UNL     1      15.392  -2.071 -10.554  0.00  0.00    +0.000 N 
ATOM     11  H   UNL     1      15.601  -2.873  -9.971  0.00  0.00    +0.000 HD
BRANCH   9  12
ATOM     12  C   UNL     1      17.728  -2.062 -11.130  0.00  0.00    +0.000 A 
ATOM     13  C   UNL     1      18.686  -1.748 -12.088  0.00  0.00    +0.000 A 
ATOM     14  S   UNL     1      20.115  -2.672 -11.953  0.00  0.00    +0.000 S 
ATOM     15  C   UNL     1      19.527  -3.487 -10.580  0.00  0.00    +0.000 A 
ATOM     16  N   UNL     1      20.283  -4.417  -9.935  0.00  0.00    +0.000 NA
ATOM     17  C   UNL     1      19.722  -4.931  -8.892  0.00  0.00    +0.000 A 
ATOM     18  N   UNL     1      18.471  -4.603  -8.436  0.00  0.00    +0.000 N 
ATOM     19  C   UNL     1      17.663  -3.695  -9.070  0.00  0.00    +0.000 A 
ATOM     20  O   UNL     1      16.529  -3.467  -8.662  0.00  0.00    +0.000 OA
ATOM     21  C   UNL     1      18.251  -3.076 -10.242  0.00  0.00    +0.000 A 
ATOM     22  H   UNL     1      18.082  -5.051  -7.619  0.00  0.00    +0.000 HD
ENDBRANCH   9  12
ENDBRANCH   7  10
ENDBRANCH   1   7
BRANCH   4  23
ATOM     23  C   UNL     1      10.360  -5.312  -8.001  0.00  0.00    +0.000 C 
BRANCH  23  24
ATOM     24  N   UNL     1       9.041  -4.751  -7.814  0.00  0.00    +0.000 N 
ATOM     25  C   UNL     1       8.006  -5.534  -7.329  0.00  0.00    +0.000 C 
ATOM     26  O   UNL     1       8.165  -6.705  -6.996  0.00  0.00    +0.000 OA
ATOM     27  H   UNL     1       8.833  -3.837  -8.199  0.00  0.00    +0.000 HD
BRANCH  25  28
ATOM     28  C   UNL     1       6.648  -4.798  -7.264  0.00  0.00    +0.000 C 
ATOM     29  C   UNL     1       5.508  -5.652  -6.732  0.00  0.00    +0.000 C 
ATOM     30  C   UNL     1       5.629  -5.513  -5.228  0.00  0.00    +0.000 C 
ATOM     31  C   UNL     1       6.209  -4.124  -5.022  0.00  0.00    +0.000 C 
ATOM     32  N   UNL     1       6.718  -3.659  -6.319  0.00  0.00    +0.000 NA
ATOM     33  H   UNL     1       7.681  -3.341  -6.218  0.00  0.00    +0.000 HD
ENDBRANCH  25  28
ENDBRANCH  23  24
ENDBRANCH   4  23
TORSDOF 6
