REMARK  Name = 
REMARK  7 active torsions:
REMARK  status: ('A' for Active; 'I' for Inactive)
REMARK    1  A    between atoms: C_1  and  C_2
REMARK    2  A    between atoms: C_2  and  C_3
REMARK    3  A    between atoms: C_2  and  C_4
REMARK    4  A    between atoms: C_2  and  C_20
REMARK    5  A    between atoms: C_4  and  N_5
REMARK    6  A    between atoms: C_10  and  C_11
REMARK    7  A    between atoms: C_14  and  C_15
REMARK                            x       y       z     vdW  Elec       q    Type
REMARK                         _______ _______ _______ _____ _____    ______ ____
ROOT
ATOM      1  N   UNL     1       2.705  -0.406  -2.439  0.00  0.00    +0.000 N 
ATOM      2  C   UNL     1       3.141  -0.100  -3.710  0.00  0.00    +0.000 A 
ATOM      3  C   UNL     1       3.951   1.000  -4.004  0.00  0.00    +0.000 A 
ATOM      4  N   UNL     1       4.436   1.287  -5.234  0.00  0.00    +0.000 NA
ATOM      5  C   UNL     1       4.084   0.401  -6.187  0.00  0.00    +0.000 A 
ATOM      6  C   UNL     1       3.270  -0.707  -5.949  0.00  0.00    +0.000 A 
ATOM      7  N   UNL     1       2.789  -0.957  -4.697  0.00  0.00    +0.000 NA
ATOM      8  H   UNL     1       1.924  -1.054  -2.415  0.00  0.00    +0.000 HD
ENDROOT
BRANCH   6   9
ATOM      9  C   UNL     1       2.902  -1.657  -7.019  0.00  0.00    +0.000 A 
ATOM     10  C   UNL     1       2.737  -3.029  -6.754  0.00  0.00    +0.000 A 
ATOM     11  C   UNL     1       2.394  -3.933  -7.770  0.00  0.00    +0.000 A 
ATOM     12  C   UNL     1       2.205  -3.482  -9.079  0.00  0.00    +0.000 A 
ATOM     13  C   UNL     1       2.367  -2.127  -9.365  0.00  0.00    +0.000 A 
ATOM     14  C   UNL     1       2.711  -1.230  -8.347  0.00  0.00    +0.000 A 
BRANCH  12  15
ATOM     15  C   UNL     1       1.834  -4.398 -10.118  0.00  0.00    +0.000 C 
ATOM     16  N   UNL     1       1.528  -5.129 -10.966  0.00  0.00    +0.000 NA
ENDBRANCH  12  15
ENDBRANCH   6   9
BRANCH   1  17
ATOM     17  C   UNL     1       3.007   0.434  -1.291  0.00  0.00    +0.000 C 
BRANCH  17  19
ATOM     18  C   UNL     1       3.230  -1.469   0.362  0.00  0.00    +0.000 C 
ATOM     19  C   UNL     1       2.496  -0.140   0.065  0.00  0.00    +0.000 C 
ATOM     20  C   UNL     1       2.930   0.854   1.174  0.00  0.00    +0.000 C 
BRANCH  19  21
ATOM     21  C   UNL     1       0.963  -0.272   0.050  0.00  0.00    +0.000 A 
ATOM     22  C   UNL     1       0.150   0.856  -0.185  0.00  0.00    +0.000 A 
ATOM     23  C   UNL     1      -1.242   0.750  -0.266  0.00  0.00    +0.000 A 
ATOM     24  C   UNL     1      -1.859  -0.487  -0.108  0.00  0.00    +0.000 A 
ATOM     25  C   UNL     1      -1.075  -1.603   0.144  0.00  0.00    +0.000 A 
ATOM     26  F   UNL     1      -1.661  -2.798   0.300  0.00  0.00    +0.000 F 
ATOM     27  C   UNL     1       0.313  -1.508   0.225  0.00  0.00    +0.000 A 
ENDBRANCH  19  21
ENDBRANCH  17  19
ENDBRANCH   1  17
TORSDOF 5
