REMARK  Name = 
REMARK  9 active torsions:
REMARK  status: ('A' for Active; 'I' for Inactive)
REMARK    1  A    between atoms: N_1  and  C_2
REMARK    2  A    between atoms: C_2  and  C_3
REMARK    3  A    between atoms: C_3  and  C_4
REMARK    4  A    between atoms: C_4  and  N_5
REMARK    5  A    between atoms: C_4  and  C_18
REMARK    6  A    between atoms: C_6  and  C_8
REMARK    7  A    between atoms: C_21  and  O_22
REMARK    8  A    between atoms: O_22  and  C_23
REMARK    9  A    between atoms: C_23  and  C_24
REMARK                            x       y       z     vdW  Elec       q    Type
REMARK                         _______ _______ _______ _____ _____    ______ ____
ROOT
ATOM      1  C   UNL     1       4.338   1.344   0.396  0.00  0.00    +0.000 C 
ENDROOT
BRANCH   1   2
ATOM      2  C   UNL     1       4.920   2.727   0.659  0.00  0.00    +0.000 A 
ATOM      3  C   UNL     1       5.824   2.955   1.707  0.00  0.00    +0.000 A 
ATOM      4  C   UNL     1       6.393   4.222   1.886  0.00  0.00    +0.000 A 
ATOM      5  C   UNL     1       6.082   5.267   1.014  0.00  0.00    +0.000 A 
ATOM      6  C   UNL     1       5.135   5.064   0.013  0.00  0.00    +0.000 A 
ATOM      7  C   UNL     1       4.575   3.803  -0.175  0.00  0.00    +0.000 A 
BRANCH   5   8
ATOM      8  O   UNL     1       6.764   6.441   1.208  0.00  0.00    +0.000 OA
BRANCH   8   9
ATOM      9  C   UNL     1       6.842   7.273   0.041  0.00  0.00    +0.000 C 
BRANCH   9  10
ATOM     10  C   UNL     1       7.992   8.249   0.108  0.00  0.00    +0.000 A 
ATOM     11  C   UNL     1       8.381   8.834   1.310  0.00  0.00    +0.000 A 
ATOM     12  C   UNL     1       9.429   9.750   1.302  0.00  0.00    +0.000 A 
ATOM     13  C   UNL     1      10.049  10.069   0.100  0.00  0.00    +0.000 A 
ATOM     14  C   UNL     1       9.591   9.459  -1.054  0.00  0.00    +0.000 A 
ATOM     15  N   UNL     1       8.581   8.566  -1.076  0.00  0.00    +0.000 NA
ENDBRANCH   9  10
ENDBRANCH   8   9
ENDBRANCH   5   8
ENDBRANCH   1   2
BRANCH   1  16
ATOM     16  N   UNL     1       4.810   0.905  -0.913  0.00  0.00    +0.000 N 
ATOM     17  C   UNL     1       4.554  -0.326  -1.456  0.00  0.00    +0.000 C 
ATOM     18  O   UNL     1       3.843  -1.164  -0.918  0.00  0.00    +0.000 OA
ATOM     19  H   UNL     1       5.603   1.424  -1.279  0.00  0.00    +0.000 HD
BRANCH  17  20
ATOM     20  C   UNL     1       5.146  -0.565  -2.778  0.00  0.00    +0.000 A 
ATOM     21  C   UNL     1       4.511  -1.401  -3.688  0.00  0.00    +0.000 A 
ATOM     22  S   UNL     1       5.348  -1.556  -5.168  0.00  0.00    +0.000 S 
ATOM     23  C   UNL     1       6.608  -0.548  -4.625  0.00  0.00    +0.000 A 
ATOM     24  N   UNL     1       7.694  -0.295  -5.404  0.00  0.00    +0.000 NA
ATOM     25  C   UNL     1       8.585   0.458  -4.850  0.00  0.00    +0.000 A 
ATOM     26  N   UNL     1       8.482   0.996  -3.593  0.00  0.00    +0.000 N 
ATOM     27  C   UNL     1       7.386   0.804  -2.790  0.00  0.00    +0.000 A 
ATOM     28  O   UNL     1       7.286   1.361  -1.702  0.00  0.00    +0.000 OA
ATOM     29  C   UNL     1       6.373  -0.069  -3.350  0.00  0.00    +0.000 A 
ATOM     30  H   UNL     1       9.200   1.602  -3.225  0.00  0.00    +0.000 HD
ENDBRANCH  17  20
ENDBRANCH   1  16
BRANCH   1  31
ATOM     31  C   UNL     1       2.797   1.354   0.475  0.00  0.00    +0.000 C 
BRANCH  31  32
ATOM     32  C   UNL     1       2.282   1.790   1.845  0.00  0.00    +0.000 C 
BRANCH  32  33
ATOM     33  N   UNL     1       0.822   1.767   1.855  0.00  0.00    +0.000 NA
ATOM     34  H   UNL     1       0.485   2.024   2.781  0.00  0.00    +0.000 HD
ATOM     35  H   UNL     1       0.495   0.817   1.680  0.00  0.00    +0.000 HD
ENDBRANCH  32  33
ENDBRANCH  31  32
ENDBRANCH   1  31
TORSDOF 9
