REMARK  Name = 
REMARK  9 active torsions:
REMARK  status: ('A' for Active; 'I' for Inactive)
REMARK    1  A    between atoms: C_1  and  O_2
REMARK    2  A    between atoms: O_2  and  C_3
REMARK    3  A    between atoms: C_10  and  C_11
REMARK    4  A    between atoms: N_13  and  C_14
REMARK    5  A    between atoms: C_14  and  C_15
REMARK    6  A    between atoms: C_18  and  C_19
REMARK    7  A    between atoms: C_19  and  N_20
REMARK    8  A    between atoms: N_20  and  C_21
REMARK    9  A    between atoms: C_21  and  C_22
REMARK                            x       y       z     vdW  Elec       q    Type
REMARK                         _______ _______ _______ _____ _____    ______ ____
ROOT
ATOM      1  C   UNL     1       2.926  -0.247  -3.355  0.00  0.00    +0.000 C 
ENDROOT
BRANCH   1   2
ATOM      2  C   UNL     1       1.706  -1.094  -3.135  0.00  0.00    +0.000 A 
ATOM      3  C   UNL     1       1.773  -2.488  -3.118  0.00  0.00    +0.000 A 
ATOM      4  C   UNL     1       0.618  -3.236  -2.890  0.00  0.00    +0.000 A 
ATOM      5  C   UNL     1      -0.591  -2.570  -2.701  0.00  0.00    +0.000 A 
ATOM      6  N   UNL     1      -0.688  -1.217  -2.758  0.00  0.00    +0.000 NA
ATOM      7  C   UNL     1       0.452  -0.517  -2.967  0.00  0.00    +0.000 A 
BRANCH   5   8
ATOM      8  C   UNL     1      -1.866  -3.354  -2.439  0.00  0.00    +0.000 C 
BRANCH   8   9
ATOM      9  N   UNL     1      -2.948  -3.094  -3.400  0.00  0.00    +0.000 NA
ATOM     10  H   UNL     1      -3.112  -2.085  -3.400  0.00  0.00    +0.000 HD
BRANCH   9  11
ATOM     11  C   UNL     1      -2.585  -3.502  -4.754  0.00  0.00    +0.000 C 
BRANCH  11  12
ATOM     12  C   UNL     1      -3.709  -3.250  -5.731  0.00  0.00    +0.000 A 
ATOM     13  C   UNL     1      -3.836  -2.010  -6.375  0.00  0.00    +0.000 A 
ATOM     14  C   UNL     1      -4.864  -1.791  -7.295  0.00  0.00    +0.000 A 
ATOM     15  C   UNL     1      -5.780  -2.805  -7.574  0.00  0.00    +0.000 A 
ATOM     16  C   UNL     1      -5.675  -4.034  -6.926  0.00  0.00    +0.000 A 
ATOM     17  C   UNL     1      -4.650  -4.253  -6.004  0.00  0.00    +0.000 A 
ENDBRANCH  11  12
ENDBRANCH   9  11
ENDBRANCH   8   9
ENDBRANCH   5   8
ENDBRANCH   1   2
BRANCH   1  20
ATOM     18  C   UNL     1       4.257   0.669  -5.207  0.00  0.00    +0.000 C 
ATOM     19  O   UNL     1       5.078   1.143  -4.424  0.00  0.00    +0.000 OA
ATOM     20  N   UNL     1       3.168  -0.023  -4.757  0.00  0.00    +0.000 N 
ATOM     21  H   UNL     1       2.461  -0.329  -5.415  0.00  0.00    +0.000 HD
BRANCH  18  29
ATOM     22  C   UNL     1       2.420  -0.439  -7.907  0.00  0.00    +0.000 A 
ATOM     23  N   UNL     1       1.959  -0.808  -9.118  0.00  0.00    +0.000 NA
ATOM     24  C   UNL     1       2.645  -0.433 -10.200  0.00  0.00    +0.000 A 
ATOM     25  N   UNL     1       3.761   0.286 -10.224  0.00  0.00    +0.000 NA
ATOM     26  C   UNL     1       4.199   0.626  -8.999  0.00  0.00    +0.000 A 
ATOM     27  S   UNL     1       5.604   1.564  -8.845  0.00  0.00    +0.000 S 
ATOM     28  C   UNL     1       5.498   1.533  -7.149  0.00  0.00    +0.000 A 
ATOM     29  C   UNL     1       4.412   0.812  -6.666  0.00  0.00    +0.000 A 
ATOM     30  C   UNL     1       3.614   0.299  -7.779  0.00  0.00    +0.000 A 
BRANCH  22  32
ATOM     31  C   UNL     1       0.452  -1.434  -7.110  0.00  0.00    +0.000 C 
ATOM     32  O   UNL     1       1.681  -0.783  -6.794  0.00  0.00    +0.000 OA
ENDBRANCH  22  32
ENDBRANCH  18  29
ENDBRANCH   1  20
TORSDOF 8
