REMARK  Name = 
REMARK  8 active torsions:
REMARK  status: ('A' for Active; 'I' for Inactive)
REMARK    1  A    between atoms: C_1  and  C_2
REMARK    2  A    between atoms: C_2  and  N_3
REMARK    3  A    between atoms: N_3  and  C_4
REMARK    4  A    between atoms: C_8  and  C_9
REMARK    5  A    between atoms: C_9  and  C_10
REMARK    6  A    between atoms: C_10  and  N_11
REMARK    7  A    between atoms: N_11  and  C_12
REMARK    8  A    between atoms: C_15  and  C_16
REMARK                            x       y       z     vdW  Elec       q    Type
REMARK                         _______ _______ _______ _____ _____    ______ ____
ROOT
ATOM      1  C   UNL     1       6.056   1.805  -4.727  0.00  0.00    +0.000 C 
ENDROOT
BRANCH   1   6
ATOM      2  C   UNL     1       4.030   0.027  -1.990  0.00  0.00    +0.000 A 
ATOM      3  C   UNL     1       4.926  -0.974  -1.615  0.00  0.00    +0.000 A 
ATOM      4  C   UNL     1       6.175  -1.079  -2.232  0.00  0.00    +0.000 A 
ATOM      5  C   UNL     1       6.554  -0.166  -3.215  0.00  0.00    +0.000 A 
ATOM      6  C   UNL     1       5.678   0.850  -3.613  0.00  0.00    +0.000 A 
ATOM      7  C   UNL     1       4.427   0.942  -2.982  0.00  0.00    +0.000 A 
BRANCH   2   8
ATOM      8  N   UNL     1       2.798   0.239  -1.346  0.00  0.00    +0.000 N 
ATOM      9  H   UNL     1       2.085   0.595  -1.978  0.00  0.00    +0.000 HD
BRANCH   8  11
ATOM     10  C   UNL     1       1.695  -1.665  -0.248  0.00  0.00    +0.000 C 
ATOM     11  C   UNL     1       2.288  -0.279  -0.096  0.00  0.00    +0.000 C 
ATOM     12  C   UNL     1       3.178  -0.012   1.140  0.00  0.00    +0.000 C 
ATOM     13  O   UNL     1       2.404   1.162   1.501  0.00  0.00    +0.000 OA
ATOM     14  C   UNL     1       1.360   0.768   0.576  0.00  0.00    +0.000 C 
ENDBRANCH   8  11
ENDBRANCH   2   8
ENDBRANCH   1   6
BRANCH   1  15
ATOM     15  C   UNL     1       6.231   1.046  -6.048  0.00  0.00    +0.000 C 
BRANCH  15  16
ATOM     16  N   UNL     1       6.572   1.936  -7.165  0.00  0.00    +0.000 N 
ATOM     17  H   UNL     1       7.336   2.570  -6.939  0.00  0.00    +0.000 HD
BRANCH  16  18
ATOM     18  C   UNL     1       6.767   1.314  -8.415  0.00  0.00    +0.000 A 
ATOM     19  C   UNL     1       6.085   0.156  -8.804  0.00  0.00    +0.000 A 
ATOM     20  C   UNL     1       6.260  -0.387 -10.074  0.00  0.00    +0.000 A 
ATOM     21  C   UNL     1       7.101   0.265 -10.954  0.00  0.00    +0.000 A 
ATOM     22  N   UNL     1       7.766   1.414 -10.656  0.00  0.00    +0.000 NA
ATOM     23  C   UNL     1       7.562   1.907  -9.404  0.00  0.00    +0.000 A 
BRANCH  21  24
ATOM     24  C   UNL     1       7.293  -0.295 -12.335  0.00  0.00    +0.000 C 
ATOM     25  N   UNL     1       8.124   0.415 -13.146  0.00  0.00    +0.000 N 
ATOM     26  O   UNL     1       6.737  -1.320 -12.716  0.00  0.00    +0.000 OA
ATOM     27  H   UNL     1       8.546   1.273 -12.803  0.00  0.00    +0.000 HD
ATOM     28  H   UNL     1       8.274   0.110 -14.097  0.00  0.00    +0.000 HD
ENDBRANCH  21  24
ENDBRANCH  16  18
ENDBRANCH  15  16
ENDBRANCH   1  15
TORSDOF 7
