REMARK  Name = 
REMARK  12 active torsions:
REMARK  status: ('A' for Active; 'I' for Inactive)
REMARK    1  A    between atoms: C_1  and  C_2
REMARK    2  A    between atoms: N_4  and  C_5
REMARK    3  A    between atoms: C_7  and  C_8
REMARK    4  A    between atoms: C_8  and  C_9
REMARK    5  A    between atoms: C_9  and  C_10
REMARK    6  A    between atoms: C_9  and  C_11
REMARK    7  A    between atoms: C_9  and  C_12
REMARK    8  A    between atoms: C_12  and  N_13
REMARK    9  A    between atoms: N_13  and  C_14
REMARK   10  A    between atoms: C_17  and  C_18
REMARK   11  A    between atoms: C_25  and  C_26
REMARK   12  A    between atoms: C_29  and  C_30
REMARK                            x       y       z     vdW  Elec       q    Type
REMARK                         _______ _______ _______ _____ _____    ______ ____
ROOT
ATOM      1  C   UNL     1      -1.362   1.575  -5.511  0.00  0.00    +0.000 C 
ENDROOT
BRANCH   1   4
ATOM      2  C   UNL     1       1.839   1.510  -3.326  0.00  0.00    +0.000 A 
ATOM      3  C   UNL     1       0.614   1.165  -3.943  0.00  0.00    +0.000 A 
ATOM      4  C   UNL     1      -0.042   1.994  -4.875  0.00  0.00    +0.000 A 
ATOM      5  C   UNL     1       0.544   3.221  -5.195  0.00  0.00    +0.000 A 
ATOM      6  C   UNL     1       1.757   3.591  -4.617  0.00  0.00    +0.000 A 
ATOM      7  C   UNL     1       2.406   2.757  -3.703  0.00  0.00    +0.000 A 
BRANCH   2  11
ATOM      8  C   UNL     1       4.642  -1.257  -3.424  0.00  0.00    +0.000 C 
ATOM      9  C   UNL     1       3.682  -1.473  -2.252  0.00  0.00    +0.000 C 
ATOM     10  C   UNL     1       2.303  -0.826  -2.524  0.00  0.00    +0.000 C 
ATOM     11  N   UNL     1       2.440   0.636  -2.436  0.00  0.00    +0.000 N 
ATOM     12  C   UNL     1       2.964   1.072  -1.129  0.00  0.00    +0.000 C 
ATOM     13  C   UNL     1       4.343   0.415  -0.907  0.00  0.00    +0.000 C 
ATOM     14  C   UNL     1       4.886   0.764   0.471  0.00  0.00    +0.000 C 
ATOM     15  O   UNL     1       4.254  -1.024  -1.004  0.00  0.00    +0.000 OA
ENDBRANCH   2  11
BRANCH   7  16
ATOM     16  C   UNL     1       3.699   3.184  -3.231  0.00  0.00    +0.000 C 
ATOM     17  N   UNL     1       4.728   3.561  -2.844  0.00  0.00    +0.000 NA
ENDBRANCH   7  16
ENDBRANCH   1   4
BRANCH   1  18
ATOM     18  C   UNL     1      -1.282   0.757  -6.843  0.00  0.00    +0.000 C 
ATOM     19  C   UNL     1      -0.515   1.554  -7.919  0.00  0.00    +0.000 C 
ATOM     20  C   UNL     1      -0.617  -0.611  -6.568  0.00  0.00    +0.000 C 
BRANCH  18  21
ATOM     21  C   UNL     1      -2.730   0.506  -7.391  0.00  0.00    +0.000 C 
BRANCH  21  22
ATOM     22  N   UNL     1      -2.671  -0.241  -8.655  0.00  0.00    +0.000 N 
ATOM     23  H   UNL     1      -1.990  -0.996  -8.645  0.00  0.00    +0.000 HD
BRANCH  22  24
ATOM     24  C   UNL     1      -3.820  -0.607  -9.341  0.00  0.00    +0.000 A 
ATOM     25  C   UNL     1      -4.994   0.122  -9.388  0.00  0.00    +0.000 A 
ATOM     26  N   UNL     1      -6.081  -0.210 -10.122  0.00  0.00    +0.000 NA
ATOM     27  C   UNL     1      -5.957  -1.337 -10.866  0.00  0.00    +0.000 A 
ATOM     28  N   UNL     1      -4.869  -2.118 -10.935  0.00  0.00    +0.000 NA
ATOM     29  C   UNL     1      -3.827  -1.716 -10.180  0.00  0.00    +0.000 A 
BRANCH  27  30
ATOM     30  C   UNL     1      -7.160  -1.722 -11.694  0.00  0.00    +0.000 C 
ATOM     31  N   UNL     1      -8.233  -0.870 -11.609  0.00  0.00    +0.000 N 
ATOM     32  O   UNL     1      -7.212  -2.717 -12.415  0.00  0.00    +0.000 OA
ATOM     33  H   UNL     1      -8.168  -0.034 -11.033  0.00  0.00    +0.000 HD
ATOM     34  H   UNL     1      -9.056  -1.054 -12.158  0.00  0.00    +0.000 HD
ENDBRANCH  27  30
ENDBRANCH  22  24
ENDBRANCH  21  22
ENDBRANCH  18  21
ENDBRANCH   1  18
TORSDOF 8
