REMARK  Name = 
REMARK  6 active torsions:
REMARK  status: ('A' for Active; 'I' for Inactive)
REMARK    1  A    between atoms: C_7  and  C_8
REMARK    2  A    between atoms: N_10  and  C_11
REMARK    3  A    between atoms: C_11  and  C_12
REMARK    4  A    between atoms: N_15  and  C_16
REMARK    5  A    between atoms: C_16  and  C_17
REMARK    6  A    between atoms: C_17  and  C_18
REMARK                            x       y       z     vdW  Elec       q    Type
REMARK                         _______ _______ _______ _____ _____    ______ ____
ROOT
ATOM      1  C   UNL     1      10.572   2.210  -0.391  0.00  0.00    +0.000 C 
ATOM      2  O   UNL     1      11.116   2.844   0.511  0.00  0.00    +0.000 OA
ATOM      3  N   UNL     1       9.205   2.242  -0.557  0.00  0.00    +0.000 N 
ATOM      4  H   UNL     1       8.783   1.787  -1.363  0.00  0.00    +0.000 HD
ENDROOT
BRANCH   1  11
ATOM      5  N   UNL     1      10.830  -1.726  -5.861  0.00  0.00    +0.000 N 
ATOM      6  C   UNL     1      10.949  -0.977  -4.738  0.00  0.00    +0.000 A 
ATOM      7  N   UNL     1      12.102  -0.831  -4.161  0.00  0.00    +0.000 NA
ATOM      8  C   UNL     1      12.101  -0.039  -3.056  0.00  0.00    +0.000 A 
ATOM      9  S   UNL     1      13.546   0.269  -2.214  0.00  0.00    +0.000 S 
ATOM     10  C   UNL     1      12.743   1.270  -1.096  0.00  0.00    +0.000 A 
ATOM     11  C   UNL     1      11.372   1.384  -1.314  0.00  0.00    +0.000 A 
ATOM     12  C   UNL     1      11.020   0.606  -2.484  0.00  0.00    +0.000 A 
ATOM     13  C   UNL     1       9.748   0.402  -3.149  0.00  0.00    +0.000 A 
ATOM     14  O   UNL     1       8.690   0.911  -2.778  0.00  0.00    +0.000 OA
ATOM     15  N   UNL     1       9.800  -0.404  -4.261  0.00  0.00    +0.000 N 
ATOM     16  H   UNL     1      11.645  -2.304  -6.041  0.00  0.00    +0.000 HD
ATOM     17  H   UNL     1       9.952  -2.192  -6.044  0.00  0.00    +0.000 HD
ATOM     18  H   UNL     1       8.937  -0.516  -4.766  0.00  0.00    +0.000 HD
ENDBRANCH   1  11
BRANCH   3  19
ATOM     19  C   UNL     1       8.337   3.032   0.311  0.00  0.00    +0.000 C 
BRANCH  19  20
ATOM     20  C   UNL     1       8.284   4.496  -0.123  0.00  0.00    +0.000 C 
ATOM     21  C   UNL     1       7.563   4.693  -1.455  0.00  0.00    +0.000 C 
ATOM     22  C   UNL     1       7.778   6.132  -1.915  0.00  0.00    +0.000 C 
ATOM     23  N   UNL     1       7.288   7.136  -0.951  0.00  0.00    +0.000 NA
ATOM     24  C   UNL     1       7.786   6.880   0.421  0.00  0.00    +0.000 C 
ATOM     25  C   UNL     1       7.593   5.429   0.883  0.00  0.00    +0.000 C 
BRANCH  23  26
ATOM     26  C   UNL     1       7.717   8.493  -1.363  0.00  0.00    +0.000 C 
BRANCH  26  27
ATOM     27  C   UNL     1       7.201   8.920  -2.748  0.00  0.00    +0.000 C 
BRANCH  27  28
ATOM     28  C   UNL     1       7.664  10.328  -3.180  0.00  0.00    +0.000 C 
ATOM     29  C   UNL     1       7.102  10.669  -4.575  0.00  0.00    +0.000 C 
ATOM     30  C   UNL     1       7.837   9.930  -5.698  0.00  0.00    +0.000 C 
ATOM     31  N   UNL     1       9.278  10.188  -5.662  0.00  0.00    +0.000 NA
ATOM     32  C   UNL     1       9.852   9.777  -4.380  0.00  0.00    +0.000 C 
ATOM     33  C   UNL     1       9.194  10.506  -3.208  0.00  0.00    +0.000 C 
ATOM     34  H   UNL     1       9.433  11.190  -5.783  0.00  0.00    +0.000 HD
ENDBRANCH  27  28
ENDBRANCH  26  27
ENDBRANCH  23  26
ENDBRANCH  19  20
ENDBRANCH   3  19
TORSDOF 6
