REMARK  Name = 
REMARK  5 active torsions:
REMARK  status: ('A' for Active; 'I' for Inactive)
REMARK    1  A    between atoms: C_2  and  C_4
REMARK    2  A    between atoms: N_8  and  C_9
REMARK    3  A    between atoms: C_9  and  C_10
REMARK    4  A    between atoms: C_10  and  C_13
REMARK    5  A    between atoms: C_17  and  C_18
REMARK                            x       y       z     vdW  Elec       q    Type
REMARK                         _______ _______ _______ _____ _____    ______ ____
ROOT
ATOM      1  C   UNL     1       4.899   4.790   3.625  0.00  0.00    +0.000 C 
ENDROOT
BRANCH   1   6
ATOM      2  C   UNL     1       2.786   1.446   0.405  0.00  0.00    +0.000 A 
ATOM      3  C   UNL     1       2.192   2.258   1.364  0.00  0.00    +0.000 A 
ATOM      4  C   UNL     1       2.965   3.219   2.013  0.00  0.00    +0.000 A 
ATOM      5  C   UNL     1       4.318   3.345   1.710  0.00  0.00    +0.000 A 
ATOM      6  N   UNL     1       5.118   4.337   2.245  0.00  0.00    +0.000 N 
ATOM      7  N   UNL     1       4.911   2.539   0.807  0.00  0.00    +0.000 NA
ATOM      8  C   UNL     1       4.143   1.607   0.179  0.00  0.00    +0.000 A 
ATOM      9  H   UNL     1       6.088   4.154   1.987  0.00  0.00    +0.000 HD
BRANCH   2  11
ATOM     10  N   UNL     1       0.692   0.674  -0.548  0.00  0.00    +0.000 N 
ATOM     11  C   UNL     1       2.026   0.440  -0.363  0.00  0.00    +0.000 C 
ATOM     12  O   UNL     1       2.572  -0.546  -0.845  0.00  0.00    +0.000 OA
ATOM     13  H   UNL     1       0.202   0.040  -1.168  0.00  0.00    +0.000 HD
ATOM     14  H   UNL     1       0.279   1.588  -0.406  0.00  0.00    +0.000 HD
ENDBRANCH   2  11
ENDBRANCH   1   6
BRANCH   1  15
ATOM     15  C   UNL     1       5.923   5.853   4.104  0.00  0.00    +0.000 C 
ATOM     16  F   UNL     1       7.169   5.292   4.080  0.00  0.00    +0.000 F 
ATOM     17  F   UNL     1       5.966   6.872   3.196  0.00  0.00    +0.000 F 
BRANCH  15  18
ATOM     18  C   UNL     1       5.541   6.347   5.487  0.00  0.00    +0.000 A 
ATOM     19  C   UNL     1       4.723   7.480   5.641  0.00  0.00    +0.000 A 
ATOM     20  C   UNL     1       4.300   7.886   6.907  0.00  0.00    +0.000 A 
ATOM     21  C   UNL     1       4.668   7.152   8.032  0.00  0.00    +0.000 A 
ATOM     22  C   UNL     1       5.465   6.012   7.894  0.00  0.00    +0.000 A 
ATOM     23  C   UNL     1       5.922   5.627   6.629  0.00  0.00    +0.000 A 
BRANCH  22  24
ATOM     24  C   UNL     1       5.657   5.134   9.048  0.00  0.00    +0.000 C 
ATOM     25  C   UNL     1       4.858   4.083   9.276  0.00  0.00    +0.000 C 
ATOM     26  C   UNL     1       3.679   3.516   8.504  0.00  0.00    +0.000 C 
ATOM     27  C   UNL     1       3.921   2.257   9.356  0.00  0.00    +0.000 C 
ATOM     28  C   UNL     1       4.741   3.064  10.385  0.00  0.00    +0.000 C 
ENDBRANCH  22  24
ENDBRANCH  15  18
ENDBRANCH   1  15
TORSDOF 5
