REMARK  Name = 
REMARK  6 active torsions:
REMARK  status: ('A' for Active; 'I' for Inactive)
REMARK    1  A    between atoms: N_1  and  C_2
REMARK    2  A    between atoms: C_2  and  C_3
REMARK    3  A    between atoms: C_3  and  O_4
REMARK    4  A    between atoms: O_4  and  C_5
REMARK    5  A    between atoms: C_8  and  C_9
REMARK    6  A    between atoms: C_9  and  N_10
REMARK                            x       y       z     vdW  Elec       q    Type
REMARK                         _______ _______ _______ _____ _____    ______ ____
ROOT
ATOM      1  C   UNL     1       4.936  -0.807  -2.416  0.00  0.00    +0.000 A 
ATOM      2  C   UNL     1       4.504  -0.380  -3.672  0.00  0.00    +0.000 A 
ATOM      3  C   UNL     1       5.221  -0.716  -4.823  0.00  0.00    +0.000 A 
ATOM      4  C   UNL     1       6.387  -1.486  -4.741  0.00  0.00    +0.000 A 
ATOM      5  C   UNL     1       6.818  -1.916  -3.479  0.00  0.00    +0.000 A 
ATOM      6  C   UNL     1       6.095  -1.581  -2.328  0.00  0.00    +0.000 A 
ENDROOT
BRANCH   1   7
ATOM      7  O   UNL     1       4.316  -0.535  -1.224  0.00  0.00    +0.000 OA
BRANCH   7   8
ATOM      8  C   UNL     1       3.168   0.315  -1.302  0.00  0.00    +0.000 C 
BRANCH   8   9
ATOM      9  C   UNL     1       2.616   0.565   0.104  0.00  0.00    +0.000 C 
BRANCH   9  10
ATOM     10  N   UNL     1       1.422   1.411   0.067  0.00  0.00    +0.000 NA
ATOM     11  H   UNL     1       1.077   1.549   1.016  0.00  0.00    +0.000 HD
ATOM     12  H   UNL     1       0.677   0.931  -0.438  0.00  0.00    +0.000 HD
ENDBRANCH   9  10
ENDBRANCH   8   9
ENDBRANCH   7   8
ENDBRANCH   1   7
BRANCH   4  13
ATOM     13  C   UNL     1       7.157  -1.842  -5.988  0.00  0.00    +0.000 C 
BRANCH  13  14
ATOM     14  N   UNL     1       8.176  -0.850  -6.314  0.00  0.00    +0.000 N 
ATOM     15  C   UNL     1       9.472  -0.896  -5.848  0.00  0.00    +0.000 A 
ATOM     16  C   UNL     1      10.178   0.122  -6.451  0.00  0.00    +0.000 A 
ATOM     17  C   UNL     1       9.292   0.796  -7.318  0.00  0.00    +0.000 A 
ATOM     18  N   UNL     1       9.549   1.846  -8.137  0.00  0.00    +0.000 NA
ATOM     19  C   UNL     1       8.494   2.271  -8.860  0.00  0.00    +0.000 A 
ATOM     20  C   UNL     1       7.217   1.733  -8.817  0.00  0.00    +0.000 A 
ATOM     21  C   UNL     1       6.961   0.655  -7.974  0.00  0.00    +0.000 A 
ATOM     22  C   UNL     1       8.040   0.186  -7.217  0.00  0.00    +0.000 A 
ENDBRANCH  13  14
ENDBRANCH   4  13
TORSDOF 6
