REMARK  Name = 
REMARK  8 active torsions:
REMARK  status: ('A' for Active; 'I' for Inactive)
REMARK    1  A    between atoms: N_1  and  C_2
REMARK    2  A    between atoms: C_2  and  C_3
REMARK    3  A    between atoms: C_3  and  N_4
REMARK    4  A    between atoms: C_3  and  C_17
REMARK    5  A    between atoms: C_5  and  C_7
REMARK    6  A    between atoms: C_20  and  O_21
REMARK    7  A    between atoms: O_21  and  C_22
REMARK    8  A    between atoms: C_22  and  C_23
REMARK                            x       y       z     vdW  Elec       q    Type
REMARK                         _______ _______ _______ _____ _____    ______ ____
ROOT
ATOM      1  C   UNL     1       2.869  -0.312   1.169  0.00  0.00    +0.000 C 
ENDROOT
BRANCH   1   2
ATOM      2  C   UNL     1       4.393  -0.343   1.320  0.00  0.00    +0.000 A 
ATOM      3  C   UNL     1       5.074   0.775   1.822  0.00  0.00    +0.000 A 
ATOM      4  C   UNL     1       6.468   0.769   1.934  0.00  0.00    +0.000 A 
ATOM      5  C   UNL     1       7.198  -0.366   1.582  0.00  0.00    +0.000 A 
ATOM      6  C   UNL     1       6.537  -1.468   1.043  0.00  0.00    +0.000 A 
ATOM      7  C   UNL     1       5.147  -1.455   0.910  0.00  0.00    +0.000 A 
BRANCH   5   8
ATOM      8  O   UNL     1       8.548  -0.292   1.797  0.00  0.00    +0.000 OA
BRANCH   8   9
ATOM      9  C   UNL     1       9.198  -1.558   1.974  0.00  0.00    +0.000 C 
BRANCH   9  10
ATOM     10  C   UNL     1      10.516  -1.405   2.698  0.00  0.00    +0.000 A 
ATOM     11  C   UNL     1      11.337  -0.300   2.489  0.00  0.00    +0.000 A 
ATOM     12  C   UNL     1      12.551  -0.222   3.168  0.00  0.00    +0.000 A 
ATOM     13  C   UNL     1      12.921  -1.255   4.022  0.00  0.00    +0.000 A 
ATOM     14  C   UNL     1      12.059  -2.328   4.161  0.00  0.00    +0.000 A 
ATOM     15  N   UNL     1      10.877  -2.429   3.515  0.00  0.00    +0.000 NA
ENDBRANCH   9  10
ENDBRANCH   8   9
ENDBRANCH   5   8
ENDBRANCH   1   2
BRANCH   1  16
ATOM     16  N   UNL     1       2.323  -1.618   1.538  0.00  0.00    +0.000 N 
ATOM     17  C   UNL     1       0.983  -1.903   1.578  0.00  0.00    +0.000 C 
ATOM     18  O   UNL     1       0.123  -1.119   1.193  0.00  0.00    +0.000 OA
ATOM     19  H   UNL     1       2.928  -2.180   2.129  0.00  0.00    +0.000 HD
BRANCH  17  20
ATOM     20  C   UNL     1       0.625  -3.246   2.061  0.00  0.00    +0.000 A 
ATOM     21  C   UNL     1      -0.561  -3.836   1.642  0.00  0.00    +0.000 A 
ATOM     22  S   UNL     1      -0.822  -5.386   2.304  0.00  0.00    +0.000 S 
ATOM     23  C   UNL     1       0.618  -5.304   3.207  0.00  0.00    +0.000 A 
ATOM     24  N   UNL     1       0.977  -6.312   4.047  0.00  0.00    +0.000 NA
ATOM     25  C   UNL     1       2.077  -6.101   4.695  0.00  0.00    +0.000 A 
ATOM     26  N   UNL     1       2.862  -4.982   4.561  0.00  0.00    +0.000 N 
ATOM     27  C   UNL     1       2.562  -3.968   3.686  0.00  0.00    +0.000 A 
ATOM     28  O   UNL     1       3.329  -3.027   3.516  0.00  0.00    +0.000 OA
ATOM     29  C   UNL     1       1.311  -4.130   2.970  0.00  0.00    +0.000 A 
ATOM     30  H   UNL     1       3.725  -4.892   5.075  0.00  0.00    +0.000 HD
ENDBRANCH  17  20
ENDBRANCH   1  16
BRANCH   1  31
ATOM     31  C   UNL     1       2.483   0.127  -0.278  0.00  0.00    +0.000 C 
BRANCH  31  32
ATOM     32  N   UNL     1       3.007   1.442  -0.684  0.00  0.00    +0.000 NA
ATOM     33  H   UNL     1       2.879   1.545  -1.689  0.00  0.00    +0.000 HD
ATOM     34  H   UNL     1       4.015   1.466  -0.530  0.00  0.00    +0.000 HD
ENDBRANCH  31  32
ENDBRANCH   1  31
TORSDOF 8
