REMARK  Name = 
REMARK  8 active torsions:
REMARK  status: ('A' for Active; 'I' for Inactive)
REMARK    1  A    between atoms: C_1  and  O_2
REMARK    2  A    between atoms: O_2  and  C_3
REMARK    3  A    between atoms: C_3  and  C_4
REMARK    4  A    between atoms: C_4  and  N_5
REMARK    5  A    between atoms: C_4  and  C_18
REMARK    6  A    between atoms: C_6  and  C_8
REMARK    7  A    between atoms: C_21  and  C_22
REMARK    8  A    between atoms: C_22  and  C_23
REMARK                            x       y       z     vdW  Elec       q    Type
REMARK                         _______ _______ _______ _____ _____    ______ ____
ROOT
ATOM      1  C   UNL     1       4.404   0.105   1.252  0.00  0.00    +0.000 C 
ENDROOT
BRANCH   1   2
ATOM      2  C   UNL     1       4.998   0.217   2.649  0.00  0.00    +0.000 A 
ATOM      3  C   UNL     1       5.849  -0.777   3.140  0.00  0.00    +0.000 A 
ATOM      4  C   UNL     1       6.417  -0.659   4.412  0.00  0.00    +0.000 A 
ATOM      5  C   UNL     1       6.175   0.470   5.208  0.00  0.00    +0.000 A 
ATOM      6  C   UNL     1       5.324   1.465   4.720  0.00  0.00    +0.000 A 
ATOM      7  C   UNL     1       4.729   1.328   3.467  0.00  0.00    +0.000 A 
BRANCH   5   8
ATOM      8  C   UNL     1       6.821   0.624   6.565  0.00  0.00    +0.000 C 
BRANCH   8   9
ATOM      9  C   UNL     1       8.178   1.296   6.575  0.00  0.00    +0.000 A 
ATOM     10  C   UNL     1       9.258   0.744   5.886  0.00  0.00    +0.000 A 
ATOM     11  C   UNL     1      10.518   1.320   6.023  0.00  0.00    +0.000 A 
ATOM     12  C   UNL     1      10.673   2.431   6.839  0.00  0.00    +0.000 A 
ATOM     13  C   UNL     1       9.551   2.932   7.476  0.00  0.00    +0.000 A 
ATOM     14  N   UNL     1       8.316   2.392   7.366  0.00  0.00    +0.000 NA
ENDBRANCH   8   9
ENDBRANCH   5   8
ENDBRANCH   1   2
BRANCH   1  15
ATOM     15  N   UNL     1       4.831   1.242   0.449  0.00  0.00    +0.000 N 
ATOM     16  C   UNL     1       5.939   1.256  -0.350  0.00  0.00    +0.000 C 
ATOM     17  O   UNL     1       6.630   0.262  -0.557  0.00  0.00    +0.000 OA
ATOM     18  H   UNL     1       4.393   2.122   0.684  0.00  0.00    +0.000 HD
BRANCH  16  19
ATOM     19  C   UNL     1       6.225   2.544  -1.001  0.00  0.00    +0.000 A 
ATOM     20  C   UNL     1       6.938   2.585  -2.191  0.00  0.00    +0.000 A 
ATOM     21  S   UNL     1       7.146   4.163  -2.808  0.00  0.00    +0.000 S 
ATOM     22  C   UNL     1       6.336   4.853  -1.481  0.00  0.00    +0.000 A 
ATOM     23  N   UNL     1       6.185   6.201  -1.370  0.00  0.00    +0.000 NA
ATOM     24  C   UNL     1       5.596   6.587  -0.287  0.00  0.00    +0.000 A 
ATOM     25  N   UNL     1       5.134   5.747   0.690  0.00  0.00    +0.000 N 
ATOM     26  C   UNL     1       5.169   4.382   0.566  0.00  0.00    +0.000 A 
ATOM     27  O   UNL     1       4.571   3.670   1.365  0.00  0.00    +0.000 OA
ATOM     28  C   UNL     1       5.883   3.891  -0.596  0.00  0.00    +0.000 A 
ATOM     29  H   UNL     1       4.637   6.106   1.492  0.00  0.00    +0.000 HD
ENDBRANCH  16  19
ENDBRANCH   1  15
BRANCH   1  30
ATOM     30  C   UNL     1       2.858   0.046   1.324  0.00  0.00    +0.000 C 
BRANCH  30  32
ATOM     31  C   UNL     1       0.871  -0.115   0.062  0.00  0.00    +0.000 C 
ATOM     32  O   UNL     1       2.291  -0.060   0.011  0.00  0.00    +0.000 OA
ENDBRANCH  30  32
ENDBRANCH   1  30
TORSDOF 7
