REMARK  Name = 
REMARK  8 active torsions:
REMARK  status: ('A' for Active; 'I' for Inactive)
REMARK    1  A    between atoms: C_1  and  C_2
REMARK    2  A    between atoms: C_2  and  C_3
REMARK    3  A    between atoms: C_5  and  C_6
REMARK    4  A    between atoms: C_11  and  N_12
REMARK    5  A    between atoms: N_12  and  C_13
REMARK    6  A    between atoms: C_13  and  C_14
REMARK    7  A    between atoms: C_17  and  C_18
REMARK    8  A    between atoms: C_18  and  N_19
REMARK                            x       y       z     vdW  Elec       q    Type
REMARK                         _______ _______ _______ _____ _____    ______ ____
ROOT
ATOM      1  C   UNL     1       2.972   1.314  -0.304  0.00  0.00    +0.000 A 
ATOM      2  C   UNL     1       4.235   1.578  -0.877  0.00  0.00    +0.000 A 
ATOM      3  C   UNL     1       4.744   2.865  -0.881  0.00  0.00    +0.000 A 
ATOM      4  N   UNL     1       4.093   3.925  -0.353  0.00  0.00    +0.000 NA
ATOM      5  C   UNL     1       2.893   3.644   0.217  0.00  0.00    +0.000 A 
ATOM      6  C   UNL     1       2.253   2.384   0.283  0.00  0.00    +0.000 A 
ENDROOT
BRANCH   3   7
ATOM      7  C   UNL     1       6.089   3.123  -1.497  0.00  0.00    +0.000 C 
ATOM      8  N   UNL     1       6.517   4.420  -1.445  0.00  0.00    +0.000 N 
ATOM      9  O   UNL     1       6.765   2.244  -2.012  0.00  0.00    +0.000 OA
ATOM     10  H   UNL     1       5.934   5.118  -0.997  0.00  0.00    +0.000 HD
ATOM     11  H   UNL     1       7.420   4.664  -1.822  0.00  0.00    +0.000 HD
ENDBRANCH   3   7
BRANCH   1  13
ATOM     12  C   UNL     1       2.986  -1.023   0.706  0.00  0.00    +0.000 C 
ATOM     13  C   UNL     1       2.527  -0.127  -0.436  0.00  0.00    +0.000 C 
ENDBRANCH   1  13
BRANCH   6  14
ATOM     14  N   UNL     1       1.062   2.328   1.031  0.00  0.00    +0.000 N 
ATOM     15  H   UNL     1       0.493   3.164   0.913  0.00  0.00    +0.000 HD
BRANCH  14  16
ATOM     16  C   UNL     1       0.266   1.124   1.121  0.00  0.00    +0.000 C 
BRANCH  16  17
ATOM     17  C   UNL     1      -1.028   1.240   1.892  0.00  0.00    +0.000 A 
ATOM     18  C   UNL     1      -2.032   0.310   1.567  0.00  0.00    +0.000 A 
ATOM     19  C   UNL     1      -3.243   0.277   2.255  0.00  0.00    +0.000 A 
ATOM     20  C   UNL     1      -3.483   1.173   3.298  0.00  0.00    +0.000 A 
ATOM     21  C   UNL     1      -2.473   2.087   3.647  0.00  0.00    +0.000 A 
ATOM     22  C   UNL     1      -1.251   2.117   2.958  0.00  0.00    +0.000 A 
BRANCH  20  23
ATOM     23  C   UNL     1      -4.815   1.164   4.004  0.00  0.00    +0.000 C 
BRANCH  23  24
ATOM     24  N   UNL     1      -4.682   0.880   5.427  0.00  0.00    +0.000 NA
ATOM     25  H   UNL     1      -4.253  -0.038   5.538  0.00  0.00    +0.000 HD
ATOM     26  H   UNL     1      -5.611   0.813   5.837  0.00  0.00    +0.000 HD
ENDBRANCH  23  24
ENDBRANCH  20  23
ENDBRANCH  16  17
ENDBRANCH  14  16
ENDBRANCH   6  14
TORSDOF 7
