REMARK  Name = 
REMARK  5 active torsions:
REMARK  status: ('A' for Active; 'I' for Inactive)
REMARK    1  A    between atoms: C_2  and  C_4
REMARK    2  A    between atoms: C_7  and  N_8
REMARK    3  A    between atoms: N_8  and  C_9
REMARK    4  A    between atoms: C_9  and  C_10
REMARK    5  A    between atoms: C_15  and  C_16
REMARK                            x       y       z     vdW  Elec       q    Type
REMARK                         _______ _______ _______ _____ _____    ______ ____
ROOT
ATOM      1  N   UNL     1       5.259   4.821  -0.191  0.00  0.00    +0.000 N 
ATOM      2  H   UNL     1       5.838   5.177  -0.954  0.00  0.00    +0.000 HD
ENDROOT
BRANCH   1   6
ATOM      3  C   UNL     1       2.393   2.207  -1.519  0.00  0.00    +0.000 A 
ATOM      4  C   UNL     1       2.196   2.941  -0.360  0.00  0.00    +0.000 A 
ATOM      5  N   UNL     1       3.102   3.852   0.096  0.00  0.00    +0.000 NA
ATOM      6  C   UNL     1       4.228   3.998  -0.636  0.00  0.00    +0.000 A 
ATOM      7  C   UNL     1       4.419   3.218  -1.787  0.00  0.00    +0.000 A 
ATOM      8  N   UNL     1       3.516   2.329  -2.276  0.00  0.00    +0.000 NA
BRANCH   3  10
ATOM      9  N   UNL     1       1.661   0.575  -3.145  0.00  0.00    +0.000 N 
ATOM     10  C   UNL     1       1.362   1.240  -1.985  0.00  0.00    +0.000 C 
ATOM     11  O   UNL     1       0.314   1.050  -1.381  0.00  0.00    +0.000 OA
ATOM     12  H   UNL     1       1.011  -0.102  -3.518  0.00  0.00    +0.000 HD
ATOM     13  H   UNL     1       2.543   0.754  -3.614  0.00  0.00    +0.000 HD
ENDBRANCH   3  10
ENDBRANCH   1   6
BRANCH   1  14
ATOM     14  C   UNL     1       4.878   5.957   0.653  0.00  0.00    +0.000 C 
BRANCH  14  15
ATOM     15  C   UNL     1       5.862   7.106   0.396  0.00  0.00    +0.000 A 
ATOM     16  N   UNL     1       6.794   6.868  -0.586  0.00  0.00    +0.000 NA
ATOM     17  C   UNL     1       7.705   7.825  -0.862  0.00  0.00    +0.000 A 
ATOM     18  C   UNL     1       7.733   9.047  -0.230  0.00  0.00    +0.000 A 
ATOM     19  C   UNL     1       6.772   9.300   0.743  0.00  0.00    +0.000 A 
ATOM     20  C   UNL     1       5.812   8.325   1.077  0.00  0.00    +0.000 A 
BRANCH  20  21
ATOM     21  C   UNL     1       4.785   8.666   2.118  0.00  0.00    +0.000 C 
ATOM     22  F   UNL     1       3.924   7.661   2.428  0.00  0.00    +0.000 F 
ATOM     23  F   UNL     1       5.354   9.041   3.297  0.00  0.00    +0.000 F 
ATOM     24  F   UNL     1       4.004   9.715   1.736  0.00  0.00    +0.000 F 
ENDBRANCH  20  21
ENDBRANCH  14  15
ENDBRANCH   1  14
TORSDOF 5
