REMARK  Name = 
REMARK  3 active torsions:
REMARK  status: ('A' for Active; 'I' for Inactive)
REMARK    1  A    between atoms: C_2  and  C_4
REMARK    2  A    between atoms: N_8  and  C_9
REMARK    3  A    between atoms: C_9  and  C_10
REMARK                            x       y       z     vdW  Elec       q    Type
REMARK                         _______ _______ _______ _____ _____    ______ ____
ROOT
ATOM      1  C   UNL     1       3.944   3.159   0.386  0.00  0.00    +0.000 A 
ATOM      2  C   UNL     1       3.379   3.905  -0.620  0.00  0.00    +0.000 A 
ATOM      3  N   UNL     1       3.833   3.903  -1.893  0.00  0.00    +0.000 NA
ATOM      4  C   UNL     1       4.919   3.154  -2.163  0.00  0.00    +0.000 A 
ATOM      5  N   UNL     1       5.281   3.113  -3.510  0.00  0.00    +0.000 N 
ATOM      6  N   UNL     1       5.566   2.437  -1.234  0.00  0.00    +0.000 NA
ATOM      7  C   UNL     1       5.068   2.454   0.024  0.00  0.00    +0.000 A 
ATOM      8  H   UNL     1       4.756   3.851  -3.963  0.00  0.00    +0.000 HD
ENDROOT
BRANCH   1  10
ATOM      9  N   UNL     1       2.089   3.332   1.945  0.00  0.00    +0.000 N 
ATOM     10  C   UNL     1       3.428   3.106   1.761  0.00  0.00    +0.000 C 
ATOM     11  O   UNL     1       4.161   2.825   2.699  0.00  0.00    +0.000 OA
ATOM     12  H   UNL     1       1.742   3.177   2.885  0.00  0.00    +0.000 HD
ATOM     13  H   UNL     1       1.411   3.324   1.196  0.00  0.00    +0.000 HD
ENDBRANCH   1  10
BRANCH   5  14
ATOM     14  C   UNL     1       6.667   2.912  -3.949  0.00  0.00    +0.000 C 
ATOM     15  C   UNL     1       6.863   1.844  -5.022  0.00  0.00    +0.000 C 
ATOM     16  C   UNL     1       7.449   1.643  -3.665  0.00  0.00    +0.000 C 
BRANCH  14  17
ATOM     17  C   UNL     1       7.482   4.197  -4.066  0.00  0.00    +0.000 A 
ATOM     18  C   UNL     1       8.167   4.720  -2.955  0.00  0.00    +0.000 A 
ATOM     19  C   UNL     1       9.023   5.816  -3.078  0.00  0.00    +0.000 A 
ATOM     20  C   UNL     1       9.200   6.424  -4.318  0.00  0.00    +0.000 A 
ATOM     21  C   UNL     1       8.489   5.964  -5.422  0.00  0.00    +0.000 A 
ATOM     22  C   UNL     1       7.628   4.872  -5.291  0.00  0.00    +0.000 A 
ENDBRANCH  14  17
ENDBRANCH   5  14
TORSDOF 3
