REMARK  Name = 
REMARK  11 active torsions:
REMARK  status: ('A' for Active; 'I' for Inactive)
REMARK    1  A    between atoms: C_1  and  C_2
REMARK    2  A    between atoms: C_2  and  C_3
REMARK    3  A    between atoms: C_3  and  C_4
REMARK    4  A    between atoms: C_4  and  N_5
REMARK    5  A    between atoms: C_4  and  C_21
REMARK    6  A    between atoms: N_5  and  C_6
REMARK    7  A    between atoms: C_6  and  C_7
REMARK    8  A    between atoms: C_10  and  C_11
REMARK    9  A    between atoms: C_11  and  N_12
REMARK   10  A    between atoms: N_12  and  C_13
REMARK   11  A    between atoms: C_13  and  C_14
REMARK                            x       y       z     vdW  Elec       q    Type
REMARK                         _______ _______ _______ _____ _____    ______ ____
ROOT
ATOM      1  C   UNL     1       4.732  -0.287   1.439  0.00  0.00    +0.000 C 
ENDROOT
BRANCH   1   2
ATOM      2  C   UNL     1       5.325  -0.628   2.771  0.00  0.00    +0.000 A 
ATOM      3  C   UNL     1       6.618  -0.248   3.127  0.00  0.00    +0.000 A 
ATOM      4  C   UNL     1       7.034  -0.390   4.449  0.00  0.00    +0.000 A 
ATOM      5  C   UNL     1       6.153  -0.944   5.376  0.00  0.00    +0.000 A 
ATOM      6  N   UNL     1       4.914  -1.372   5.026  0.00  0.00    +0.000 NA
ATOM      7  C   UNL     1       4.530  -1.214   3.747  0.00  0.00    +0.000 A 
BRANCH   5   8
ATOM      8  C   UNL     1       6.536  -1.038   6.844  0.00  0.00    +0.000 C 
BRANCH   8   9
ATOM      9  N   UNL     1       5.846  -2.149   7.501  0.00  0.00    +0.000 NA
ATOM     10  H   UNL     1       6.005  -3.001   6.969  0.00  0.00    +0.000 HD
BRANCH   9  11
ATOM     11  C   UNL     1       6.194  -2.296   8.910  0.00  0.00    +0.000 C 
BRANCH  11  12
ATOM     12  C   UNL     1       5.468  -3.515   9.528  0.00  0.00    +0.000 C 
ATOM     13  C   UNL     1       3.945  -3.422   9.500  0.00  0.00    +0.000 C 
ATOM     14  C   UNL     1       3.551  -2.949  10.886  0.00  0.00    +0.000 C 
ATOM     15  N   UNL     1       4.810  -2.775  11.609  0.00  0.00    +0.000 NA
ATOM     16  N   UNL     1       5.774  -3.638  10.965  0.00  0.00    +0.000 NA
ATOM     17  H   UNL     1       4.697  -2.955  12.609  0.00  0.00    +0.000 HD
ATOM     18  H   UNL     1       5.629  -4.615  11.236  0.00  0.00    +0.000 HD
ENDBRANCH  11  12
ENDBRANCH   9  11
ENDBRANCH   8   9
ENDBRANCH   5   8
ENDBRANCH   1   2
BRANCH   1  19
ATOM     19  N   UNL     1       5.032  -1.243   0.382  0.00  0.00    +0.000 NA
ATOM     20  H   UNL     1       6.040  -1.339   0.275  0.00  0.00    +0.000 HD
BRANCH  19  21
ATOM     21  C   UNL     1       4.429  -0.887  -0.918  0.00  0.00    +0.000 C 
BRANCH  21  22
ATOM     22  C   UNL     1       2.908  -0.848  -0.750  0.00  0.00    +0.000 A 
ATOM     23  C   UNL     1       2.184   0.305  -0.466  0.00  0.00    +0.000 A 
ATOM     24  S   UNL     1       0.517   0.042  -0.247  0.00  0.00    +0.000 S 
ATOM     25  C   UNL     1       0.694  -1.622  -0.543  0.00  0.00    +0.000 A 
ATOM     26  N   UNL     1      -0.386  -2.444  -0.512  0.00  0.00    +0.000 NA
ATOM     27  C   UNL     1      -0.110  -3.684  -0.724  0.00  0.00    +0.000 A 
ATOM     28  N   UNL     1       1.150  -4.181  -0.965  0.00  0.00    +0.000 N 
ATOM     29  C   UNL     1       2.275  -3.382  -1.032  0.00  0.00    +0.000 A 
ATOM     30  O   UNL     1       3.374  -3.861  -1.288  0.00  0.00    +0.000 OA
ATOM     31  C   UNL     1       2.009  -1.977  -0.788  0.00  0.00    +0.000 A 
ATOM     32  H   UNL     1       1.295  -5.171  -1.124  0.00  0.00    +0.000 HD
ENDBRANCH  21  22
BRANCH  21  33
ATOM     33  C   UNL     1       4.960   0.431  -1.546  0.00  0.00    +0.000 C 
BRANCH  33  35
ATOM     34  C   UNL     1       6.810   1.892  -2.374  0.00  0.00    +0.000 C 
ATOM     35  C   UNL     1       6.467   0.529  -1.777  0.00  0.00    +0.000 C 
ENDBRANCH  33  35
ENDBRANCH  21  33
ENDBRANCH  19  21
ENDBRANCH   1  19
TORSDOF 10
