REMARK  Name = 
REMARK  8 active torsions:
REMARK  status: ('A' for Active; 'I' for Inactive)
REMARK    1  A    between atoms: C_2  and  C_16
REMARK    2  A    between atoms: N_3  and  C_4
REMARK    3  A    between atoms: C_4  and  C_5
REMARK    4  A    between atoms: C_8  and  C_9
REMARK    5  A    between atoms: C_9  and  C_10
REMARK    6  A    between atoms: C_10  and  O_11
REMARK    7  A    between atoms: C_10  and  C_12
REMARK    8  A    between atoms: C_12  and  O_13
REMARK                            x       y       z     vdW  Elec       q    Type
REMARK                         _______ _______ _______ _____ _____    ______ ____
ROOT
ATOM      1  O   UNL     1       3.897   0.069   0.711  0.00  0.00    +0.000 OA
ATOM      2  C   UNL     1       3.446  -0.676  -0.155  0.00  0.00    +0.000 C 
ATOM      3  N   UNL     1       2.678  -1.771   0.132  0.00  0.00    +0.000 N 
ATOM      4  H   UNL     1       2.352  -2.380  -0.604  0.00  0.00    +0.000 HD
ENDROOT
BRANCH   2   5
ATOM      5  C   UNL     1       3.743  -0.484  -1.575  0.00  0.00    +0.000 A 
ATOM      6  C   UNL     1       4.923   0.121  -1.981  0.00  0.00    +0.000 A 
ATOM      7  S   UNL     1       5.099   0.170  -3.682  0.00  0.00    +0.000 S 
ATOM      8  C   UNL     1       3.584  -0.571  -3.917  0.00  0.00    +0.000 A 
ATOM      9  N   UNL     1       3.118  -0.843  -5.166  0.00  0.00    +0.000 NA
ATOM     10  C   UNL     1       1.950  -1.396  -5.191  0.00  0.00    +0.000 A 
ATOM     11  N   UNL     1       1.195  -1.682  -4.080  0.00  0.00    +0.000 N 
ATOM     12  C   UNL     1       1.610  -1.393  -2.807  0.00  0.00    +0.000 A 
ATOM     13  O   UNL     1       0.887  -1.622  -1.841  0.00  0.00    +0.000 OA
ATOM     14  C   UNL     1       2.945  -0.830  -2.721  0.00  0.00    +0.000 A 
ATOM     15  H   UNL     1       0.279  -2.096  -4.167  0.00  0.00    +0.000 HD
ENDBRANCH   2   5
BRANCH   3  16
ATOM     16  C   UNL     1       2.223  -2.085   1.463  0.00  0.00    +0.000 C 
BRANCH  16  17
ATOM     17  C   UNL     1       3.157  -3.039   2.165  0.00  0.00    +0.000 A 
ATOM     18  C   UNL     1       4.259  -2.544   2.855  0.00  0.00    +0.000 A 
ATOM     19  C   UNL     1       5.114  -3.440   3.489  0.00  0.00    +0.000 A 
ATOM     20  C   UNL     1       4.865  -4.812   3.413  0.00  0.00    +0.000 A 
ATOM     21  C   UNL     1       3.747  -5.213   2.689  0.00  0.00    +0.000 A 
ATOM     22  N   UNL     1       2.896  -4.366   2.065  0.00  0.00    +0.000 NA
BRANCH  20  23
ATOM     23  C   UNL     1       5.752  -5.806   4.119  0.00  0.00    +0.000 C 
BRANCH  23  24
ATOM     24  C   UNL     1       6.406  -6.840   3.189  0.00  0.00    +0.000 C 
BRANCH  24  25
ATOM     25  O   UNL     1       7.249  -6.193   2.231  0.00  0.00    +0.000 OA
ATOM     26  H   UNL     1       7.956  -5.727   2.709  0.00  0.00    +0.000 HD
ENDBRANCH  24  25
BRANCH  24  27
ATOM     27  C   UNL     1       7.234  -7.854   3.998  0.00  0.00    +0.000 C 
BRANCH  27  28
ATOM     28  O   UNL     1       7.844  -8.834   3.161  0.00  0.00    +0.000 OA
ATOM     29  H   UNL     1       7.289  -8.945   2.369  0.00  0.00    +0.000 HD
ENDBRANCH  27  28
ENDBRANCH  24  27
ENDBRANCH  23  24
ENDBRANCH  20  23
ENDBRANCH  16  17
ENDBRANCH   3  16
TORSDOF 8
