REMARK  Name = 
REMARK  4 active torsions:
REMARK  status: ('A' for Active; 'I' for Inactive)
REMARK    1  A    between atoms: C_2  and  C_4
REMARK    2  A    between atoms: N_8  and  C_9
REMARK    3  A    between atoms: C_9  and  C_10
REMARK    4  A    between atoms: C_14  and  C_15
REMARK                            x       y       z     vdW  Elec       q    Type
REMARK                         _______ _______ _______ _____ _____    ______ ____
ROOT
ATOM      1  C   UNL     1       2.645   3.454  -4.923  0.00  0.00    +0.000 A 
ATOM      2  C   UNL     1       3.969   3.489  -4.506  0.00  0.00    +0.000 A 
ATOM      3  C   UNL     1       4.324   4.318  -3.442  0.00  0.00    +0.000 A 
ATOM      4  C   UNL     1       3.357   5.086  -2.805  0.00  0.00    +0.000 A 
ATOM      5  N   UNL     1       3.612   5.879  -1.727  0.00  0.00    +0.000 N 
ATOM      6  N   UNL     1       2.071   5.076  -3.219  0.00  0.00    +0.000 NA
ATOM      7  C   UNL     1       1.741   4.277  -4.268  0.00  0.00    +0.000 A 
ATOM      8  H   UNL     1       2.807   6.396  -1.399  0.00  0.00    +0.000 HD
ENDROOT
BRANCH   1  10
ATOM      9  N   UNL     1       2.905   1.452  -6.265  0.00  0.00    +0.000 N 
ATOM     10  C   UNL     1       2.185   2.592  -6.029  0.00  0.00    +0.000 C 
ATOM     11  O   UNL     1       1.188   2.861  -6.683  0.00  0.00    +0.000 OA
ATOM     12  H   UNL     1       2.538   0.820  -6.964  0.00  0.00    +0.000 HD
ATOM     13  H   UNL     1       3.572   1.082  -5.602  0.00  0.00    +0.000 HD
ENDBRANCH   1  10
BRANCH   5  14
ATOM     14  C   UNL     1       4.869   6.004  -1.031  0.00  0.00    +0.000 C 
BRANCH  14  15
ATOM     15  C   UNL     1       5.701   7.142  -1.573  0.00  0.00    +0.000 A 
ATOM     16  C   UNL     1       5.193   8.448  -1.565  0.00  0.00    +0.000 A 
ATOM     17  C   UNL     1       5.979   9.514  -1.990  0.00  0.00    +0.000 A 
ATOM     18  C   UNL     1       7.294   9.290  -2.399  0.00  0.00    +0.000 A 
ATOM     19  C   UNL     1       7.859   8.001  -2.387  0.00  0.00    +0.000 A 
ATOM     20  C   UNL     1       7.024   6.931  -2.007  0.00  0.00    +0.000 A 
BRANCH  19  21
ATOM     21  C   UNL     1       9.293   7.790  -2.680  0.00  0.00    +0.000 A 
ATOM     22  C   UNL     1      10.263   8.723  -2.294  0.00  0.00    +0.000 A 
ATOM     23  C   UNL     1      11.607   8.467  -2.544  0.00  0.00    +0.000 A 
ATOM     24  C   UNL     1      11.962   7.285  -3.174  0.00  0.00    +0.000 A 
ATOM     25  C   UNL     1      10.951   6.406  -3.525  0.00  0.00    +0.000 A 
ATOM     26  N   UNL     1       9.635   6.625  -3.287  0.00  0.00    +0.000 NA
ENDBRANCH  19  21
ENDBRANCH  14  15
ENDBRANCH   5  14
TORSDOF 4
