REMARK  Name = 
REMARK  5 active torsions:
REMARK  status: ('A' for Active; 'I' for Inactive)
REMARK    1  A    between atoms: N_1  and  C_2
REMARK    2  A    between atoms: C_2  and  C_3
REMARK    3  A    between atoms: C_7  and  C_8
REMARK    4  A    between atoms: C_9  and  C_10
REMARK    5  A    between atoms: C_13  and  C_14
REMARK                            x       y       z     vdW  Elec       q    Type
REMARK                         _______ _______ _______ _____ _____    ______ ____
ROOT
ATOM      1  C   UNL     1       6.066   3.199   1.121  0.00  0.00    +0.000 C 
ATOM      2  C   UNL     1       6.633   4.398   1.339  0.00  0.00    +0.000 C 
ENDROOT
BRANCH   1   7
ATOM      3  C   UNL     1       2.641   4.036   0.133  0.00  0.00    +0.000 A 
ATOM      4  C   UNL     1       2.061   2.799  -0.133  0.00  0.00    +0.000 A 
ATOM      5  C   UNL     1       2.826   1.650   0.033  0.00  0.00    +0.000 A 
ATOM      6  C   UNL     1       4.149   1.766   0.455  0.00  0.00    +0.000 A 
ATOM      7  C   UNL     1       4.665   3.033   0.701  0.00  0.00    +0.000 A 
ATOM      8  N   UNL     1       3.926   4.160   0.549  0.00  0.00    +0.000 NA
BRANCH   3   9
ATOM      9  C   UNL     1       1.847   5.311  -0.049  0.00  0.00    +0.000 C 
BRANCH   9  10
ATOM     10  N   UNL     1       0.685   5.395   0.840  0.00  0.00    +0.000 NA
ATOM     11  H   UNL     1       0.232   6.296   0.696  0.00  0.00    +0.000 HD
ATOM     12  H   UNL     1       1.031   5.407   1.801  0.00  0.00    +0.000 HD
ENDBRANCH   9  10
ENDBRANCH   3   9
ENDBRANCH   1   7
BRANCH   2  13
ATOM     13  C   UNL     1       8.029   4.638   1.737  0.00  0.00    +0.000 A 
ATOM     14  C   UNL     1       9.078   3.777   1.392  0.00  0.00    +0.000 A 
ATOM     15  C   UNL     1      10.396   4.077   1.756  0.00  0.00    +0.000 A 
ATOM     16  C   UNL     1      10.689   5.255   2.451  0.00  0.00    +0.000 A 
ATOM     17  C   UNL     1       9.651   6.126   2.795  0.00  0.00    +0.000 A 
ATOM     18  C   UNL     1       8.334   5.817   2.434  0.00  0.00    +0.000 A 
BRANCH  16  19
ATOM     19  C   UNL     1      12.104   5.520   2.826  0.00  0.00    +0.000 C 
ATOM     20  N   UNL     1      12.478   6.822   3.015  0.00  0.00    +0.000 N 
ATOM     21  O   UNL     1      12.920   4.613   2.932  0.00  0.00    +0.000 OA
ATOM     22  H   UNL     1      11.908   7.606   2.734  0.00  0.00    +0.000 HD
ATOM     23  H   UNL     1      13.464   6.986   3.176  0.00  0.00    +0.000 HD
ENDBRANCH  16  19
ENDBRANCH   2  13
TORSDOF 5
