REMARK  Name = 
REMARK  6 active torsions:
REMARK  status: ('A' for Active; 'I' for Inactive)
REMARK    1  A    between atoms: N_1  and  C_2
REMARK    2  A    between atoms: C_2  and  C_3
REMARK    3  A    between atoms: C_3  and  C_4
REMARK    4  A    between atoms: C_7  and  C_8
REMARK    5  A    between atoms: C_8  and  N_9
REMARK    6  A    between atoms: C_14  and  C_15
REMARK                            x       y       z     vdW  Elec       q    Type
REMARK                         _______ _______ _______ _____ _____    ______ ____
ROOT
ATOM      1  N   UNL     1       9.614   1.943  -1.433  0.00  0.00    +0.000 N 
ATOM      2  N   UNL     1       9.894   3.264  -1.420  0.00  0.00    +0.000 NA
ATOM      3  N   UNL     1       9.795   3.692  -2.672  0.00  0.00    +0.000 NA
ATOM      4  C   UNL     1       9.556   2.610  -3.474  0.00  0.00    +0.000 A 
ATOM      5  C   UNL     1       9.256   2.528  -4.837  0.00  0.00    +0.000 A 
ATOM      6  C   UNL     1       9.051   1.261  -5.414  0.00  0.00    +0.000 A 
ATOM      7  C   UNL     1       9.217   0.099  -4.641  0.00  0.00    +0.000 A 
ATOM      8  C   UNL     1       9.487   0.168  -3.266  0.00  0.00    +0.000 A 
ATOM      9  C   UNL     1       9.599   1.450  -2.715  0.00  0.00    +0.000 A 
ENDROOT
BRANCH   6  10
ATOM     10  C   UNL     1       8.599   1.236  -6.836  0.00  0.00    +0.000 C 
ATOM     11  N   UNL     1       8.449   0.032  -7.463  0.00  0.00    +0.000 N 
ATOM     12  O   UNL     1       8.340   2.270  -7.441  0.00  0.00    +0.000 OA
ATOM     13  H   UNL     1       8.666  -0.869  -7.070  0.00  0.00    +0.000 HD
ATOM     14  H   UNL     1       8.122   0.066  -8.421  0.00  0.00    +0.000 HD
ENDBRANCH   6  10
BRANCH   1  15
ATOM     15  C   UNL     1       8.969   1.345  -0.273  0.00  0.00    +0.000 C 
BRANCH  15  19
ATOM     16  C   UNL     1       4.709   1.716  -0.998  0.00  0.00    +0.000 A 
ATOM     17  C   UNL     1       5.356   0.488  -1.184  0.00  0.00    +0.000 A 
ATOM     18  C   UNL     1       6.719   0.351  -0.904  0.00  0.00    +0.000 A 
ATOM     19  C   UNL     1       7.463   1.440  -0.429  0.00  0.00    +0.000 A 
ATOM     20  C   UNL     1       6.805   2.662  -0.221  0.00  0.00    +0.000 A 
ATOM     21  C   UNL     1       5.442   2.797  -0.498  0.00  0.00    +0.000 A 
BRANCH  16  22
ATOM     22  C   UNL     1       3.247   1.875  -1.344  0.00  0.00    +0.000 C 
BRANCH  22  23
ATOM     23  C   UNL     1       2.330   1.536  -0.166  0.00  0.00    +0.000 C 
BRANCH  23  24
ATOM     24  N   UNL     1       0.920   1.673  -0.539  0.00  0.00    +0.000 NA
ATOM     25  H   UNL     1       0.336   1.430   0.260  0.00  0.00    +0.000 HD
ATOM     26  H   UNL     1       0.692   1.011  -1.275  0.00  0.00    +0.000 HD
ENDBRANCH  23  24
ENDBRANCH  22  23
ENDBRANCH  16  22
ENDBRANCH  15  19
ENDBRANCH   1  15
TORSDOF 6
