REMARK  Name = 
REMARK  7 active torsions:
REMARK  status: ('A' for Active; 'I' for Inactive)
REMARK    1  A    between atoms: N_1  and  C_2
REMARK    2  A    between atoms: C_5  and  C_6
REMARK    3  A    between atoms: C_6  and  O_7
REMARK    4  A    between atoms: O_7  and  C_8
REMARK    5  A    between atoms: C_11  and  C_12
REMARK    6  A    between atoms: C_12  and  C_13
REMARK    7  A    between atoms: C_13  and  O_14
REMARK                            x       y       z     vdW  Elec       q    Type
REMARK                         _______ _______ _______ _____ _____    ______ ____
ROOT
ATOM      1  O   UNL     1       4.023  -1.180   0.253  0.00  0.00    +0.000 OA
ENDROOT
BRANCH   1   2
ATOM      2  C   UNL     1       5.351  -1.186  -0.109  0.00  0.00    +0.000 A 
ATOM      3  C   UNL     1       5.994  -2.403  -0.237  0.00  0.00    +0.000 A 
ATOM      4  N   UNL     1       7.293  -2.504  -0.620  0.00  0.00    +0.000 NA
ATOM      5  C   UNL     1       7.935  -1.326  -0.845  0.00  0.00    +0.000 A 
ATOM      6  C   UNL     1       7.283  -0.108  -0.686  0.00  0.00    +0.000 A 
ATOM      7  N   UNL     1       5.988  -0.012  -0.317  0.00  0.00    +0.000 NA
BRANCH   5   8
ATOM      8  C   UNL     1       9.365  -1.350  -1.324  0.00  0.00    +0.000 C 
BRANCH   8   9
ATOM      9  C   UNL     1       9.936  -2.758  -1.476  0.00  0.00    +0.000 C 
BRANCH   9  10
ATOM     10  O   UNL     1       9.203  -3.507  -2.445  0.00  0.00    +0.000 OA
ATOM     11  H   UNL     1       8.298  -3.586  -2.069  0.00  0.00    +0.000 HD
ENDBRANCH   9  10
ENDBRANCH   8   9
ENDBRANCH   5   8
ENDBRANCH   1   2
BRANCH   1  12
ATOM     12  C   UNL     1       3.370   0.023  -0.173  0.00  0.00    +0.000 C 
BRANCH  12  16
ATOM     13  C   UNL     1      -0.394   1.199   1.710  0.00  0.00    +0.000 C 
ATOM     14  C   UNL     1       0.356  -0.006   2.286  0.00  0.00    +0.000 C 
ATOM     15  C   UNL     1       1.807  -0.041   1.808  0.00  0.00    +0.000 C 
ATOM     16  C   UNL     1       1.905  -0.011   0.275  0.00  0.00    +0.000 C 
ATOM     17  C   UNL     1       1.144   1.195  -0.294  0.00  0.00    +0.000 C 
ATOM     18  C   UNL     1      -0.308   1.222   0.180  0.00  0.00    +0.000 C 
BRANCH  13  19
ATOM     19  N   UNL     1      -1.795   1.178   2.126  0.00  0.00    +0.000 NA
ATOM     20  H   UNL     1      -1.849   1.130   3.144  0.00  0.00    +0.000 HD
ATOM     21  H   UNL     1      -2.245   0.330   1.783  0.00  0.00    +0.000 HD
ENDBRANCH  13  19
ENDBRANCH  12  16
ENDBRANCH   1  12
TORSDOF 7
