REMARK  Name = 
REMARK  6 active torsions:
REMARK  status: ('A' for Active; 'I' for Inactive)
REMARK    1  A    between atoms: C_2  and  C_20
REMARK    2  A    between atoms: N_3  and  C_4
REMARK    3  A    between atoms: C_4  and  C_5
REMARK    4  A    between atoms: C_8  and  C_9
REMARK    5  A    between atoms: C_9  and  N_10
REMARK    6  A    between atoms: C_11  and  C_13
REMARK                            x       y       z     vdW  Elec       q    Type
REMARK                         _______ _______ _______ _____ _____    ______ ____
ROOT
ATOM      1  C   UNL     1       8.312  11.854   0.512  0.00  0.00    +0.000 A 
ATOM      2  C   UNL     1       8.552  11.624   1.873  0.00  0.00    +0.000 A 
ATOM      3  C   UNL     1       7.735  10.756   2.609  0.00  0.00    +0.000 A 
ATOM      4  C   UNL     1       6.673  10.080   1.993  0.00  0.00    +0.000 A 
ATOM      5  C   UNL     1       6.453  10.286   0.624  0.00  0.00    +0.000 A 
ATOM      6  C   UNL     1       7.270  11.156  -0.111  0.00  0.00    +0.000 A 
ENDROOT
BRANCH   1   7
ATOM      7  C   UNL     1       9.142  12.852  -0.257  0.00  0.00    +0.000 C 
BRANCH   7  10
ATOM      8  O   UNL     1      10.871  14.193  -1.931  0.00  0.00    +0.000 OA
ATOM      9  C   UNL     1      11.155  13.037  -1.621  0.00  0.00    +0.000 C 
ATOM     10  N   UNL     1      10.319  12.266  -0.848  0.00  0.00    +0.000 N 
ATOM     11  H   UNL     1      10.670  11.407  -0.437  0.00  0.00    +0.000 HD
BRANCH   9  12
ATOM     12  C   UNL     1      12.394  12.409  -2.095  0.00  0.00    +0.000 A 
ATOM     13  C   UNL     1      13.012  12.881  -3.245  0.00  0.00    +0.000 A 
ATOM     14  S   UNL     1      14.442  12.042  -3.648  0.00  0.00    +0.000 S 
ATOM     15  C   UNL     1      14.314  11.051  -2.271  0.00  0.00    +0.000 A 
ATOM     16  N   UNL     1      15.263  10.118  -1.987  0.00  0.00    +0.000 NA
ATOM     17  C   UNL     1      15.058   9.470  -0.889  0.00  0.00    +0.000 A 
ATOM     18  N   UNL     1      13.986   9.660  -0.056  0.00  0.00    +0.000 N 
ATOM     19  C   UNL     1      12.979  10.555  -0.327  0.00  0.00    +0.000 A 
ATOM     20  O   UNL     1      11.995  10.647   0.400  0.00  0.00    +0.000 OA
ATOM     21  C   UNL     1      13.178  11.335  -1.534  0.00  0.00    +0.000 A 
ATOM     22  H   UNL     1      13.878   9.104   0.779  0.00  0.00    +0.000 HD
ENDBRANCH   9  12
ENDBRANCH   7  10
ENDBRANCH   1   7
BRANCH   4  23
ATOM     23  C   UNL     1       5.765   9.174   2.788  0.00  0.00    +0.000 C 
BRANCH  23  24
ATOM     24  N   UNL     1       4.637   9.894   3.335  0.00  0.00    +0.000 N 
ATOM     25  C   UNL     1       3.651   9.243   4.058  0.00  0.00    +0.000 C 
ATOM     26  O   UNL     1       3.683   8.039   4.293  0.00  0.00    +0.000 OA
ATOM     27  H   UNL     1       4.471  10.845   3.031  0.00  0.00    +0.000 HD
BRANCH  25  28
ATOM     28  C   UNL     1       2.529  10.195   4.539  0.00  0.00    +0.000 C 
ATOM     29  C   UNL     1       1.419   9.522   5.328  0.00  0.00    +0.000 C 
ATOM     30  C   UNL     1       2.007   9.397   6.720  0.00  0.00    +0.000 C 
ATOM     31  C   UNL     1       2.949  10.585   6.841  0.00  0.00    +0.000 C 
ATOM     32  N   UNL     1       3.078  11.176   5.502  0.00  0.00    +0.000 NA
ATOM     33  H   UNL     1       4.061  11.359   5.299  0.00  0.00    +0.000 HD
ENDBRANCH  25  28
ENDBRANCH  23  24
ENDBRANCH   4  23
TORSDOF 6
