REMARK  Name = 
REMARK  5 active torsions:
REMARK  status: ('A' for Active; 'I' for Inactive)
REMARK    1  A    between atoms: C_2  and  C_17
REMARK    2  A    between atoms: N_3  and  C_4
REMARK    3  A    between atoms: C_4  and  C_5
REMARK    4  A    between atoms: C_8  and  C_9
REMARK    5  A    between atoms: C_9  and  N_10
REMARK                            x       y       z     vdW  Elec       q    Type
REMARK                         _______ _______ _______ _____ _____    ______ ____
ROOT
ATOM      1  O   UNL     1       1.003  -0.427  -0.127  0.00  0.00    +0.000 OA
ATOM      2  C   UNL     1       2.228  -0.536  -0.158  0.00  0.00    +0.000 C 
ATOM      3  N   UNL     1       2.957  -0.694   0.992  0.00  0.00    +0.000 N 
ATOM      4  H   UNL     1       3.951  -0.908   0.950  0.00  0.00    +0.000 HD
ENDROOT
BRANCH   2   5
ATOM      5  C   UNL     1       2.970  -0.438  -1.425  0.00  0.00    +0.000 A 
ATOM      6  C   UNL     1       2.287  -0.111  -2.590  0.00  0.00    +0.000 A 
ATOM      7  S   UNL     1       3.300   0.109  -3.943  0.00  0.00    +0.000 S 
ATOM      8  C   UNL     1       4.688  -0.245  -3.026  0.00  0.00    +0.000 A 
ATOM      9  N   UNL     1       5.928  -0.172  -3.581  0.00  0.00    +0.000 NA
ATOM     10  C   UNL     1       6.890  -0.499  -2.784  0.00  0.00    +0.000 A 
ATOM     11  N   UNL     1       6.722  -0.914  -1.489  0.00  0.00    +0.000 N 
ATOM     12  C   UNL     1       5.490  -0.997  -0.886  0.00  0.00    +0.000 A 
ATOM     13  O   UNL     1       5.372  -1.388   0.271  0.00  0.00    +0.000 OA
ATOM     14  C   UNL     1       4.377  -0.590  -1.723  0.00  0.00    +0.000 A 
ATOM     15  H   UNL     1       7.513  -1.188  -0.926  0.00  0.00    +0.000 HD
ENDBRANCH   2   5
BRANCH   3  16
ATOM     16  C   UNL     1       2.322  -0.659   2.282  0.00  0.00    +0.000 C 
BRANCH  16  17
ATOM     17  C   UNL     1       3.296  -0.878   3.401  0.00  0.00    +0.000 A 
ATOM     18  C   UNL     1       4.022   0.174   3.968  0.00  0.00    +0.000 A 
ATOM     19  C   UNL     1       4.891  -0.080   5.029  0.00  0.00    +0.000 A 
ATOM     20  C   UNL     1       5.016  -1.385   5.508  0.00  0.00    +0.000 A 
ATOM     21  N   UNL     1       4.341  -2.422   4.950  0.00  0.00    +0.000 NA
ATOM     22  C   UNL     1       3.518  -2.151   3.911  0.00  0.00    +0.000 A 
BRANCH  20  23
ATOM     23  C   UNL     1       5.869  -1.684   6.712  0.00  0.00    +0.000 C 
BRANCH  23  24
ATOM     24  N   UNL     1       7.244  -2.008   6.355  0.00  0.00    +0.000 N 
ATOM     25  C   UNL     1       7.718  -3.275   6.121  0.00  0.00    +0.000 A 
ATOM     26  C   UNL     1       9.084  -3.197   5.958  0.00  0.00    +0.000 A 
ATOM     27  C   UNL     1       9.448  -1.837   6.094  0.00  0.00    +0.000 A 
ATOM     28  C   UNL     1       8.294  -1.123   6.340  0.00  0.00    +0.000 A 
ENDBRANCH  23  24
ENDBRANCH  20  23
ENDBRANCH  16  17
ENDBRANCH   3  16
TORSDOF 5
