REMARK  Name = 
REMARK  10 active torsions:
REMARK  status: ('A' for Active; 'I' for Inactive)
REMARK    1  A    between atoms: C_1  and  C_2
REMARK    2  A    between atoms: C_2  and  N_3
REMARK    3  A    between atoms: C_2  and  C_25
REMARK    4  A    between atoms: N_3  and  C_4
REMARK    5  A    between atoms: C_4  and  C_5
REMARK    6  A    between atoms: C_8  and  C_9
REMARK    7  A    between atoms: C_9  and  N_10
REMARK    8  A    between atoms: C_11  and  C_13
REMARK    9  A    between atoms: C_29  and  O_30
REMARK   10  A    between atoms: O_30  and  C_31
REMARK                            x       y       z     vdW  Elec       q    Type
REMARK                         _______ _______ _______ _____ _____    ______ ____
ROOT
ATOM      1  C   UNL     1       2.988  -2.020  -3.023  0.00  0.00    +0.000 A 
ATOM      2  C   UNL     1       3.543  -1.041  -3.859  0.00  0.00    +0.000 A 
ATOM      3  C   UNL     1       3.976  -1.366  -5.149  0.00  0.00    +0.000 A 
ATOM      4  C   UNL     1       3.863  -2.676  -5.630  0.00  0.00    +0.000 A 
ATOM      5  C   UNL     1       3.355  -3.665  -4.778  0.00  0.00    +0.000 A 
ATOM      6  C   UNL     1       2.914  -3.339  -3.493  0.00  0.00    +0.000 A 
ENDROOT
BRANCH   1   7
ATOM      7  C   UNL     1       2.475  -1.670  -1.641  0.00  0.00    +0.000 C 
BRANCH   7   8
ATOM      8  N   UNL     1       1.306  -0.794  -1.716  0.00  0.00    +0.000 NA
ATOM      9  H   UNL     1       1.562   0.052  -2.224  0.00  0.00    +0.000 HD
BRANCH   8  11
ATOM     10  C   UNL     1       0.261  -1.594   0.412  0.00  0.00    +0.000 C 
ATOM     11  C   UNL     1       0.770  -0.398  -0.408  0.00  0.00    +0.000 C 
BRANCH  11  12
ATOM     12  C   UNL     1      -0.380   0.586  -0.594  0.00  0.00    +0.000 A 
ATOM     13  C   UNL     1      -1.513   0.235  -1.344  0.00  0.00    +0.000 A 
ATOM     14  C   UNL     1      -2.589   1.112  -1.464  0.00  0.00    +0.000 A 
ATOM     15  C   UNL     1      -2.557   2.355  -0.830  0.00  0.00    +0.000 A 
ATOM     16  C   UNL     1      -1.457   2.711  -0.053  0.00  0.00    +0.000 A 
ATOM     17  C   UNL     1      -0.357   1.845   0.028  0.00  0.00    +0.000 A 
BRANCH  16  18
ATOM     18  O   UNL     1      -1.320   3.880   0.633  0.00  0.00    +0.000 OA
BRANCH  18  19
ATOM     19  C   UNL     1      -2.475   4.470   1.216  0.00  0.00    +0.000 C 
ATOM     20  F   UNL     1      -3.576   3.691   1.191  0.00  0.00    +0.000 F 
ATOM     21  F   UNL     1      -2.203   4.752   2.512  0.00  0.00    +0.000 F 
ATOM     22  F   UNL     1      -2.751   5.634   0.585  0.00  0.00    +0.000 F 
ENDBRANCH  18  19
ENDBRANCH  16  18
ENDBRANCH  11  12
ENDBRANCH   8  11
ENDBRANCH   7   8
ENDBRANCH   1   7
BRANCH   4  23
ATOM     23  C   UNL     1       4.332  -3.037  -7.016  0.00  0.00    +0.000 C 
BRANCH  23  24
ATOM     24  N   UNL     1       5.720  -3.410  -6.991  0.00  0.00    +0.000 N 
ATOM     25  C   UNL     1       6.419  -3.693  -8.137  0.00  0.00    +0.000 C 
ATOM     26  O   UNL     1       5.916  -3.594  -9.252  0.00  0.00    +0.000 OA
ATOM     27  H   UNL     1       6.083  -3.724  -6.100  0.00  0.00    +0.000 HD
BRANCH  25  28
ATOM     28  C   UNL     1       7.832  -4.047  -7.954  0.00  0.00    +0.000 A 
ATOM     29  C   UNL     1       8.722  -3.895  -9.008  0.00  0.00    +0.000 A 
ATOM     30  S   UNL     1      10.336  -4.260  -8.595  0.00  0.00    +0.000 S 
ATOM     31  C   UNL     1       9.891  -4.691  -7.010  0.00  0.00    +0.000 A 
ATOM     32  N   UNL     1      10.821  -5.106  -6.105  0.00  0.00    +0.000 NA
ATOM     33  C   UNL     1      10.343  -5.429  -4.954  0.00  0.00    +0.000 A 
ATOM     34  N   UNL     1       9.017  -5.372  -4.618  0.00  0.00    +0.000 N 
ATOM     35  C   UNL     1       8.044  -4.946  -5.486  0.00  0.00    +0.000 A 
ATOM     36  O   UNL     1       6.866  -4.899  -5.151  0.00  0.00    +0.000 OA
ATOM     37  C   UNL     1       8.531  -4.560  -6.800  0.00  0.00    +0.000 A 
ATOM     38  H   UNL     1       8.702  -5.644  -3.700  0.00  0.00    +0.000 HD
ENDBRANCH  25  28
ENDBRANCH  23  24
ENDBRANCH   4  23
TORSDOF 9
