REMARK  Name = 
REMARK  6 active torsions:
REMARK  status: ('A' for Active; 'I' for Inactive)
REMARK    1  A    between atoms: N_1  and  C_2
REMARK    2  A    between atoms: C_2  and  C_3
REMARK    3  A    between atoms: C_6  and  C_7
REMARK    4  A    between atoms: C_7  and  S_8
REMARK    5  A    between atoms: S_8  and  C_9
REMARK    6  A    between atoms: C_13  and  C_14
REMARK                            x       y       z     vdW  Elec       q    Type
REMARK                         _______ _______ _______ _____ _____    ______ ____
ROOT
ATOM      1  S   UNL     1       4.952   5.086  -3.701  0.00  0.00    +0.000 S 
ENDROOT
BRANCH   1   2
ATOM      2  C   UNL     1       5.266   5.869  -5.263  0.00  0.00    +0.000 A 
ATOM      3  N   UNL     1       5.904   7.040  -5.220  0.00  0.00    +0.000 NA
ATOM      4  C   UNL     1       6.181   7.579  -6.403  0.00  0.00    +0.000 A 
ATOM      5  N   UNL     1       5.890   7.054  -7.585  0.00  0.00    +0.000 NA
ATOM      6  C   UNL     1       5.243   5.883  -7.493  0.00  0.00    +0.000 A 
ATOM      7  N   UNL     1       4.900   5.249  -6.373  0.00  0.00    +0.000 NA
BRANCH   6   8
ATOM      8  C   UNL     1       4.905   5.189  -8.790  0.00  0.00    +0.000 C 
ATOM      9  N   UNL     1       5.346   5.798  -9.941  0.00  0.00    +0.000 N 
ATOM     10  O   UNL     1       4.286   4.132  -8.844  0.00  0.00    +0.000 OA
ATOM     11  H   UNL     1       5.882   6.656  -9.905  0.00  0.00    +0.000 HD
ATOM     12  H   UNL     1       5.171   5.344 -10.826  0.00  0.00    +0.000 HD
ENDBRANCH   6   8
ENDBRANCH   1   2
BRANCH   1  13
ATOM     13  C   UNL     1       4.008   3.629  -4.256  0.00  0.00    +0.000 C 
BRANCH  13  17
ATOM     14  C   UNL     1       2.888   0.912  -1.062  0.00  0.00    +0.000 A 
ATOM     15  C   UNL     1       2.486   2.255  -1.033  0.00  0.00    +0.000 A 
ATOM     16  C   UNL     1       2.853   3.134  -2.053  0.00  0.00    +0.000 A 
ATOM     17  C   UNL     1       3.651   2.697  -3.119  0.00  0.00    +0.000 A 
ATOM     18  C   UNL     1       4.066   1.358  -3.141  0.00  0.00    +0.000 A 
ATOM     19  C   UNL     1       3.689   0.474  -2.124  0.00  0.00    +0.000 A 
BRANCH  14  20
ATOM     20  C   UNL     1       2.459  -0.031   0.033  0.00  0.00    +0.000 C 
BRANCH  20  21
ATOM     21  N   UNL     1       1.005  -0.128   0.113  0.00  0.00    +0.000 NA
ATOM     22  H   UNL     1       0.751  -0.833   0.800  0.00  0.00    +0.000 HD
ATOM     23  H   UNL     1       0.651  -0.453  -0.786  0.00  0.00    +0.000 HD
ENDBRANCH  20  21
ENDBRANCH  14  20
ENDBRANCH  13  17
ENDBRANCH   1  13
TORSDOF 6
