REMARK  Name = 
REMARK  5 active torsions:
REMARK  status: ('A' for Active; 'I' for Inactive)
REMARK    1  A    between atoms: C_2  and  C_4
REMARK    2  A    between atoms: C_7  and  N_8
REMARK    3  A    between atoms: N_8  and  C_9
REMARK    4  A    between atoms: C_9  and  C_10
REMARK    5  A    between atoms: C_14  and  C_15
REMARK                            x       y       z     vdW  Elec       q    Type
REMARK                         _______ _______ _______ _____ _____    ______ ____
ROOT
ATOM      1  C   UNL     1       4.448  -5.190   3.164  0.00  0.00    +0.000 C 
ENDROOT
BRANCH   1   2
ATOM      2  C   UNL     1       5.159  -6.104   4.134  0.00  0.00    +0.000 A 
ATOM      3  C   UNL     1       4.929  -7.472   4.087  0.00  0.00    +0.000 A 
ATOM      4  N   UNL     1       5.476  -8.361   4.942  0.00  0.00    +0.000 NA
ATOM      5  C   UNL     1       6.283  -7.859   5.909  0.00  0.00    +0.000 A 
ATOM      6  C   UNL     1       6.597  -6.509   6.081  0.00  0.00    +0.000 A 
ATOM      7  C   UNL     1       5.996  -5.633   5.160  0.00  0.00    +0.000 A 
BRANCH   6   8
ATOM      8  C   UNL     1       7.493  -6.034   7.160  0.00  0.00    +0.000 A 
ATOM      9  C   UNL     1       8.565  -6.821   7.631  0.00  0.00    +0.000 A 
ATOM     10  C   UNL     1       9.414  -6.376   8.654  0.00  0.00    +0.000 A 
ATOM     11  C   UNL     1       9.217  -5.125   9.223  0.00  0.00    +0.000 A 
ATOM     12  C   UNL     1       8.172  -4.333   8.770  0.00  0.00    +0.000 A 
ATOM     13  F   UNL     1       7.980  -3.123   9.310  0.00  0.00    +0.000 F 
ATOM     14  C   UNL     1       7.317  -4.774   7.761  0.00  0.00    +0.000 A 
ENDBRANCH   6   8
ENDBRANCH   1   2
BRANCH   1  15
ATOM     15  N   UNL     1       5.249  -3.999   2.888  0.00  0.00    +0.000 N 
ATOM     16  H   UNL     1       6.177  -4.243   2.552  0.00  0.00    +0.000 HD
BRANCH  15  20
ATOM     17  C   UNL     1       3.603  -1.202   0.361  0.00  0.00    +0.000 A 
ATOM     18  C   UNL     1       2.929  -2.378   0.644  0.00  0.00    +0.000 A 
ATOM     19  N   UNL     1       3.439  -3.335   1.468  0.00  0.00    +0.000 NA
ATOM     20  C   UNL     1       4.654  -3.086   2.002  0.00  0.00    +0.000 A 
ATOM     21  C   UNL     1       5.317  -1.886   1.704  0.00  0.00    +0.000 A 
ATOM     22  N   UNL     1       4.829  -0.922   0.881  0.00  0.00    +0.000 NA
BRANCH  17  24
ATOM     23  N   UNL     1       3.739   0.929  -0.780  0.00  0.00    +0.000 N 
ATOM     24  C   UNL     1       2.983  -0.185  -0.533  0.00  0.00    +0.000 C 
ATOM     25  O   UNL     1       1.869  -0.332  -1.017  0.00  0.00    +0.000 OA
ATOM     26  H   UNL     1       3.370   1.660  -1.371  0.00  0.00    +0.000 HD
ATOM     27  H   UNL     1       4.658   1.022  -0.363  0.00  0.00    +0.000 HD
ENDBRANCH  17  24
ENDBRANCH  15  20
ENDBRANCH   1  15
TORSDOF 5
