REMARK  Name = 
REMARK  4 active torsions:
REMARK  status: ('A' for Active; 'I' for Inactive)
REMARK    1  A    between atoms: C_2  and  C_4
REMARK    2  A    between atoms: C_7  and  N_8
REMARK    3  A    between atoms: N_8  and  C_9
REMARK    4  A    between atoms: C_9  and  C_10
REMARK                            x       y       z     vdW  Elec       q    Type
REMARK                         _______ _______ _______ _____ _____    ______ ____
ROOT
ATOM      1  C   UNL     1       2.807   1.379  -0.395  0.00  0.00    +0.000 A 
ATOM      2  C   UNL     1       3.379   0.634  -1.428  0.00  0.00    +0.000 A 
ATOM      3  C   UNL     1       3.993   1.289  -2.494  0.00  0.00    +0.000 A 
ATOM      4  C   UNL     1       4.039   2.688  -2.558  0.00  0.00    +0.000 A 
ATOM      5  C   UNL     1       3.450   3.425  -1.527  0.00  0.00    +0.000 A 
ATOM      6  C   UNL     1       2.834   2.776  -0.450  0.00  0.00    +0.000 A 
ENDROOT
BRANCH   1   8
ATOM      7  N   UNL     1       2.657  -0.502   1.119  0.00  0.00    +0.000 N 
ATOM      8  C   UNL     1       2.163   0.718   0.755  0.00  0.00    +0.000 C 
ATOM      9  O   UNL     1       1.258   1.256   1.395  0.00  0.00    +0.000 OA
ATOM     10  H   UNL     1       2.308  -0.892   1.980  0.00  0.00    +0.000 HD
ATOM     11  H   UNL     1       3.558  -0.827   0.786  0.00  0.00    +0.000 HD
ENDBRANCH   1   8
BRANCH   4  12
ATOM     12  N   UNL     1       4.524   3.247  -3.750  0.00  0.00    +0.000 N 
ATOM     13  H   UNL     1       5.307   2.713  -4.131  0.00  0.00    +0.000 HD
BRANCH  12  14
ATOM     14  C   UNL     1       4.663   4.694  -4.018  0.00  0.00    +0.000 C 
ATOM     15  C   UNL     1       3.493   5.648  -4.085  0.00  0.00    +0.000 C 
ATOM     16  C   UNL     1       4.054   5.085  -5.348  0.00  0.00    +0.000 C 
BRANCH  14  17
ATOM     17  C   UNL     1       6.028   5.203  -3.543  0.00  0.00    +0.000 A 
ATOM     18  C   UNL     1       6.112   5.931  -2.351  0.00  0.00    +0.000 A 
ATOM     19  C   UNL     1       7.288   5.897  -1.608  0.00  0.00    +0.000 A 
ATOM     20  C   UNL     1       8.379   5.199  -2.102  0.00  0.00    +0.000 A 
ATOM     21  C   UNL     1       8.273   4.631  -3.358  0.00  0.00    +0.000 A 
ATOM     22  N   UNL     1       7.136   4.623  -4.087  0.00  0.00    +0.000 NA
ENDBRANCH  14  17
ENDBRANCH  12  14
ENDBRANCH   4  12
TORSDOF 4
