REMARK  Name = 
REMARK  10 active torsions:
REMARK  status: ('A' for Active; 'I' for Inactive)
REMARK    1  A    between atoms: N_1  and  C_2
REMARK    2  A    between atoms: C_2  and  C_3
REMARK    3  A    between atoms: C_3  and  N_4
REMARK    4  A    between atoms: C_3  and  C_20
REMARK    5  A    between atoms: N_4  and  C_5
REMARK    6  A    between atoms: C_5  and  C_6
REMARK    7  A    between atoms: C_9  and  C_10
REMARK    8  A    between atoms: C_10  and  N_11
REMARK    9  A    between atoms: N_11  and  C_12
REMARK   10  A    between atoms: C_12  and  C_13
REMARK                            x       y       z     vdW  Elec       q    Type
REMARK                         _______ _______ _______ _____ _____    ______ ____
ROOT
ATOM      1  N   UNL     1       2.615  -0.087  -0.015  0.00  0.00    +0.000 NA
ATOM      2  H   UNL     1       2.875   0.878   0.184  0.00  0.00    +0.000 HD
ENDROOT
BRANCH   1   3
ATOM      3  C   UNL     1       3.078  -0.451  -1.363  0.00  0.00    +0.000 C 
BRANCH   3   4
ATOM      4  C   UNL     1       2.518   0.585  -2.327  0.00  0.00    +0.000 A 
ATOM      5  C   UNL     1       1.277   1.198  -2.217  0.00  0.00    +0.000 A 
ATOM      6  S   UNL     1       0.946   2.290  -3.488  0.00  0.00    +0.000 S 
ATOM      7  C   UNL     1       2.438   1.962  -4.239  0.00  0.00    +0.000 A 
ATOM      8  N   UNL     1       2.788   2.563  -5.408  0.00  0.00    +0.000 NA
ATOM      9  C   UNL     1       3.939   2.195  -5.867  0.00  0.00    +0.000 A 
ATOM     10  N   UNL     1       4.777   1.294  -5.260  0.00  0.00    +0.000 N 
ATOM     11  C   UNL     1       4.479   0.677  -4.065  0.00  0.00    +0.000 A 
ATOM     12  O   UNL     1       5.271  -0.095  -3.531  0.00  0.00    +0.000 OA
ATOM     13  C   UNL     1       3.184   1.046  -3.521  0.00  0.00    +0.000 A 
ATOM     14  H   UNL     1       5.667   1.059  -5.670  0.00  0.00    +0.000 HD
ENDBRANCH   3   4
BRANCH   3  15
ATOM     15  C   UNL     1       2.665  -1.901  -1.784  0.00  0.00    +0.000 C 
BRANCH  15  16
ATOM     16  N   UNL     1       3.143  -2.325  -3.107  0.00  0.00    +0.000 NA
ATOM     17  H   UNL     1       2.969  -3.322  -3.218  0.00  0.00    +0.000 HD
ATOM     18  H   UNL     1       4.156  -2.191  -3.155  0.00  0.00    +0.000 HD
ENDBRANCH  15  16
ENDBRANCH   3  15
ENDBRANCH   1   3
BRANCH   1  19
ATOM     19  C   UNL     1       3.146  -0.950   1.042  0.00  0.00    +0.000 C 
BRANCH  19  20
ATOM     20  C   UNL     1       2.638  -0.561   2.416  0.00  0.00    +0.000 A 
ATOM     21  C   UNL     1       3.530  -0.210   3.425  0.00  0.00    +0.000 A 
ATOM     22  C   UNL     1       3.028   0.074   4.692  0.00  0.00    +0.000 A 
ATOM     23  C   UNL     1       1.652   0.014   4.927  0.00  0.00    +0.000 A 
ATOM     24  C   UNL     1       0.839  -0.335   3.857  0.00  0.00    +0.000 A 
ATOM     25  N   UNL     1       1.298  -0.629   2.624  0.00  0.00    +0.000 NA
BRANCH  23  26
ATOM     26  C   UNL     1       1.069   0.288   6.284  0.00  0.00    +0.000 C 
BRANCH  26  27
ATOM     27  N   UNL     1       1.426   1.628   6.743  0.00  0.00    +0.000 NA
ATOM     28  H   UNL     1       1.073   2.307   6.066  0.00  0.00    +0.000 HD
BRANCH  27  29
ATOM     29  C   UNL     1       0.818   1.914   8.036  0.00  0.00    +0.000 C 
BRANCH  29  30
ATOM     30  C   UNL     1       1.198   3.286   8.437  0.00  0.00    +0.000 A 
ATOM     31  C   UNL     1       0.459   4.403   8.756  0.00  0.00    +0.000 A 
ATOM     32  N   UNL     1       1.277   5.460   9.061  0.00  0.00    +0.000 NA
ATOM     33  C   UNL     1       2.499   5.003   8.923  0.00  0.00    +0.000 A 
ATOM     34  N   UNL     1       2.505   3.694   8.549  0.00  0.00    +0.000 N 
ATOM     35  H   UNL     1       3.316   3.124   8.346  0.00  0.00    +0.000 HD
ENDBRANCH  29  30
ENDBRANCH  27  29
ENDBRANCH  26  27
ENDBRANCH  23  26
ENDBRANCH  19  20
ENDBRANCH   1  19
TORSDOF 10
