REMARK  Name = 
REMARK  8 active torsions:
REMARK  status: ('A' for Active; 'I' for Inactive)
REMARK    1  A    between atoms: C_1  and  C_2
REMARK    2  A    between atoms: C_2  and  N_3
REMARK    3  A    between atoms: C_2  and  C_26
REMARK    4  A    between atoms: N_3  and  C_4
REMARK    5  A    between atoms: C_4  and  C_5
REMARK    6  A    between atoms: C_8  and  C_9
REMARK    7  A    between atoms: C_9  and  N_10
REMARK    8  A    between atoms: C_11  and  C_13
REMARK                            x       y       z     vdW  Elec       q    Type
REMARK                         _______ _______ _______ _____ _____    ______ ____
ROOT
ATOM      1  C   UNL     1      -1.035   1.276   0.343  0.00  0.00    +0.000 A 
ATOM      2  C   UNL     1      -1.828   0.269  -0.227  0.00  0.00    +0.000 A 
ATOM      3  C   UNL     1      -3.216   0.418  -0.324  0.00  0.00    +0.000 A 
ATOM      4  C   UNL     1      -3.839   1.586   0.134  0.00  0.00    +0.000 A 
ATOM      5  C   UNL     1      -3.051   2.562   0.747  0.00  0.00    +0.000 A 
ATOM      6  F   UNL     1      -3.619   3.687   1.206  0.00  0.00    +0.000 F 
ATOM      7  C   UNL     1      -1.668   2.416   0.857  0.00  0.00    +0.000 A 
ENDROOT
BRANCH   1   8
ATOM      8  C   UNL     1       0.471   1.219   0.226  0.00  0.00    +0.000 C 
BRANCH   8   9
ATOM      9  N   UNL     1       1.188   1.302   1.503  0.00  0.00    +0.000 NA
ATOM     10  H   UNL     1       0.948   0.470   2.046  0.00  0.00    +0.000 HD
BRANCH   9  12
ATOM     11  C   UNL     1       3.164   2.484   0.485  0.00  0.00    +0.000 C 
ATOM     12  C   UNL     1       2.664   1.273   1.283  0.00  0.00    +0.000 C 
BRANCH  12  13
ATOM     13  C   UNL     1       3.488   1.146   2.568  0.00  0.00    +0.000 A 
ATOM     14  C   UNL     1       3.052   1.656   3.790  0.00  0.00    +0.000 A 
ATOM     15  C   UNL     1       3.823   1.433   4.933  0.00  0.00    +0.000 A 
ATOM     16  C   UNL     1       5.024   0.746   4.826  0.00  0.00    +0.000 A 
ATOM     17  C   UNL     1       5.418   0.321   3.571  0.00  0.00    +0.000 A 
ATOM     18  N   UNL     1       4.679   0.496   2.452  0.00  0.00    +0.000 NA
ENDBRANCH  12  13
ENDBRANCH   9  12
ENDBRANCH   8   9
ENDBRANCH   1   8
BRANCH   4  19
ATOM     19  C   UNL     1      -5.324   1.770  -0.018  0.00  0.00    +0.000 C 
BRANCH  19  20
ATOM     20  N   UNL     1      -6.020   1.208   1.110  0.00  0.00    +0.000 N 
ATOM     21  C   UNL     1      -7.267   0.652   1.003  0.00  0.00    +0.000 C 
ATOM     22  O   UNL     1      -7.841   0.520  -0.074  0.00  0.00    +0.000 OA
ATOM     23  H   UNL     1      -5.696   1.514   2.022  0.00  0.00    +0.000 HD
BRANCH  21  24
ATOM     24  C   UNL     1      -7.852   0.145   2.250  0.00  0.00    +0.000 A 
ATOM     25  C   UNL     1      -8.791  -0.876   2.207  0.00  0.00    +0.000 A 
ATOM     26  S   UNL     1      -9.320  -1.381   3.748  0.00  0.00    +0.000 S 
ATOM     27  C   UNL     1      -8.342  -0.223   4.526  0.00  0.00    +0.000 A 
ATOM     28  N   UNL     1      -8.336  -0.108   5.881  0.00  0.00    +0.000 NA
ATOM     29  C   UNL     1      -7.578   0.833   6.331  0.00  0.00    +0.000 A 
ATOM     30  N   UNL     1      -6.822   1.670   5.550  0.00  0.00    +0.000 N 
ATOM     31  C   UNL     1      -6.772   1.570   4.182  0.00  0.00    +0.000 A 
ATOM     32  O   UNL     1      -6.045   2.301   3.513  0.00  0.00    +0.000 OA
ATOM     33  C   UNL     1      -7.617   0.532   3.621  0.00  0.00    +0.000 A 
ATOM     34  H   UNL     1      -6.244   2.386   5.966  0.00  0.00    +0.000 HD
ENDBRANCH  21  24
ENDBRANCH  19  20
ENDBRANCH   4  19
TORSDOF 7
