REMARK  Name = 
REMARK  4 active torsions:
REMARK  status: ('A' for Active; 'I' for Inactive)
REMARK    1  A    between atoms: N_1  and  C_2
REMARK    2  A    between atoms: C_2  and  C_3
REMARK    3  A    between atoms: C_7  and  C_8
REMARK    4  A    between atoms: C_8  and  N_9
REMARK                            x       y       z     vdW  Elec       q    Type
REMARK                         _______ _______ _______ _____ _____    ______ ____
ROOT
ATOM      1  C   UNL     1       2.397   0.020   2.940  0.00  0.00    +0.000 A 
ATOM      2  C   UNL     1       3.729   0.325   2.632  0.00  0.00    +0.000 A 
ATOM      3  C   UNL     1       4.668  -0.691   2.452  0.00  0.00    +0.000 A 
ATOM      4  C   UNL     1       4.293  -2.027   2.600  0.00  0.00    +0.000 A 
ATOM      5  C   UNL     1       2.970  -2.357   2.921  0.00  0.00    +0.000 A 
ATOM      6  C   UNL     1       2.030  -1.325   3.074  0.00  0.00    +0.000 A 
ENDROOT
BRANCH   1   7
ATOM      7  C   UNL     1       1.387   1.109   3.195  0.00  0.00    +0.000 C 
BRANCH   7   8
ATOM      8  N   UNL     1       1.302   2.049   2.083  0.00  0.00    +0.000 NA
ATOM      9  H   UNL     1       0.509   2.668   2.237  0.00  0.00    +0.000 HD
ATOM     10  H   UNL     1       1.096   1.524   1.234  0.00  0.00    +0.000 HD
ENDBRANCH   7   8
ENDBRANCH   1   7
BRANCH   5  11
ATOM     11  C   UNL     1       2.569  -3.786   3.200  0.00  0.00    +0.000 C 
BRANCH  11  12
ATOM     12  N   UNL     1       2.691  -4.080   4.621  0.00  0.00    +0.000 N 
ATOM     13  C   UNL     1       3.805  -4.617   5.226  0.00  0.00    +0.000 A 
ATOM     14  C   UNL     1       3.574  -4.649   6.585  0.00  0.00    +0.000 A 
ATOM     15  C   UNL     1       2.271  -4.133   6.813  0.00  0.00    +0.000 A 
ATOM     16  C   UNL     1       1.478  -3.886   7.946  0.00  0.00    +0.000 A 
ATOM     17  C   UNL     1       0.207  -3.347   7.743  0.00  0.00    +0.000 A 
ATOM     18  C   UNL     1      -0.219  -3.100   6.445  0.00  0.00    +0.000 A 
ATOM     19  N   UNL     1       0.500  -3.318   5.322  0.00  0.00    +0.000 NA
ATOM     20  C   UNL     1       1.730  -3.820   5.566  0.00  0.00    +0.000 A 
ENDBRANCH  11  12
ENDBRANCH   5  11
TORSDOF 4
