REMARK  Name = 
REMARK  8 active torsions:
REMARK  status: ('A' for Active; 'I' for Inactive)
REMARK    1  A    between atoms: C_1  and  O_2
REMARK    2  A    between atoms: O_2  and  C_3
REMARK    3  A    between atoms: C_7  and  N_8
REMARK    4  A    between atoms: N_8  and  C_9
REMARK    5  A    between atoms: C_9  and  C_10
REMARK    6  A    between atoms: C_15  and  C_16
REMARK    7  A    between atoms: C_20  and  C_21
REMARK    8  A    between atoms: C_21  and  O_22
REMARK                            x       y       z     vdW  Elec       q    Type
REMARK                         _______ _______ _______ _____ _____    ______ ____
ROOT
ATOM      1  C   UNL     1       1.613   6.468   0.433  0.00  0.00    +0.000 A 
ATOM      2  C   UNL     1       0.459   6.938   1.071  0.00  0.00    +0.000 A 
ATOM      3  C   UNL     1       0.238   8.297   1.179  0.00  0.00    +0.000 A 
ATOM      4  F   UNL     1      -0.876   8.745   1.779  0.00  0.00    +0.000 F 
ATOM      5  C   UNL     1       1.138   9.219   0.660  0.00  0.00    +0.000 A 
ATOM      6  C   UNL     1       2.304   8.790  -0.001  0.00  0.00    +0.000 A 
ATOM      7  C   UNL     1       2.530   7.401  -0.074  0.00  0.00    +0.000 A 
ENDROOT
BRANCH   6   8
ATOM      8  C   UNL     1       3.232   9.757  -0.619  0.00  0.00    +0.000 A 
ATOM      9  C   UNL     1       2.765  10.949  -1.199  0.00  0.00    +0.000 A 
ATOM     10  C   UNL     1       3.638  11.864  -1.789  0.00  0.00    +0.000 A 
ATOM     11  C   UNL     1       5.006  11.612  -1.803  0.00  0.00    +0.000 A 
ATOM     12  C   UNL     1       5.512  10.441  -1.232  0.00  0.00    +0.000 A 
ATOM     13  C   UNL     1       4.619   9.522  -0.662  0.00  0.00    +0.000 A 
BRANCH  12  14
ATOM     14  C   UNL     1       6.987  10.147  -1.220  0.00  0.00    +0.000 C 
BRANCH  14  15
ATOM     15  O   UNL     1       7.443   9.981   0.114  0.00  0.00    +0.000 OA
ATOM     16  H   UNL     1       7.202  10.791   0.596  0.00  0.00    +0.000 HD
ENDBRANCH  14  15
ENDBRANCH  12  14
ENDBRANCH   6   8
BRANCH   1  17
ATOM     17  C   UNL     1       1.847   4.989   0.257  0.00  0.00    +0.000 C 
BRANCH  17  18
ATOM     18  N   UNL     1       2.542   4.436   1.407  0.00  0.00    +0.000 N 
ATOM     19  H   UNL     1       3.319   5.010   1.731  0.00  0.00    +0.000 HD
BRANCH  18  24
ATOM     20  C   UNL     1       2.658   0.784   0.633  0.00  0.00    +0.000 A 
ATOM     21  C   UNL     1       3.351   0.369   1.760  0.00  0.00    +0.000 A 
ATOM     22  N   UNL     1       3.805   1.210   2.717  0.00  0.00    +0.000 NA
ATOM     23  C   UNL     1       3.534   2.527   2.536  0.00  0.00    +0.000 A 
ATOM     24  C   UNL     1       2.843   3.069   1.447  0.00  0.00    +0.000 A 
ATOM     25  C   UNL     1       2.375   2.145   0.509  0.00  0.00    +0.000 A 
BRANCH  20  27
ATOM     26  C   UNL     1       2.199   0.249  -1.612  0.00  0.00    +0.000 C 
ATOM     27  O   UNL     1       2.259  -0.178  -0.252  0.00  0.00    +0.000 OA
ENDBRANCH  20  27
ENDBRANCH  18  24
ENDBRANCH  17  18
ENDBRANCH   1  17
TORSDOF 7
