REMARK  Name = 
REMARK  6 active torsions:
REMARK  status: ('A' for Active; 'I' for Inactive)
REMARK    1  A    between atoms: C_1  and  O_2
REMARK    2  A    between atoms: O_2  and  C_3
REMARK    3  A    between atoms: C_3  and  C_4
REMARK    4  A    between atoms: C_4  and  N_5
REMARK    5  A    between atoms: C_4  and  C_15
REMARK    6  A    between atoms: C_9  and  C_10
REMARK                            x       y       z     vdW  Elec       q    Type
REMARK                         _______ _______ _______ _____ _____    ______ ____
ROOT
ATOM      1  N   UNL     1       2.842   1.380  -0.709  0.00  0.00    +0.000 N 
ATOM      2  C   UNL     1       2.276   1.844   0.476  0.00  0.00    +0.000 A 
ATOM      3  C   UNL     1       0.890   2.090   0.520  0.00  0.00    +0.000 A 
ATOM      4  N   UNL     1       0.189   2.411   1.639  0.00  0.00    +0.000 NA
ATOM      5  C   UNL     1       0.942   2.462   2.768  0.00  0.00    +0.000 A 
ATOM      6  C   UNL     1       2.310   2.239   2.753  0.00  0.00    +0.000 A 
ATOM      7  N   UNL     1       2.996   1.930   1.613  0.00  0.00    +0.000 NA
ATOM      8  H   UNL     1       2.375   1.751  -1.530  0.00  0.00    +0.000 HD
ENDROOT
BRANCH   5   9
ATOM      9  C   UNL     1       0.231   2.715   4.054  0.00  0.00    +0.000 C 
ATOM     10  N   UNL     1      -1.133   2.823   3.972  0.00  0.00    +0.000 N 
ATOM     11  O   UNL     1       0.821   2.798   5.124  0.00  0.00    +0.000 OA
ATOM     12  H   UNL     1      -1.593   2.704   3.073  0.00  0.00    +0.000 HD
ATOM     13  H   UNL     1      -1.679   2.928   4.813  0.00  0.00    +0.000 HD
ENDBRANCH   5   9
BRANCH   1  14
ATOM     14  C   UNL     1       4.309   1.404  -0.878  0.00  0.00    +0.000 C 
BRANCH  14  15
ATOM     15  C   UNL     1       4.632   2.561  -1.840  0.00  0.00    +0.000 A 
ATOM     16  C   UNL     1       4.411   3.885  -1.410  0.00  0.00    +0.000 A 
ATOM     17  C   UNL     1       4.626   4.970  -2.267  0.00  0.00    +0.000 A 
ATOM     18  C   UNL     1       5.082   4.748  -3.562  0.00  0.00    +0.000 A 
ATOM     19 CL   UNL     1       5.334   6.077  -4.625  0.00  0.00    +0.000 Cl
ATOM     20  C   UNL     1       5.332   3.453  -4.003  0.00  0.00    +0.000 A 
ATOM     21  C   UNL     1       5.105   2.368  -3.149  0.00  0.00    +0.000 A 
ENDBRANCH  14  15
BRANCH  14  22
ATOM     22  C   UNL     1       4.722  -0.013  -1.374  0.00  0.00    +0.000 C 
BRANCH  22  24
ATOM     23  C   UNL     1       6.474  -1.415  -2.107  0.00  0.00    +0.000 C 
ATOM     24  O   UNL     1       6.128  -0.122  -1.623  0.00  0.00    +0.000 OA
ENDBRANCH  22  24
ENDBRANCH  14  22
ENDBRANCH   1  14
TORSDOF 5
