REMARK  Name = 
REMARK  6 active torsions:
REMARK  status: ('A' for Active; 'I' for Inactive)
REMARK    1  A    between atoms: C_2  and  C_25
REMARK    2  A    between atoms: N_3  and  C_4
REMARK    3  A    between atoms: C_4  and  C_5
REMARK    4  A    between atoms: C_8  and  C_9
REMARK    5  A    between atoms: C_9  and  N_10
REMARK    6  A    between atoms: C_11  and  C_13
REMARK                            x       y       z     vdW  Elec       q    Type
REMARK                         _______ _______ _______ _____ _____    ______ ____
ROOT
ATOM      1  C   UNL     1       3.246  -2.313  -2.721  0.00  0.00    +0.000 A 
ATOM      2  C   UNL     1       4.250  -1.624  -3.415  0.00  0.00    +0.000 A 
ATOM      3  C   UNL     1       5.127  -2.307  -4.265  0.00  0.00    +0.000 A 
ATOM      4  C   UNL     1       5.004  -3.690  -4.453  0.00  0.00    +0.000 A 
ATOM      5  C   UNL     1       4.010  -4.381  -3.746  0.00  0.00    +0.000 A 
ATOM      6  C   UNL     1       3.134  -3.699  -2.897  0.00  0.00    +0.000 A 
ENDROOT
BRANCH   1   7
ATOM      7  C   UNL     1       2.289  -1.577  -1.823  0.00  0.00    +0.000 C 
BRANCH   7  10
ATOM      8  O   UNL     1       0.168  -0.222  -0.692  0.00  0.00    +0.000 OA
ATOM      9  C   UNL     1       0.108  -0.455  -1.898  0.00  0.00    +0.000 C 
ATOM     10  N   UNL     1       1.122  -1.130  -2.543  0.00  0.00    +0.000 N 
ATOM     11  H   UNL     1       1.074  -1.264  -3.545  0.00  0.00    +0.000 HD
BRANCH   9  12
ATOM     12  C   UNL     1      -1.012  -0.036  -2.716  0.00  0.00    +0.000 A 
ATOM     13  C   UNL     1      -2.100   0.717  -2.313  0.00  0.00    +0.000 A 
ATOM     14  N   UNL     1      -3.051   0.977  -3.282  0.00  0.00    +0.000 NA
ATOM     15  C   UNL     1      -2.678   0.417  -4.410  0.00  0.00    +0.000 A 
ATOM     16  S   UNL     1      -1.186  -0.430  -4.377  0.00  0.00    +0.000 S 
ENDBRANCH   9  12
ENDBRANCH   7  10
ENDBRANCH   1   7
BRANCH   4  17
ATOM     17  C   UNL     1       5.950  -4.437  -5.359  0.00  0.00    +0.000 C 
BRANCH  17  18
ATOM     18  N   UNL     1       7.101  -4.902  -4.630  0.00  0.00    +0.000 N 
ATOM     19  C   UNL     1       8.141  -5.539  -5.257  0.00  0.00    +0.000 C 
ATOM     20  O   UNL     1       8.167  -5.701  -6.473  0.00  0.00    +0.000 OA
ATOM     21  H   UNL     1       6.995  -4.994  -3.625  0.00  0.00    +0.000 HD
BRANCH  19  22
ATOM     22  C   UNL     1       9.256  -5.961  -4.399  0.00  0.00    +0.000 A 
ATOM     23  C   UNL     1      10.514  -6.159  -4.951  0.00  0.00    +0.000 A 
ATOM     24  S   UNL     1      11.707  -6.569  -3.802  0.00  0.00    +0.000 S 
ATOM     25  C   UNL     1      10.571  -6.556  -2.535  0.00  0.00    +0.000 A 
ATOM     26  N   UNL     1      10.942  -6.842  -1.259  0.00  0.00    +0.000 NA
ATOM     27  C   UNL     1       9.975  -6.821  -0.404  0.00  0.00    +0.000 A 
ATOM     28  N   UNL     1       8.669  -6.540  -0.709  0.00  0.00    +0.000 N 
ATOM     29  C   UNL     1       8.251  -6.225  -1.980  0.00  0.00    +0.000 A 
ATOM     30  O   UNL     1       7.078  -5.956  -2.216  0.00  0.00    +0.000 OA
ATOM     31  C   UNL     1       9.302  -6.231  -2.980  0.00  0.00    +0.000 A 
ATOM     32  H   UNL     1       7.957  -6.541   0.005  0.00  0.00    +0.000 HD
ENDBRANCH  19  22
ENDBRANCH  17  18
ENDBRANCH   4  17
TORSDOF 6
