REMARK  Name = 
REMARK  5 active torsions:
REMARK  status: ('A' for Active; 'I' for Inactive)
REMARK    1  A    between atoms: C_2  and  C_4
REMARK    2  A    between atoms: C_7  and  O_8
REMARK    3  A    between atoms: O_8  and  C_9
REMARK    4  A    between atoms: C_9  and  C_10
REMARK    5  A    between atoms: C_14  and  C_15
REMARK                            x       y       z     vdW  Elec       q    Type
REMARK                         _______ _______ _______ _____ _____    ______ ____
ROOT
ATOM      1  C   UNL     1       5.031   2.533   5.456  0.00  0.00    +0.000 C 
ENDROOT
BRANCH   1   2
ATOM      2  C   UNL     1       5.972   3.311   6.332  0.00  0.00    +0.000 A 
ATOM      3  C   UNL     1       6.908   2.664   7.126  0.00  0.00    +0.000 A 
ATOM      4  N   UNL     1       7.726   3.297   7.991  0.00  0.00    +0.000 NA
ATOM      5  C   UNL     1       7.606   4.645   8.066  0.00  0.00    +0.000 A 
ATOM      6  C   UNL     1       6.721   5.421   7.312  0.00  0.00    +0.000 A 
ATOM      7  C   UNL     1       5.897   4.707   6.428  0.00  0.00    +0.000 A 
BRANCH   6   8
ATOM      8  C   UNL     1       6.649   6.893   7.445  0.00  0.00    +0.000 A 
ATOM      9  C   UNL     1       7.788   7.661   7.764  0.00  0.00    +0.000 A 
ATOM     10  C   UNL     1       7.724   9.054   7.894  0.00  0.00    +0.000 A 
ATOM     11  C   UNL     1       6.517   9.714   7.695  0.00  0.00    +0.000 A 
ATOM     12  C   UNL     1       5.388   8.976   7.377  0.00  0.00    +0.000 A 
ATOM     13  F   UNL     1       4.221   9.605   7.180  0.00  0.00    +0.000 F 
ATOM     14  C   UNL     1       5.442   7.589   7.258  0.00  0.00    +0.000 A 
ENDBRANCH   6   8
ENDBRANCH   1   2
BRANCH   1  15
ATOM     15  O   UNL     1       5.182   2.936   4.094  0.00  0.00    +0.000 OA
BRANCH  15  19
ATOM     16  C   UNL     1       2.960   1.143   1.135  0.00  0.00    +0.000 A 
ATOM     17  C   UNL     1       2.720   0.721   2.435  0.00  0.00    +0.000 A 
ATOM     18  C   UNL     1       3.450   1.303   3.471  0.00  0.00    +0.000 A 
ATOM     19  C   UNL     1       4.393   2.286   3.184  0.00  0.00    +0.000 A 
ATOM     20  C   UNL     1       4.556   2.647   1.847  0.00  0.00    +0.000 A 
ATOM     21  N   UNL     1       3.870   2.102   0.809  0.00  0.00    +0.000 NA
BRANCH  16  23
ATOM     22  N   UNL     1       2.517   0.940  -1.244  0.00  0.00    +0.000 N 
ATOM     23  C   UNL     1       2.194   0.511   0.014  0.00  0.00    +0.000 C 
ATOM     24  O   UNL     1       1.338  -0.343   0.200  0.00  0.00    +0.000 OA
ATOM     25  H   UNL     1       2.058   0.520  -2.040  0.00  0.00    +0.000 HD
ATOM     26  H   UNL     1       3.261   1.616  -1.373  0.00  0.00    +0.000 HD
ENDBRANCH  16  23
ENDBRANCH  15  19
ENDBRANCH   1  15
TORSDOF 5
