REMARK  Name = 
REMARK  4 active torsions:
REMARK  status: ('A' for Active; 'I' for Inactive)
REMARK    1  A    between atoms: C_2  and  C_4
REMARK    2  A    between atoms: C_7  and  C_8
REMARK    3  A    between atoms: C_8  and  C_9
REMARK    4  A    between atoms: C_9  and  C_10
REMARK                            x       y       z     vdW  Elec       q    Type
REMARK                         _______ _______ _______ _____ _____    ______ ____
ROOT
ATOM      1  C   UNL     1       9.423  -1.363  -3.354  0.00  0.00    +0.000 A 
ATOM      2  C   UNL     1       9.099  -0.310  -4.205  0.00  0.00    +0.000 A 
ATOM      3  C   UNL     1       7.780  -0.160  -4.638  0.00  0.00    +0.000 A 
ATOM      4  C   UNL     1       6.816  -1.090  -4.250  0.00  0.00    +0.000 A 
ATOM      5  N   UNL     1       7.127  -2.129  -3.431  0.00  0.00    +0.000 NA
ATOM      6  C   UNL     1       8.414  -2.249  -3.012  0.00  0.00    +0.000 A 
ENDROOT
BRANCH   1   8
ATOM      7  N   UNL     1      11.584  -0.461  -2.701  0.00  0.00    +0.000 N 
ATOM      8  C   UNL     1      10.781  -1.564  -2.805  0.00  0.00    +0.000 C 
ATOM      9  O   UNL     1      11.161  -2.660  -2.415  0.00  0.00    +0.000 OA
ATOM     10  H   UNL     1      12.465  -0.592  -2.220  0.00  0.00    +0.000 HD
ATOM     11  H   UNL     1      11.224   0.481  -2.760  0.00  0.00    +0.000 HD
ENDBRANCH   1   8
BRANCH   4  12
ATOM     12  C   UNL     1       5.350  -0.939  -4.605  0.00  0.00    +0.000 C 
BRANCH  12  13
ATOM     13  C   UNL     1       5.060  -0.385  -6.000  0.00  0.00    +0.000 C 
ATOM     14  C   UNL     1       4.935   1.125  -6.147  0.00  0.00    +0.000 C 
ATOM     15  C   UNL     1       3.701   0.288  -6.205  0.00  0.00    +0.000 C 
BRANCH  13  16
ATOM     16  C   UNL     1       5.548  -1.225  -7.181  0.00  0.00    +0.000 A 
ATOM     17  C   UNL     1       4.810  -2.339  -7.630  0.00  0.00    +0.000 A 
ATOM     18  C   UNL     1       5.227  -3.096  -8.728  0.00  0.00    +0.000 A 
ATOM     19  C   UNL     1       6.400  -2.756  -9.385  0.00  0.00    +0.000 A 
ATOM     20  F   UNL     1       6.806  -3.481 -10.435  0.00  0.00    +0.000 F 
ATOM     21  C   UNL     1       7.159  -1.673  -8.967  0.00  0.00    +0.000 A 
ATOM     22  C   UNL     1       6.729  -0.912  -7.878  0.00  0.00    +0.000 A 
ENDBRANCH  13  16
ENDBRANCH  12  13
ENDBRANCH   4  12
TORSDOF 4
