REMARK  Name = 
REMARK  7 active torsions:
REMARK  status: ('A' for Active; 'I' for Inactive)
REMARK    1  A    between atoms: C_2  and  C_4
REMARK    2  A    between atoms: C_7  and  N_8
REMARK    3  A    between atoms: N_8  and  C_9
REMARK    4  A    between atoms: C_9  and  C_10
REMARK    5  A    between atoms: C_10  and  C_13
REMARK    6  A    between atoms: C_17  and  C_18
REMARK    7  A    between atoms: C_18  and  C_19
REMARK                            x       y       z     vdW  Elec       q    Type
REMARK                         _______ _______ _______ _____ _____    ______ ____
ROOT
ATOM      1  C   UNL     1       5.975   5.994  -2.636  0.00  0.00    +0.000 C 
ENDROOT
BRANCH   1   2
ATOM      2  C   UNL     1       5.399   6.345  -4.029  0.00  0.00    +0.000 C 
ATOM      3  F   UNL     1       6.392   6.300  -4.963  0.00  0.00    +0.000 F 
ATOM      4  F   UNL     1       4.508   5.373  -4.390  0.00  0.00    +0.000 F 
BRANCH   2   5
ATOM      5  C   UNL     1       4.760   7.721  -3.925  0.00  0.00    +0.000 A 
ATOM      6  C   UNL     1       3.417   7.855  -3.553  0.00  0.00    +0.000 A 
ATOM      7  C   UNL     1       2.878   9.118  -3.315  0.00  0.00    +0.000 A 
ATOM      8  C   UNL     1       3.675  10.260  -3.446  0.00  0.00    +0.000 A 
ATOM      9  C   UNL     1       5.015  10.156  -3.842  0.00  0.00    +0.000 A 
ATOM     10  C   UNL     1       5.544   8.877  -4.082  0.00  0.00    +0.000 A 
BRANCH   9  11
ATOM     11  C   UNL     1       5.872  11.389  -4.030  0.00  0.00    +0.000 C 
BRANCH  11  12
ATOM     12  C   UNL     1       6.599  11.785  -2.745  0.00  0.00    +0.000 C 
ATOM     13  C   UNL     1       7.568  12.990  -2.900  0.00  0.00    +0.000 C 
ATOM     14  C   UNL     1       8.588  12.251  -2.021  0.00  0.00    +0.000 C 
ATOM     15  C   UNL     1       7.822  10.945  -2.289  0.00  0.00    +0.000 C 
ENDBRANCH  11  12
ENDBRANCH   9  11
ENDBRANCH   2   5
ENDBRANCH   1   2
BRANCH   1  16
ATOM     16  N   UNL     1       6.634   4.679  -2.524  0.00  0.00    +0.000 N 
ATOM     17  H   UNL     1       6.138   3.919  -2.986  0.00  0.00    +0.000 HD
BRANCH  16  21
ATOM     18  C   UNL     1       8.431   3.566   1.138  0.00  0.00    +0.000 A 
ATOM     19  C   UNL     1       7.767   4.788   1.039  0.00  0.00    +0.000 A 
ATOM     20  C   UNL     1       7.158   5.155  -0.159  0.00  0.00    +0.000 A 
ATOM     21  C   UNL     1       7.168   4.312  -1.283  0.00  0.00    +0.000 A 
ATOM     22  C   UNL     1       7.861   3.099  -1.174  0.00  0.00    +0.000 A 
ATOM     23  C   UNL     1       8.494   2.729   0.020  0.00  0.00    +0.000 A 
BRANCH  18  25
ATOM     24  N   UNL     1       8.599   3.653   3.560  0.00  0.00    +0.000 N 
ATOM     25  C   UNL     1       9.115   3.161   2.392  0.00  0.00    +0.000 C 
ATOM     26  O   UNL     1      10.070   2.403   2.390  0.00  0.00    +0.000 OA
ATOM     27  H   UNL     1       9.011   3.304   4.415  0.00  0.00    +0.000 HD
ATOM     28  H   UNL     1       7.681   4.066   3.616  0.00  0.00    +0.000 HD
ENDBRANCH  18  25
ENDBRANCH  16  21
ENDBRANCH   1  16
TORSDOF 7
