REMARK  Name = 
REMARK  7 active torsions:
REMARK  status: ('A' for Active; 'I' for Inactive)
REMARK    1  A    between atoms: N_1  and  C_2
REMARK    2  A    between atoms: C_2  and  C_3
REMARK    3  A    between atoms: C_3  and  C_4
REMARK    4  A    between atoms: N_6  and  C_7
REMARK    5  A    between atoms: C_7  and  C_8
REMARK    6  A    between atoms: C_18  and  C_19
REMARK    7  A    between atoms: C_19  and  O_21
REMARK                            x       y       z     vdW  Elec       q    Type
REMARK                         _______ _______ _______ _____ _____    ______ ____
ROOT
ATOM      1  C   UNL     1       4.413  -1.333  -0.451  0.00  0.00    +0.000 A 
ATOM      2  C   UNL     1       5.221  -1.115  -1.550  0.00  0.00    +0.000 A 
ATOM      3  N   UNL     1       6.533  -1.194  -1.151  0.00  0.00    +0.000 N 
ATOM      4  C   UNL     1       6.597  -1.492   0.197  0.00  0.00    +0.000 A 
ATOM      5  C   UNL     1       7.694  -1.669   1.058  0.00  0.00    +0.000 A 
ATOM      6  C   UNL     1       7.445  -1.985   2.406  0.00  0.00    +0.000 A 
ATOM      7  C   UNL     1       6.139  -2.087   2.880  0.00  0.00    +0.000 A 
ATOM      8  C   UNL     1       5.053  -1.894   2.015  0.00  0.00    +0.000 A 
ATOM      9  C   UNL     1       5.279  -1.595   0.654  0.00  0.00    +0.000 A 
ENDROOT
BRANCH   6  10
ATOM     10  C   UNL     1       8.631  -2.150   3.293  0.00  0.00    +0.000 C 
ATOM     11  O   UNL     1       9.696  -1.593   3.069  0.00  0.00    +0.000 OA
BRANCH  10  12
ATOM     12  O   UNL     1       8.455  -2.986   4.333  0.00  0.00    +0.000 OA
ATOM     13  H   UNL     1       7.623  -3.493   4.341  0.00  0.00    +0.000 HD
ENDBRANCH  10  12
ENDBRANCH   6  10
BRANCH   1  14
ATOM     14  C   UNL     1       2.917  -1.285  -0.434  0.00  0.00    +0.000 C 
BRANCH  14  15
ATOM     15  C   UNL     1       2.394   0.128  -0.142  0.00  0.00    +0.000 C 
BRANCH  15  16
ATOM     16  N   UNL     1       0.932   0.169  -0.131  0.00  0.00    +0.000 NA
ATOM     17  H   UNL     1       0.626   1.113   0.102  0.00  0.00    +0.000 HD
ATOM     18  H   UNL     1       0.576  -0.436   0.609  0.00  0.00    +0.000 HD
ENDBRANCH  15  16
ENDBRANCH  14  15
ENDBRANCH   1  14
BRANCH   3  19
ATOM     19  C   UNL     1       7.665  -0.871  -2.011  0.00  0.00    +0.000 C 
BRANCH  19  20
ATOM     20  C   UNL     1       8.229  -2.063  -2.748  0.00  0.00    +0.000 A 
ATOM     21  C   UNL     1       9.566  -2.449  -2.549  0.00  0.00    +0.000 A 
ATOM     22  C   UNL     1      10.152  -3.424  -3.361  0.00  0.00    +0.000 A 
ATOM     23  C   UNL     1       9.404  -4.029  -4.365  0.00  0.00    +0.000 A 
ATOM     24  F   UNL     1      10.006  -4.915  -5.173  0.00  0.00    +0.000 F 
ATOM     25  C   UNL     1       8.064  -3.700  -4.542  0.00  0.00    +0.000 A 
ATOM     26 CL   UNL     1       7.133  -4.441  -5.786  0.00  0.00    +0.000 Cl
ATOM     27  C   UNL     1       7.475  -2.725  -3.734  0.00  0.00    +0.000 A 
ENDBRANCH  19  20
ENDBRANCH   3  19
TORSDOF 7
