REMARK  Name = 
REMARK  7 active torsions:
REMARK  status: ('A' for Active; 'I' for Inactive)
REMARK    1  A    between atoms: C_1  and  C_2
REMARK    2  A    between atoms: C_2  and  N_3
REMARK    3  A    between atoms: C_2  and  C_11
REMARK    4  A    between atoms: C_4  and  C_6
REMARK    5  A    between atoms: C_14  and  C_15
REMARK    6  A    between atoms: C_15  and  N_16
REMARK    7  A    between atoms: C_17  and  C_19
REMARK                            x       y       z     vdW  Elec       q    Type
REMARK                         _______ _______ _______ _____ _____    ______ ____
ROOT
ATOM      1  C   UNL     1       2.876   0.794  -1.146  0.00  0.00    +0.000 A 
ATOM      2  C   UNL     1       2.528   2.152  -1.240  0.00  0.00    +0.000 A 
ATOM      3  C   UNL     1       2.899   2.920  -2.350  0.00  0.00    +0.000 A 
ATOM      4  C   UNL     1       3.611   2.344  -3.407  0.00  0.00    +0.000 A 
ATOM      5  C   UNL     1       3.986   0.999  -3.306  0.00  0.00    +0.000 A 
ATOM      6  C   UNL     1       3.611   0.230  -2.198  0.00  0.00    +0.000 A 
ENDROOT
BRANCH   1   8
ATOM      7  C   UNL     1       3.355  -1.128   0.490  0.00  0.00    +0.000 C 
ATOM      8  C   UNL     1       2.403  -0.007   0.059  0.00  0.00    +0.000 C 
BRANCH   8   9
ATOM      9  N   UNL     1       1.074  -0.533  -0.187  0.00  0.00    +0.000 N 
ATOM     10  C   UNL     1       0.181  -0.823   0.818  0.00  0.00    +0.000 C 
ATOM     11  O   UNL     1       0.427  -0.659   2.011  0.00  0.00    +0.000 OA
ATOM     12  H   UNL     1       0.753  -0.715  -1.136  0.00  0.00    +0.000 HD
BRANCH  10  13
ATOM     13  C   UNL     1      -1.144  -1.430   0.337  0.00  0.00    +0.000 C 
ATOM     14  C   UNL     1      -1.136  -2.945   0.388  0.00  0.00    +0.000 C 
ATOM     15  C   UNL     1      -2.272  -3.315  -0.546  0.00  0.00    +0.000 C 
ATOM     16  C   UNL     1      -2.306  -2.193  -1.576  0.00  0.00    +0.000 C 
ATOM     17  N   UNL     1      -1.376  -1.163  -1.106  0.00  0.00    +0.000 NA
ATOM     18  H   UNL     1      -1.784  -0.234  -1.216  0.00  0.00    +0.000 HD
ENDBRANCH  10  13
ENDBRANCH   8   9
ENDBRANCH   1   8
BRANCH   4  19
ATOM     19  C   UNL     1       3.987   3.151  -4.622  0.00  0.00    +0.000 C 
BRANCH  19  20
ATOM     20  N   UNL     1       5.273   3.780  -4.462  0.00  0.00    +0.000 N 
ATOM     21  C   UNL     1       5.775   4.625  -5.418  0.00  0.00    +0.000 C 
ATOM     22  O   UNL     1       5.140   4.917  -6.428  0.00  0.00    +0.000 OA
ATOM     23  H   UNL     1       5.897   3.381  -3.768  0.00  0.00    +0.000 HD
BRANCH  21  24
ATOM     24  C   UNL     1       7.090   5.217  -5.144  0.00  0.00    +0.000 A 
ATOM     25  C   UNL     1       7.452   6.406  -5.763  0.00  0.00    +0.000 A 
ATOM     26  S   UNL     1       8.986   6.984  -5.292  0.00  0.00    +0.000 S 
ATOM     27  C   UNL     1       9.243   5.640  -4.283  0.00  0.00    +0.000 A 
ATOM     28  N   UNL     1      10.400   5.501  -3.584  0.00  0.00    +0.000 NA
ATOM     29  C   UNL     1      10.472   4.423  -2.875  0.00  0.00    +0.000 A 
ATOM     30  N   UNL     1       9.488   3.472  -2.800  0.00  0.00    +0.000 N 
ATOM     31  C   UNL     1       8.295   3.578  -3.476  0.00  0.00    +0.000 A 
ATOM     32  O   UNL     1       7.425   2.720  -3.366  0.00  0.00    +0.000 OA
ATOM     33  C   UNL     1       8.163   4.771  -4.291  0.00  0.00    +0.000 A 
ATOM     34  H   UNL     1       9.603   2.651  -2.226  0.00  0.00    +0.000 HD
ENDBRANCH  21  24
ENDBRANCH  19  20
ENDBRANCH   4  19
TORSDOF 6
