REMARK  Name = 
REMARK  6 active torsions:
REMARK  status: ('A' for Active; 'I' for Inactive)
REMARK    1  A    between atoms: C_2  and  C_25
REMARK    2  A    between atoms: N_3  and  C_4
REMARK    3  A    between atoms: C_4  and  C_5
REMARK    4  A    between atoms: C_8  and  C_9
REMARK    5  A    between atoms: C_9  and  N_10
REMARK    6  A    between atoms: C_11  and  C_13
REMARK                            x       y       z     vdW  Elec       q    Type
REMARK                         _______ _______ _______ _____ _____    ______ ____
ROOT
ATOM      1  C   UNL     1       3.293  -1.892  -3.067  0.00  0.00    +0.000 A 
ATOM      2  C   UNL     1       4.118  -1.044  -3.804  0.00  0.00    +0.000 A 
ATOM      3  C   UNL     1       4.960  -1.587  -4.777  0.00  0.00    +0.000 A 
ATOM      4  C   UNL     1       4.987  -2.968  -4.982  0.00  0.00    +0.000 A 
ATOM      5  C   UNL     1       4.126  -3.735  -4.204  0.00  0.00    +0.000 A 
ATOM      6  N   UNL     1       3.292  -3.236  -3.257  0.00  0.00    +0.000 NA
ENDROOT
BRANCH   1   7
ATOM      7  C   UNL     1       2.338  -1.326  -2.035  0.00  0.00    +0.000 C 
BRANCH   7  10
ATOM      8  O   UNL     1       3.681   0.971  -1.091  0.00  0.00    +0.000 OA
ATOM      9  C   UNL     1       3.574  -0.004  -0.354  0.00  0.00    +0.000 C 
ATOM     10  N   UNL     1       2.931  -1.162  -0.722  0.00  0.00    +0.000 N 
ATOM     11  H   UNL     1       2.929  -1.942  -0.071  0.00  0.00    +0.000 HD
BRANCH   9  12
ATOM     12  C   UNL     1       4.149   0.019   1.021  0.00  0.00    +0.000 A 
ATOM     13  C   UNL     1       4.778   1.172   1.471  0.00  0.00    +0.000 A 
ATOM     14  N   UNL     1       5.339   1.264   2.703  0.00  0.00    +0.000 NA
ATOM     15  C   UNL     1       5.245   0.148   3.461  0.00  0.00    +0.000 A 
ATOM     16  C   UNL     1       4.610  -1.003   3.016  0.00  0.00    +0.000 A 
ATOM     17  N   UNL     1       4.040  -1.104   1.789  0.00  0.00    +0.000 NA
ENDBRANCH   9  12
ENDBRANCH   7  10
ENDBRANCH   1   7
BRANCH   4  18
ATOM     18  C   UNL     1       5.870  -3.598  -6.023  0.00  0.00    +0.000 C 
BRANCH  18  19
ATOM     19  N   UNL     1       5.195  -3.691  -7.293  0.00  0.00    +0.000 N 
ATOM     20  C   UNL     1       5.749  -4.335  -8.373  0.00  0.00    +0.000 C 
ATOM     21  O   UNL     1       6.830  -4.912  -8.310  0.00  0.00    +0.000 OA
ATOM     22  H   UNL     1       4.463  -3.011  -7.460  0.00  0.00    +0.000 HD
BRANCH  20  23
ATOM     23  C   UNL     1       4.928  -4.352  -9.593  0.00  0.00    +0.000 A 
ATOM     24  C   UNL     1       5.101  -5.354 -10.539  0.00  0.00    +0.000 A 
ATOM     25  S   UNL     1       3.999  -5.262 -11.839  0.00  0.00    +0.000 S 
ATOM     26  C   UNL     1       3.294  -3.843 -11.218  0.00  0.00    +0.000 A 
ATOM     27  N   UNL     1       2.276  -3.220 -11.869  0.00  0.00    +0.000 NA
ATOM     28  C   UNL     1       1.855  -2.141 -11.298  0.00  0.00    +0.000 A 
ATOM     29  N   UNL     1       2.359  -1.626 -10.135  0.00  0.00    +0.000 N 
ATOM     30  C   UNL     1       3.374  -2.233  -9.430  0.00  0.00    +0.000 A 
ATOM     31  O   UNL     1       3.782  -1.763  -8.374  0.00  0.00    +0.000 OA
ATOM     32  C   UNL     1       3.883  -3.452 -10.029  0.00  0.00    +0.000 A 
ATOM     33  H   UNL     1       1.987  -0.779  -9.733  0.00  0.00    +0.000 HD
ENDBRANCH  20  23
ENDBRANCH  18  19
ENDBRANCH   4  18
TORSDOF 6
