REMARK  Name = 
REMARK  6 active torsions:
REMARK  status: ('A' for Active; 'I' for Inactive)
REMARK    1  A    between atoms: C_1  and  C_2
REMARK    2  A    between atoms: C_2  and  C_3
REMARK    3  A    between atoms: C_7  and  C_8
REMARK    4  A    between atoms: C_8  and  C_9
REMARK    5  A    between atoms: C_9  and  N_10
REMARK    6  A    between atoms: C_14  and  C_15
REMARK                            x       y       z     vdW  Elec       q    Type
REMARK                         _______ _______ _______ _____ _____    ______ ____
ROOT
ATOM      1  C   UNL     1       3.182   3.685  -4.279  0.00  0.00    +0.000 C 
ENDROOT
BRANCH   1   2
ATOM      2  N   UNL     1       3.690   4.967  -4.792  0.00  0.00    +0.000 N 
ATOM      3  C   UNL     1       2.651   5.879  -5.069  0.00  0.00    +0.000 A 
ATOM      4  C   UNL     1       2.966   7.145  -5.559  0.00  0.00    +0.000 A 
ATOM      5  C   UNL     1       1.936   8.057  -5.822  0.00  0.00    +0.000 A 
ATOM      6  C   UNL     1       0.610   7.690  -5.594  0.00  0.00    +0.000 A 
ATOM      7  C   UNL     1       0.391   6.418  -5.098  0.00  0.00    +0.000 A 
ATOM      8  N   UNL     1       1.374   5.525  -4.832  0.00  0.00    +0.000 NA
ATOM      9  H   UNL     1       4.252   4.854  -5.633  0.00  0.00    +0.000 HD
BRANCH   6  10
ATOM     10  C   UNL     1      -0.487   8.643  -5.881  0.00  0.00    +0.000 C 
ATOM     11  N   UNL     1      -1.782   8.253  -5.664  0.00  0.00    +0.000 N 
ATOM     12  O   UNL     1      -0.249   9.766  -6.312  0.00  0.00    +0.000 OA
ATOM     13  H   UNL     1      -2.091   7.360  -5.317  0.00  0.00    +0.000 HD
ATOM     14  H   UNL     1      -2.496   8.939  -5.877  0.00  0.00    +0.000 HD
ENDBRANCH   6  10
ENDBRANCH   1   2
BRANCH   1  15
ATOM     15  C   UNL     1       4.321   2.704  -3.975  0.00  0.00    +0.000 C 
BRANCH  15  20
ATOM     16  C   UNL     1       2.896   0.126  -1.520  0.00  0.00    +0.000 A 
ATOM     17  C   UNL     1       2.594  -0.920  -2.414  0.00  0.00    +0.000 A 
ATOM     18  C   UNL     1       2.873  -0.817  -3.779  0.00  0.00    +0.000 A 
ATOM     19  C   UNL     1       3.453   0.343  -4.288  0.00  0.00    +0.000 A 
ATOM     20  C   UNL     1       3.780   1.397  -3.430  0.00  0.00    +0.000 A 
ATOM     21  C   UNL     1       3.519   1.268  -2.053  0.00  0.00    +0.000 A 
BRANCH  16  23
ATOM     22  C   UNL     1       0.923  -0.071  -0.007  0.00  0.00    +0.000 C 
ATOM     23  C   UNL     1       2.460   0.013  -0.047  0.00  0.00    +0.000 C 
ATOM     24  C   UNL     1       3.119  -1.185   0.647  0.00  0.00    +0.000 C 
ATOM     25  C   UNL     1       4.343  -0.610   1.346  0.00  0.00    +0.000 C 
ATOM     26  O   UNL     1       4.251   0.818   1.293  0.00  0.00    +0.000 OA
ATOM     27  C   UNL     1       2.917   1.142   0.889  0.00  0.00    +0.000 C 
ENDBRANCH  16  23
ENDBRANCH  15  20
ENDBRANCH   1  15
TORSDOF 5
