REMARK  Name = 
REMARK  7 active torsions:
REMARK  status: ('A' for Active; 'I' for Inactive)
REMARK    1  A    between atoms: C_2  and  C_4
REMARK    2  A    between atoms: C_7  and  O_8
REMARK    3  A    between atoms: O_8  and  C_9
REMARK    4  A    between atoms: C_9  and  C_10
REMARK    5  A    between atoms: C_14  and  C_15
REMARK    6  A    between atoms: C_19  and  O_20
REMARK    7  A    between atoms: O_20  and  C_21
REMARK                            x       y       z     vdW  Elec       q    Type
REMARK                         _______ _______ _______ _____ _____    ______ ____
ROOT
ATOM      1  C   UNL     1       5.678  -0.149  -6.939  0.00  0.00    +0.000 A 
ATOM      2  C   UNL     1       7.072  -0.189  -7.098  0.00  0.00    +0.000 A 
ATOM      3  C   UNL     1       7.680  -1.069  -7.990  0.00  0.00    +0.000 A 
ATOM      4  C   UNL     1       6.902  -1.956  -8.733  0.00  0.00    +0.000 A 
ATOM      5  C   UNL     1       5.505  -1.973  -8.603  0.00  0.00    +0.000 A 
ATOM      6  C   UNL     1       4.921  -1.036  -7.726  0.00  0.00    +0.000 A 
ENDROOT
BRANCH   5   7
ATOM      7  C   UNL     1       4.674  -2.978  -9.295  0.00  0.00    +0.000 A 
ATOM      8  C   UNL     1       5.095  -4.301  -9.438  0.00  0.00    +0.000 A 
ATOM      9  N   UNL     1       4.373  -5.289 -10.027  0.00  0.00    +0.000 NA
ATOM     10  C   UNL     1       3.151  -4.947 -10.480  0.00  0.00    +0.000 A 
ATOM     11  C   UNL     1       2.604  -3.675 -10.366  0.00  0.00    +0.000 A 
ATOM     12  C   UNL     1       3.396  -2.677  -9.796  0.00  0.00    +0.000 A 
BRANCH  11  13
ATOM     13  O   UNL     1       1.339  -3.511 -10.846  0.00  0.00    +0.000 OA
BRANCH  13  14
ATOM     14  C   UNL     1       0.578  -2.498 -10.207  0.00  0.00    +0.000 C 
ATOM     15  F   UNL     1       0.871  -1.306 -10.780  0.00  0.00    +0.000 F 
ATOM     16  F   UNL     1      -0.729  -2.749 -10.469  0.00  0.00    +0.000 F 
ENDBRANCH  13  14
ENDBRANCH  11  13
ENDBRANCH   5   7
BRANCH   1  17
ATOM     17  C   UNL     1       5.022   0.759  -5.906  0.00  0.00    +0.000 C 
ATOM     18  C   UNL     1       3.910   0.181  -5.030  0.00  0.00    +0.000 C 
ATOM     19  C   UNL     1       5.252   0.454  -4.440  0.00  0.00    +0.000 C 
BRANCH  17  20
ATOM     20  O   UNL     1       4.674   2.104  -6.311  0.00  0.00    +0.000 OA
BRANCH  20  24
ATOM     21  C   UNL     1       7.520   5.086  -6.358  0.00  0.00    +0.000 A 
ATOM     22  C   UNL     1       6.209   5.362  -6.744  0.00  0.00    +0.000 A 
ATOM     23  C   UNL     1       5.264   4.337  -6.714  0.00  0.00    +0.000 A 
ATOM     24  C   UNL     1       5.660   3.075  -6.289  0.00  0.00    +0.000 A 
ATOM     25  N   UNL     1       6.915   2.783  -5.887  0.00  0.00    +0.000 NA
ATOM     26  C   UNL     1       7.822   3.791  -5.953  0.00  0.00    +0.000 A 
BRANCH  21  28
ATOM     27  N   UNL     1       8.240   7.409  -6.282  0.00  0.00    +0.000 N 
ATOM     28  C   UNL     1       8.601   6.095  -6.396  0.00  0.00    +0.000 C 
ATOM     29  O   UNL     1       9.775   5.768  -6.497  0.00  0.00    +0.000 OA
ATOM     30  H   UNL     1       8.997   8.079  -6.222  0.00  0.00    +0.000 HD
ATOM     31  H   UNL     1       7.332   7.705  -5.954  0.00  0.00    +0.000 HD
ENDBRANCH  21  28
ENDBRANCH  20  24
ENDBRANCH  17  20
ENDBRANCH   1  17
TORSDOF 7
