REMARK  Name = 
REMARK  6 active torsions:
REMARK  status: ('A' for Active; 'I' for Inactive)
REMARK    1  A    between atoms: C_1  and  C_2
REMARK    2  A    between atoms: N_6  and  C_7
REMARK    3  A    between atoms: C_7  and  C_8
REMARK    4  A    between atoms: C_11  and  O_12
REMARK    5  A    between atoms: O_12  and  C_13
REMARK    6  A    between atoms: C_22  and  C_23
REMARK                            x       y       z     vdW  Elec       q    Type
REMARK                         _______ _______ _______ _____ _____    ______ ____
ROOT
ATOM      1  C   UNL     1      -2.041   1.388   1.938  0.00  0.00    +0.000 C 
ATOM      2  C   UNL     1      -0.708   1.038   1.364  0.00  0.00    +0.000 A 
ATOM      3  C   UNL     1      -0.012  -0.079   1.770  0.00  0.00    +0.000 A 
ATOM      4  N   UNL     1       1.157  -0.487   1.229  0.00  0.00    +0.000 NA
ATOM      5  C   UNL     1       1.661   0.248   0.234  0.00  0.00    +0.000 A 
ATOM      6  N   UNL     1       2.766  -0.141  -0.518  0.00  0.00    +0.000 N 
ATOM      7  N   UNL     1       1.103   1.381  -0.200  0.00  0.00    +0.000 NA
ATOM      8  C   UNL     1      -0.072   1.755   0.372  0.00  0.00    +0.000 A 
ATOM      9  H   UNL     1       3.028   0.637  -1.107  0.00  0.00    +0.000 HD
ENDROOT
BRANCH   8  10
ATOM     10  C   UNL     1      -0.632   3.032  -0.198  0.00  0.00    +0.000 C 
ATOM     11  N   UNL     1       0.131   3.613  -1.177  0.00  0.00    +0.000 N 
ATOM     12  O   UNL     1      -1.683   3.548   0.166  0.00  0.00    +0.000 OA
ATOM     13  H   UNL     1       1.002   3.177  -1.455  0.00  0.00    +0.000 HD
ATOM     14  H   UNL     1      -0.171   4.472  -1.607  0.00  0.00    +0.000 HD
ENDBRANCH   8  10
BRANCH   6  15
ATOM     15  C   UNL     1       3.799  -1.082  -0.116  0.00  0.00    +0.000 C 
ATOM     16  C   UNL     1       3.977  -2.251  -1.080  0.00  0.00    +0.000 C 
ATOM     17  C   UNL     1       3.571  -2.517   0.326  0.00  0.00    +0.000 C 
BRANCH  15  18
ATOM     18  C   UNL     1       5.024  -0.443   0.529  0.00  0.00    +0.000 A 
ATOM     19  C   UNL     1       5.010  -0.134   1.900  0.00  0.00    +0.000 A 
ATOM     20  C   UNL     1       6.188   0.144   2.593  0.00  0.00    +0.000 A 
ATOM     21  C   UNL     1       7.407   0.091   1.926  0.00  0.00    +0.000 A 
ATOM     22  C   UNL     1       7.421  -0.024   0.536  0.00  0.00    +0.000 A 
ATOM     23  C   UNL     1       6.236  -0.276  -0.158  0.00  0.00    +0.000 A 
BRANCH  21  24
ATOM     24  O   UNL     1       8.621   0.168   2.535  0.00  0.00    +0.000 OA
BRANCH  24  25
ATOM     25  C   UNL     1       8.783  -0.553   3.754  0.00  0.00    +0.000 C 
ATOM     26  F   UNL     1       7.703  -1.265   4.144  0.00  0.00    +0.000 F 
ATOM     27  F   UNL     1       9.815  -1.419   3.620  0.00  0.00    +0.000 F 
ATOM     28  F   UNL     1       9.096   0.319   4.738  0.00  0.00    +0.000 F 
ENDBRANCH  24  25
ENDBRANCH  21  24
ENDBRANCH  15  18
ENDBRANCH   6  15
TORSDOF 5
