REMARK  Name = 
REMARK  8 active torsions:
REMARK  status: ('A' for Active; 'I' for Inactive)
REMARK    1  A    between atoms: C_1  and  N_2
REMARK    2  A    between atoms: N_2  and  C_3
REMARK    3  A    between atoms: C_3  and  C_4
REMARK    4  A    between atoms: C_7  and  C_8
REMARK    5  A    between atoms: C_8  and  O_9
REMARK    6  A    between atoms: C_8  and  C_10
REMARK    7  A    between atoms: C_10  and  N_11
REMARK    8  A    between atoms: C_18  and  C_20
REMARK                            x       y       z     vdW  Elec       q    Type
REMARK                         _______ _______ _______ _____ _____    ______ ____
ROOT
ATOM      1  C   UNL     1      -2.613   7.747  -0.193  0.00  0.00    +0.000 C 
ENDROOT
BRANCH   1   2
ATOM      2  C   UNL     1      -1.925   6.857   0.803  0.00  0.00    +0.000 A 
ATOM      3  C   UNL     1      -0.994   7.391   1.705  0.00  0.00    +0.000 A 
ATOM      4  C   UNL     1      -0.385   6.576   2.658  0.00  0.00    +0.000 A 
ATOM      5  C   UNL     1      -0.729   5.220   2.757  0.00  0.00    +0.000 A 
ATOM      6  C   UNL     1      -1.634   4.684   1.825  0.00  0.00    +0.000 A 
ATOM      7  C   UNL     1      -2.220   5.493   0.853  0.00  0.00    +0.000 A 
BRANCH   5   8
ATOM      8  C   UNL     1      -0.168   4.383   3.899  0.00  0.00    +0.000 C 
BRANCH   8   9
ATOM      9  O   UNL     1       0.653   3.338   3.377  0.00  0.00    +0.000 OA
ATOM     10  H   UNL     1       0.328   3.110   2.491  0.00  0.00    +0.000 HD
ENDBRANCH   8   9
BRANCH   8  11
ATOM     11  C   UNL     1      -1.325   3.823   4.786  0.00  0.00    +0.000 C 
BRANCH  11  12
ATOM     12  N   UNL     1      -1.046   3.080   6.028  0.00  0.00    +0.000 NA
ATOM     13  C   UNL     1      -0.277   3.820   7.027  0.00  0.00    +0.000 C 
ATOM     14  C   UNL     1       1.152   3.343   6.870  0.00  0.00    +0.000 C 
ATOM     15  C   UNL     1       0.988   1.881   6.506  0.00  0.00    +0.000 C 
ATOM     16  C   UNL     1      -0.370   1.795   5.820  0.00  0.00    +0.000 C 
ENDBRANCH  11  12
ENDBRANCH   8  11
ENDBRANCH   5   8
ENDBRANCH   1   2
BRANCH   1  18
ATOM     17  C   UNL     1      -0.676   7.383  -1.795  0.00  0.00    +0.000 C 
ATOM     18  N   UNL     1      -2.008   7.908  -1.515  0.00  0.00    +0.000 N 
ATOM     19  C   UNL     1      -2.669   8.499  -2.610  0.00  0.00    +0.000 C 
ATOM     20  O   UNL     1      -2.125   8.565  -3.711  0.00  0.00    +0.000 OA
BRANCH  19  21
ATOM     21  C   UNL     1      -4.016   9.073  -2.429  0.00  0.00    +0.000 A 
ATOM     22  C   UNL     1      -4.408   9.850  -1.354  0.00  0.00    +0.000 A 
ATOM     23  S   UNL     1      -6.021  10.393  -1.441  0.00  0.00    +0.000 S 
ATOM     24  C   UNL     1      -6.199   9.745  -2.996  0.00  0.00    +0.000 A 
ATOM     25  N   UNL     1      -7.348   9.958  -3.701  0.00  0.00    +0.000 NA
ATOM     26  C   UNL     1      -7.329   9.456  -4.890  0.00  0.00    +0.000 A 
ATOM     27  N   UNL     1      -6.289   8.736  -5.424  0.00  0.00    +0.000 N 
ATOM     28  C   UNL     1      -5.165   8.391  -4.707  0.00  0.00    +0.000 A 
ATOM     29  O   UNL     1      -4.371   7.562  -5.136  0.00  0.00    +0.000 OA
ATOM     30  C   UNL     1      -5.086   9.032  -3.402  0.00  0.00    +0.000 A 
ATOM     31  H   UNL     1      -6.373   8.309  -6.336  0.00  0.00    +0.000 HD
ENDBRANCH  19  21
ENDBRANCH   1  18
TORSDOF 7
