REMARK  Name = 
REMARK  5 active torsions:
REMARK  status: ('A' for Active; 'I' for Inactive)
REMARK    1  A    between atoms: C_2  and  C_4
REMARK    2  A    between atoms: C_7  and  C_8
REMARK    3  A    between atoms: C_8  and  N_9
REMARK    4  A    between atoms: C_14  and  C_15
REMARK    5  A    between atoms: C_15  and  O_17
REMARK                            x       y       z     vdW  Elec       q    Type
REMARK                         _______ _______ _______ _____ _____    ______ ____
ROOT
ATOM      1  N   UNL     1       5.137  -5.139   2.797  0.00  0.00    +0.000 N 
ATOM      2  C   UNL     1       4.379  -5.821   3.710  0.00  0.00    +0.000 A 
ATOM      3  N   UNL     1       4.105  -7.037   3.301  0.00  0.00    +0.000 NA
ATOM      4  C   UNL     1       4.735  -7.161   2.089  0.00  0.00    +0.000 A 
ATOM      5  C   UNL     1       4.757  -8.258   1.218  0.00  0.00    +0.000 A 
ATOM      6  C   UNL     1       5.463  -8.137   0.013  0.00  0.00    +0.000 A 
ATOM      7  C   UNL     1       6.180  -6.968  -0.283  0.00  0.00    +0.000 A 
ATOM      8  C   UNL     1       6.170  -5.866   0.582  0.00  0.00    +0.000 A 
ATOM      9  C   UNL     1       5.419  -5.993   1.756  0.00  0.00    +0.000 A 
ENDROOT
BRANCH   6  10
ATOM     10  C   UNL     1       5.503  -9.245  -0.972  0.00  0.00    +0.000 C 
ATOM     11  O   UNL     1       6.459  -9.450  -1.698  0.00  0.00    +0.000 OA
BRANCH  10  12
ATOM     12  O   UNL     1       4.362  -9.967  -1.031  0.00  0.00    +0.000 OA
ATOM     13  H   UNL     1       3.611  -9.607  -0.524  0.00  0.00    +0.000 HD
ENDBRANCH  10  12
ENDBRANCH   6  10
BRANCH   1  14
ATOM     14  C   UNL     1       5.523  -3.741   2.915  0.00  0.00    +0.000 C 
BRANCH  14  18
ATOM     15  C   UNL     1       3.115  -1.023   0.690  0.00  0.00    +0.000 A 
ATOM     16  C   UNL     1       2.485  -2.135   1.225  0.00  0.00    +0.000 A 
ATOM     17  C   UNL     1       3.252  -3.036   1.959  0.00  0.00    +0.000 A 
ATOM     18  C   UNL     1       4.626  -2.817   2.128  0.00  0.00    +0.000 A 
ATOM     19  C   UNL     1       5.151  -1.648   1.578  0.00  0.00    +0.000 A 
ATOM     20  N   UNL     1       4.439  -0.750   0.859  0.00  0.00    +0.000 NA
BRANCH  15  22
ATOM     21  N   UNL     1       3.037   0.979  -0.674  0.00  0.00    +0.000 N 
ATOM     22  C   UNL     1       2.325  -0.059  -0.140  0.00  0.00    +0.000 C 
ATOM     23  O   UNL     1       1.124  -0.187  -0.340  0.00  0.00    +0.000 OA
ATOM     24  H   UNL     1       2.573   1.648  -1.269  0.00  0.00    +0.000 HD
ATOM     25  H   UNL     1       4.036   1.044  -0.503  0.00  0.00    +0.000 HD
ENDBRANCH  15  22
ENDBRANCH  14  18
ENDBRANCH   1  14
TORSDOF 5
