REMARK  Name = 
REMARK  5 active torsions:
REMARK  status: ('A' for Active; 'I' for Inactive)
REMARK    1  A    between atoms: C_2  and  C_4
REMARK    2  A    between atoms: C_7  and  N_8
REMARK    3  A    between atoms: N_8  and  C_9
REMARK    4  A    between atoms: C_9  and  C_10
REMARK    5  A    between atoms: C_15  and  C_16
REMARK                            x       y       z     vdW  Elec       q    Type
REMARK                         _______ _______ _______ _____ _____    ______ ____
ROOT
ATOM      1  C   UNL     1       4.811   3.491   4.872  0.00  0.00    +0.000 C 
ENDROOT
BRANCH   1   2
ATOM      2  C   UNL     1       5.552   4.616   5.562  0.00  0.00    +0.000 A 
ATOM      3  C   UNL     1       5.187   5.951   5.373  0.00  0.00    +0.000 A 
ATOM      4  C   UNL     1       5.922   6.961   5.990  0.00  0.00    +0.000 A 
ATOM      5  C   UNL     1       7.021   6.643   6.791  0.00  0.00    +0.000 A 
ATOM      6  F   UNL     1       7.702   7.668   7.329  0.00  0.00    +0.000 F 
ATOM      7  C   UNL     1       7.425   5.317   7.021  0.00  0.00    +0.000 A 
ATOM      8  C   UNL     1       6.661   4.318   6.387  0.00  0.00    +0.000 A 
BRANCH   7   9
ATOM      9  C   UNL     1       8.582   4.968   7.883  0.00  0.00    +0.000 A 
ATOM     10  C   UNL     1       9.401   3.853   7.605  0.00  0.00    +0.000 A 
ATOM     11  C   UNL     1      10.487   3.510   8.423  0.00  0.00    +0.000 A 
ATOM     12  C   UNL     1      10.789   4.286   9.536  0.00  0.00    +0.000 A 
ATOM     13  C   UNL     1       9.999   5.390   9.823  0.00  0.00    +0.000 A 
ATOM     14  F   UNL     1      10.285   6.143  10.893  0.00  0.00    +0.000 F 
ATOM     15  C   UNL     1       8.909   5.726   9.021  0.00  0.00    +0.000 A 
ENDBRANCH   7   9
ENDBRANCH   1   2
BRANCH   1  16
ATOM     16  N   UNL     1       4.282   2.594   5.890  0.00  0.00    +0.000 N 
ATOM     17  H   UNL     1       3.471   2.984   6.359  0.00  0.00    +0.000 HD
BRANCH  16  21
ATOM     18  C   UNL     1       3.813  -1.370   4.944  0.00  0.00    +0.000 A 
ATOM     19  C   UNL     1       4.261  -0.468   3.994  0.00  0.00    +0.000 A 
ATOM     20  N   UNL     1       4.390   0.861   4.254  0.00  0.00    +0.000 NA
ATOM     21  C   UNL     1       4.065   1.272   5.498  0.00  0.00    +0.000 A 
ATOM     22  C   UNL     1       3.609   0.339   6.442  0.00  0.00    +0.000 A 
ATOM     23  N   UNL     1       3.458  -0.989   6.200  0.00  0.00    +0.000 NA
BRANCH  18  25
ATOM     24  N   UNL     1       3.263  -3.630   5.608  0.00  0.00    +0.000 N 
ATOM     25  C   UNL     1       3.734  -2.818   4.612  0.00  0.00    +0.000 C 
ATOM     26  O   UNL     1       4.072  -3.259   3.522  0.00  0.00    +0.000 OA
ATOM     27  H   UNL     1       3.199  -4.625   5.452  0.00  0.00    +0.000 HD
ATOM     28  H   UNL     1       3.003  -3.234   6.505  0.00  0.00    +0.000 HD
ENDBRANCH  18  25
ENDBRANCH  16  21
ENDBRANCH   1  16
TORSDOF 5
