REMARK  Name = 
REMARK  10 active torsions:
REMARK  status: ('A' for Active; 'I' for Inactive)
REMARK    1  A    between atoms: C_1  and  C_2
REMARK    2  A    between atoms: C_2  and  C_3
REMARK    3  A    between atoms: C_3  and  N_4
REMARK    4  A    between atoms: C_10  and  C_11
REMARK    5  A    between atoms: N_13  and  C_14
REMARK    6  A    between atoms: C_14  and  C_15
REMARK    7  A    between atoms: C_18  and  C_19
REMARK    8  A    between atoms: C_19  and  N_20
REMARK    9  A    between atoms: C_21  and  C_23
REMARK   10  A    between atoms: N_27  and  C_28
REMARK                            x       y       z     vdW  Elec       q    Type
REMARK                         _______ _______ _______ _____ _____    ______ ____
ROOT
ATOM      1  C   UNL     1       8.244  -4.518  -0.271  0.00  0.00    +0.000 C 
ENDROOT
BRANCH   1   2
ATOM      2  C   UNL     1       9.564  -5.246  -0.170  0.00  0.00    +0.000 A 
ATOM      3  C   UNL     1      10.117  -5.539   1.087  0.00  0.00    +0.000 A 
ATOM      4  C   UNL     1      11.334  -6.226   1.197  0.00  0.00    +0.000 A 
ATOM      5  C   UNL     1      12.041  -6.604   0.048  0.00  0.00    +0.000 A 
ATOM      6  C   UNL     1      11.496  -6.297  -1.204  0.00  0.00    +0.000 A 
ATOM      7  C   UNL     1      10.270  -5.629  -1.316  0.00  0.00    +0.000 A 
BRANCH   5   8
ATOM      8  C   UNL     1      13.352  -7.340   0.132  0.00  0.00    +0.000 C 
BRANCH   8   9
ATOM      9  N   UNL     1      13.159  -8.768   0.161  0.00  0.00    +0.000 N 
ATOM     10  C   UNL     1      14.237  -9.628   0.153  0.00  0.00    +0.000 C 
ATOM     11  O   UNL     1      15.392  -9.217   0.113  0.00  0.00    +0.000 OA
ATOM     12  H   UNL     1      12.218  -9.121   0.244  0.00  0.00    +0.000 HD
BRANCH  10  13
ATOM     13  C   UNL     1      13.883 -11.037   0.209  0.00  0.00    +0.000 A 
ATOM     14  C   UNL     1      12.640 -11.655   0.210  0.00  0.00    +0.000 A 
ATOM     15  C   UNL     1      12.903 -13.031   0.277  0.00  0.00    +0.000 A 
ATOM     16  N   UNL     1      14.207 -13.291   0.301  0.00  0.00    +0.000 NA
ATOM     17  N   UNL     1      14.783 -12.069   0.267  0.00  0.00    +0.000 N 
ATOM     18  C   UNL     1      16.225 -11.975   0.320  0.00  0.00    +0.000 C 
ENDBRANCH  10  13
ENDBRANCH   8   9
ENDBRANCH   5   8
ENDBRANCH   1   2
BRANCH   1  21
ATOM     19  C   UNL     1       7.343  -2.236  -0.393  0.00  0.00    +0.000 C 
ATOM     20  O   UNL     1       6.186  -2.636  -0.477  0.00  0.00    +0.000 OA
ATOM     21  N   UNL     1       8.421  -3.092  -0.369  0.00  0.00    +0.000 N 
ATOM     22  H   UNL     1       9.297  -2.739  -0.003  0.00  0.00    +0.000 HD
BRANCH  19  29
ATOM     23  N   UNL     1      10.822   0.225   1.485  0.00  0.00    +0.000 N 
ATOM     24  C   UNL     1      10.672   1.572   1.220  0.00  0.00    +0.000 A 
ATOM     25  N   UNL     1       9.699   2.109   0.558  0.00  0.00    +0.000 NA
ATOM     26  C   UNL     1       8.776   1.227   0.098  0.00  0.00    +0.000 A 
ATOM     27  S   UNL     1       7.422   1.742  -0.797  0.00  0.00    +0.000 S 
ATOM     28  C   UNL     1       6.836   0.141  -0.944  0.00  0.00    +0.000 A 
ATOM     29  C   UNL     1       7.664  -0.802  -0.348  0.00  0.00    +0.000 A 
ATOM     30  C   UNL     1       8.784  -0.140   0.278  0.00  0.00    +0.000 A 
ATOM     31  C   UNL     1       9.877  -0.697   1.056  0.00  0.00    +0.000 A 
ATOM     32  O   UNL     1       9.967  -1.898   1.295  0.00  0.00    +0.000 OA
BRANCH  23  33
ATOM     33  C   UNL     1      11.990  -0.262   2.209  0.00  0.00    +0.000 C 
BRANCH  33  35
ATOM     34  C   UNL     1      11.410   0.861   4.439  0.00  0.00    +0.000 C 
ATOM     35  C   UNL     1      11.758  -0.430   3.714  0.00  0.00    +0.000 C 
ENDBRANCH  33  35
ENDBRANCH  23  33
ENDBRANCH  19  29
ENDBRANCH   1  21
TORSDOF 8
