REMARK  Name = 
REMARK  9 active torsions:
REMARK  status: ('A' for Active; 'I' for Inactive)
REMARK    1  A    between atoms: C_1  and  C_2
REMARK    2  A    between atoms: C_2  and  C_3
REMARK    3  A    between atoms: C_3  and  C_4
REMARK    4  A    between atoms: C_4  and  N_5
REMARK    5  A    between atoms: C_4  and  C_18
REMARK    6  A    between atoms: C_6  and  C_8
REMARK    7  A    between atoms: C_21  and  C_22
REMARK    8  A    between atoms: C_22  and  O_23
REMARK    9  A    between atoms: O_23  and  C_24
REMARK                            x       y       z     vdW  Elec       q    Type
REMARK                         _______ _______ _______ _____ _____    ______ ____
ROOT
ATOM      1  C   UNL     1       4.420  -1.019   1.008  0.00  0.00    +0.000 C 
ENDROOT
BRANCH   1   2
ATOM      2  C   UNL     1       4.999  -1.904   2.112  0.00  0.00    +0.000 A 
ATOM      3  C   UNL     1       5.824  -2.996   1.808  0.00  0.00    +0.000 A 
ATOM      4  C   UNL     1       6.373  -3.781   2.830  0.00  0.00    +0.000 A 
ATOM      5  C   UNL     1       6.113  -3.491   4.176  0.00  0.00    +0.000 A 
ATOM      6  C   UNL     1       5.284  -2.406   4.482  0.00  0.00    +0.000 A 
ATOM      7  C   UNL     1       4.731  -1.626   3.464  0.00  0.00    +0.000 A 
BRANCH   5   8
ATOM      8  C   UNL     1       6.731  -4.312   5.286  0.00  0.00    +0.000 C 
BRANCH   8   9
ATOM      9  O   UNL     1       8.003  -3.753   5.627  0.00  0.00    +0.000 OA
BRANCH   9  10
ATOM     10  C   UNL     1       8.584  -4.391   6.707  0.00  0.00    +0.000 A 
ATOM     11  C   UNL     1       9.824  -3.929   7.119  0.00  0.00    +0.000 A 
ATOM     12  C   UNL     1      10.426  -4.537   8.219  0.00  0.00    +0.000 A 
ATOM     13  C   UNL     1       9.769  -5.580   8.863  0.00  0.00    +0.000 A 
ATOM     14  C   UNL     1       8.535  -5.976   8.375  0.00  0.00    +0.000 A 
ATOM     15  N   UNL     1       7.930  -5.407   7.311  0.00  0.00    +0.000 NA
ENDBRANCH   9  10
ENDBRANCH   8   9
ENDBRANCH   5   8
ENDBRANCH   1   2
BRANCH   1  16
ATOM     16  N   UNL     1       4.917   0.335   1.210  0.00  0.00    +0.000 N 
ATOM     17  C   UNL     1       4.659   1.410   0.402  0.00  0.00    +0.000 C 
ATOM     18  O   UNL     1       3.904   1.360  -0.567  0.00  0.00    +0.000 OA
ATOM     19  H   UNL     1       5.740   0.385   1.803  0.00  0.00    +0.000 HD
BRANCH  17  20
ATOM     20  C   UNL     1       5.313   2.662   0.793  0.00  0.00    +0.000 A 
ATOM     21  C   UNL     1       4.730   3.885   0.499  0.00  0.00    +0.000 A 
ATOM     22  S   UNL     1       5.662   5.222   1.013  0.00  0.00    +0.000 S 
ATOM     23  C   UNL     1       6.892   4.208   1.609  0.00  0.00    +0.000 A 
ATOM     24  N   UNL     1       8.038   4.720   2.136  0.00  0.00    +0.000 NA
ATOM     25  C   UNL     1       8.892   3.831   2.518  0.00  0.00    +0.000 A 
ATOM     26  N   UNL     1       8.699   2.475   2.446  0.00  0.00    +0.000 N 
ATOM     27  C   UNL     1       7.540   1.918   1.973  0.00  0.00    +0.000 A 
ATOM     28  O   UNL     1       7.361   0.708   2.011  0.00  0.00    +0.000 OA
ATOM     29  C   UNL     1       6.570   2.871   1.469  0.00  0.00    +0.000 A 
ATOM     30  H   UNL     1       9.387   1.828   2.798  0.00  0.00    +0.000 HD
ENDBRANCH  17  20
ENDBRANCH   1  16
BRANCH   1  31
ATOM     31  C   UNL     1       2.881  -1.063   0.998  0.00  0.00    +0.000 C 
BRANCH  31  33
ATOM     32  C   UNL     1       0.808  -2.455   0.758  0.00  0.00    +0.000 C 
ATOM     33  C   UNL     1       2.327  -2.466   0.753  0.00  0.00    +0.000 C 
ENDBRANCH  31  33
ENDBRANCH   1  31
TORSDOF 8
