REMARK  Name = 
REMARK  8 active torsions:
REMARK  status: ('A' for Active; 'I' for Inactive)
REMARK    1  A    between atoms: C_1  and  C_2
REMARK    2  A    between atoms: C_2  and  N_3
REMARK    3  A    between atoms: C_2  and  C_4
REMARK    4  A    between atoms: C_4  and  C_5
REMARK    5  A    between atoms: C_8  and  O_9
REMARK    6  A    between atoms: O_9  and  C_10
REMARK    7  A    between atoms: C_10  and  C_11
REMARK    8  A    between atoms: C_13  and  C_14
REMARK                            x       y       z     vdW  Elec       q    Type
REMARK                         _______ _______ _______ _____ _____    ______ ____
ROOT
ATOM      1  C   UNL     1       4.438   1.501   0.158  0.00  0.00    +0.000 A 
ATOM      2  C   UNL     1       5.145   2.709   0.135  0.00  0.00    +0.000 A 
ATOM      3  C   UNL     1       6.541   2.717   0.262  0.00  0.00    +0.000 A 
ATOM      4  C   UNL     1       7.239   1.517   0.427  0.00  0.00    +0.000 A 
ATOM      5  C   UNL     1       6.538   0.312   0.413  0.00  0.00    +0.000 A 
ATOM      6  C   UNL     1       5.150   0.304   0.302  0.00  0.00    +0.000 A 
ENDROOT
BRANCH   1   7
ATOM      7  C   UNL     1       2.928   1.459   0.068  0.00  0.00    +0.000 C 
BRANCH   7   9
ATOM      8  C   UNL     1       2.730   1.435  -2.520  0.00  0.00    +0.000 C 
ATOM      9  C   UNL     1       2.348   2.034  -1.200  0.00  0.00    +0.000 C 
BRANCH   9  10
ATOM     10  N   UNL     1       1.263   2.955  -1.140  0.00  0.00    +0.000 NA
ATOM     11  H   UNL     1       1.015   3.470  -1.977  0.00  0.00    +0.000 HD
ATOM     12  H   UNL     1       1.077   3.446  -0.272  0.00  0.00    +0.000 HD
ENDBRANCH   9  10
ENDBRANCH   7   9
ENDBRANCH   1   7
BRANCH   4  13
ATOM     13  O   UNL     1       8.592   1.619   0.601  0.00  0.00    +0.000 OA
BRANCH  13  14
ATOM     14  C   UNL     1       9.197   0.479   1.228  0.00  0.00    +0.000 C 
BRANCH  14  15
ATOM     15  C   UNL     1      10.517   0.869   1.843  0.00  0.00    +0.000 A 
ATOM     16  C   UNL     1      10.556   1.909   2.766  0.00  0.00    +0.000 A 
ATOM     17  C   UNL     1      11.771   2.243   3.367  0.00  0.00    +0.000 A 
ATOM     18  C   UNL     1      12.909   1.507   3.022  0.00  0.00    +0.000 A 
ATOM     19  C   UNL     1      12.780   0.476   2.105  0.00  0.00    +0.000 A 
ATOM     20  N   UNL     1      11.613   0.140   1.518  0.00  0.00    +0.000 NA
BRANCH  17  21
ATOM     21  C   UNL     1      11.857   3.366   4.361  0.00  0.00    +0.000 C 
ATOM     22  F   UNL     1      10.661   3.974   4.601  0.00  0.00    +0.000 F 
ATOM     23  F   UNL     1      12.312   2.951   5.575  0.00  0.00    +0.000 F 
ATOM     24  F   UNL     1      12.704   4.352   3.959  0.00  0.00    +0.000 F 
ENDBRANCH  17  21
ENDBRANCH  14  15
ENDBRANCH  13  14
ENDBRANCH   4  13
TORSDOF 7
