REMARK  Name = 
REMARK  6 active torsions:
REMARK  status: ('A' for Active; 'I' for Inactive)
REMARK    1  A    between atoms: C_2  and  C_4
REMARK    2  A    between atoms: N_8  and  C_9
REMARK    3  A    between atoms: C_9  and  C_10
REMARK    4  A    between atoms: C_10  and  C_13
REMARK    5  A    between atoms: C_17  and  O_18
REMARK    6  A    between atoms: O_18  and  C_19
REMARK                            x       y       z     vdW  Elec       q    Type
REMARK                         _______ _______ _______ _____ _____    ______ ____
ROOT
ATOM      1  C   UNL     1       5.335  -3.002   5.062  0.00  0.00    +0.000 C 
ENDROOT
BRANCH   1   6
ATOM      2  C   UNL     1       2.943  -0.175   1.522  0.00  0.00    +0.000 A 
ATOM      3  C   UNL     1       2.422  -1.098   2.423  0.00  0.00    +0.000 A 
ATOM      4  C   UNL     1       3.255  -1.630   3.410  0.00  0.00    +0.000 A 
ATOM      5  C   UNL     1       4.588  -1.238   3.482  0.00  0.00    +0.000 A 
ATOM      6  N   UNL     1       5.437  -1.647   4.495  0.00  0.00    +0.000 N 
ATOM      7  N   UNL     1       5.108  -0.364   2.598  0.00  0.00    +0.000 NA
ATOM      8  C   UNL     1       4.285   0.141   1.634  0.00  0.00    +0.000 A 
ATOM      9  H   UNL     1       6.381  -1.323   4.290  0.00  0.00    +0.000 HD
BRANCH   2  11
ATOM     10  N   UNL     1       0.787   0.603   0.720  0.00  0.00    +0.000 N 
ATOM     11  C   UNL     1       2.122   0.458   0.467  0.00  0.00    +0.000 C 
ATOM     12  O   UNL     1       2.621   0.867  -0.572  0.00  0.00    +0.000 OA
ATOM     13  H   UNL     1       0.255   1.135   0.039  0.00  0.00    +0.000 HD
ATOM     14  H   UNL     1       0.399   0.530   1.650  0.00  0.00    +0.000 HD
ENDBRANCH   2  11
ENDBRANCH   1   6
BRANCH   1  15
ATOM     15  C   UNL     1       6.439  -3.313   6.113  0.00  0.00    +0.000 C 
ATOM     16  F   UNL     1       7.652  -3.232   5.483  0.00  0.00    +0.000 F 
ATOM     17  F   UNL     1       6.454  -2.313   7.044  0.00  0.00    +0.000 F 
BRANCH  15  18
ATOM     18  C   UNL     1       6.225  -4.674   6.757  0.00  0.00    +0.000 A 
ATOM     19  C   UNL     1       6.770  -5.828   6.177  0.00  0.00    +0.000 A 
ATOM     20  C   UNL     1       6.569  -7.078   6.766  0.00  0.00    +0.000 A 
ATOM     21  C   UNL     1       5.832  -7.192   7.948  0.00  0.00    +0.000 A 
ATOM     22  C   UNL     1       5.296  -6.056   8.549  0.00  0.00    +0.000 A 
ATOM     23  C   UNL     1       5.491  -4.804   7.953  0.00  0.00    +0.000 A 
BRANCH  22  24
ATOM     24  O   UNL     1       4.627  -6.063   9.752  0.00  0.00    +0.000 OA
BRANCH  24  25
ATOM     25  C   UNL     1       3.862  -7.237  10.107  0.00  0.00    +0.000 C 
ATOM     26  C   UNL     1       3.147  -7.188  11.468  0.00  0.00    +0.000 C 
ATOM     27  C   UNL     1       3.742  -8.577  11.669  0.00  0.00    +0.000 C 
ATOM     28  O   UNL     1       4.646  -8.382  10.556  0.00  0.00    +0.000 OA
ENDBRANCH  24  25
ENDBRANCH  22  24
ENDBRANCH  15  18
ENDBRANCH   1  15
TORSDOF 6
