REMARK  Name = 
REMARK  5 active torsions:
REMARK  status: ('A' for Active; 'I' for Inactive)
REMARK    1  A    between atoms: N_1  and  C_2
REMARK    2  A    between atoms: C_2  and  C_3
REMARK    3  A    between atoms: C_3  and  C_4
REMARK    4  A    between atoms: C_7  and  C_8
REMARK    5  A    between atoms: C_8  and  C_9
REMARK                            x       y       z     vdW  Elec       q    Type
REMARK                         _______ _______ _______ _____ _____    ______ ____
ROOT
ATOM      1  C   UNL     1       9.009  -1.741   0.689  0.00  0.00    +0.000 C 
ENDROOT
BRANCH   1   2
ATOM      2  C   UNL     1       9.440  -1.847   2.122  0.00  0.00    +0.000 A 
ATOM      3  C   UNL     1       9.370  -0.858   3.092  0.00  0.00    +0.000 A 
ATOM      4  N   UNL     1      10.013  -1.310   4.212  0.00  0.00    +0.000 N 
ATOM      5  C   UNL     1      10.718  -2.444   3.900  0.00  0.00    +0.000 A 
ATOM      6  C   UNL     1      11.765  -3.078   4.565  0.00  0.00    +0.000 A 
ATOM      7  F   UNL     1      12.341  -2.517   5.637  0.00  0.00    +0.000 F 
ATOM      8  C   UNL     1      12.254  -4.275   4.050  0.00  0.00    +0.000 A 
ATOM      9  C   UNL     1      11.641  -4.864   2.946  0.00  0.00    +0.000 A 
ATOM     10  C   UNL     1      10.615  -4.199   2.259  0.00  0.00    +0.000 A 
ATOM     11  C   UNL     1      10.204  -2.921   2.696  0.00  0.00    +0.000 A 
ATOM     12  H   UNL     1      10.065  -0.830   5.101  0.00  0.00    +0.000 HD
ENDBRANCH   1   2
BRANCH   1  16
ATOM     13  C   UNL     1       4.694  -1.367   0.447  0.00  0.00    +0.000 A 
ATOM     14  C   UNL     1       5.506  -0.231   0.494  0.00  0.00    +0.000 A 
ATOM     15  C   UNL     1       6.900  -0.349   0.580  0.00  0.00    +0.000 A 
ATOM     16  C   UNL     1       7.509  -1.606   0.647  0.00  0.00    +0.000 A 
ATOM     17  C   UNL     1       6.706  -2.743   0.620  0.00  0.00    +0.000 A 
ATOM     18  C   UNL     1       5.310  -2.624   0.529  0.00  0.00    +0.000 A 
BRANCH  13  19
ATOM     19  C   UNL     1       3.182  -1.321   0.424  0.00  0.00    +0.000 C 
BRANCH  19  20
ATOM     20  C   UNL     1       2.531  -0.109  -0.253  0.00  0.00    +0.000 C 
BRANCH  20  21
ATOM     21  N   UNL     1       1.069  -0.213  -0.210  0.00  0.00    +0.000 NA
ATOM     22  H   UNL     1       0.656   0.612  -0.641  0.00  0.00    +0.000 HD
ATOM     23  H   UNL     1       0.753  -0.216   0.762  0.00  0.00    +0.000 HD
ENDBRANCH  20  21
ENDBRANCH  19  20
ENDBRANCH  13  19
ENDBRANCH   1  16
TORSDOF 5
