REMARK  Name = 
REMARK  5 active torsions:
REMARK  status: ('A' for Active; 'I' for Inactive)
REMARK    1  A    between atoms: C_1  and  C_2
REMARK    2  A    between atoms: C_5  and  C_6
REMARK    3  A    between atoms: C_6  and  O_7
REMARK    4  A    between atoms: O_7  and  C_8
REMARK    5  A    between atoms: C_11  and  C_12
REMARK                            x       y       z     vdW  Elec       q    Type
REMARK                         _______ _______ _______ _____ _____    ______ ____
ROOT
ATOM      1  C   UNL     1      -5.200   1.552  -0.153  0.00  0.00    +0.000 A 
ATOM      2  C   UNL     1      -6.132   0.520  -0.085  0.00  0.00    +0.000 A 
ATOM      3  C   UNL     1      -7.491   0.826  -0.046  0.00  0.00    +0.000 A 
ATOM      4  C   UNL     1      -7.874   2.161  -0.080  0.00  0.00    +0.000 A 
ATOM      5  N   UNL     1      -6.997   3.200  -0.146  0.00  0.00    +0.000 NA
ATOM      6  C   UNL     1      -5.684   2.859  -0.182  0.00  0.00    +0.000 A 
ENDROOT
BRANCH   4   7
ATOM      7  C   UNL     1      -9.329   2.509  -0.026  0.00  0.00    +0.000 C 
ATOM      8  N   UNL     1      -9.629   3.841  -0.063  0.00  0.00    +0.000 N 
ATOM      9  O   UNL     1     -10.208   1.653   0.048  0.00  0.00    +0.000 OA
ATOM     10  H   UNL     1      -8.880   4.525  -0.115  0.00  0.00    +0.000 HD
ATOM     11  H   UNL     1     -10.593   4.135  -0.021  0.00  0.00    +0.000 HD
ENDBRANCH   4   7
BRANCH   1  12
ATOM     12  O   UNL     1      -3.845   1.401  -0.154  0.00  0.00    +0.000 OA
BRANCH  12  13
ATOM     13  C   UNL     1      -3.349   0.061  -0.039  0.00  0.00    +0.000 C 
BRANCH  13  18
ATOM     14  C   UNL     1       2.488  -0.027  -0.043  0.00  0.00    +0.000 C 
ATOM     15  C   UNL     1       0.988  -0.002  -0.028  0.00  0.00    +0.000 A 
ATOM     16  C   UNL     1       0.300   1.104   0.477  0.00  0.00    +0.000 A 
ATOM     17  C   UNL     1      -1.097   1.131   0.479  0.00  0.00    +0.000 A 
ATOM     18  C   UNL     1      -1.836   0.060  -0.039  0.00  0.00    +0.000 A 
ATOM     19  C   UNL     1      -1.143  -1.058  -0.525  0.00  0.00    +0.000 A 
ATOM     20  C   UNL     1       0.256  -1.085  -0.525  0.00  0.00    +0.000 A 
ENDBRANCH  13  18
ENDBRANCH  12  13
ENDBRANCH   1  12
TORSDOF 4
