REMARK  Name = 
REMARK  8 active torsions:
REMARK  status: ('A' for Active; 'I' for Inactive)
REMARK    1  A    between atoms: C_2  and  C_16
REMARK    2  A    between atoms: N_3  and  C_4
REMARK    3  A    between atoms: C_4  and  C_5
REMARK    4  A    between atoms: N_8  and  C_9
REMARK    5  A    between atoms: C_9  and  C_10
REMARK    6  A    between atoms: C_10  and  O_11
REMARK    7  A    between atoms: C_13  and  C_14
REMARK    8  A    between atoms: C_14  and  O_15
REMARK                            x       y       z     vdW  Elec       q    Type
REMARK                         _______ _______ _______ _____ _____    ______ ____
ROOT
ATOM      1  O   UNL     1       3.614   0.923  -1.781  0.00  0.00    +0.000 OA
ATOM      2  C   UNL     1       2.630   0.812  -2.499  0.00  0.00    +0.000 C 
ATOM      3  N   UNL     1       1.933  -0.364  -2.645  0.00  0.00    +0.000 N 
ATOM      4  H   UNL     1       1.097  -0.372  -3.215  0.00  0.00    +0.000 HD
ENDROOT
BRANCH   2   5
ATOM      5  C   UNL     1       2.147   1.923  -3.326  0.00  0.00    +0.000 A 
ATOM      6  C   UNL     1       3.022   2.924  -3.729  0.00  0.00    +0.000 A 
ATOM      7  S   UNL     1       2.292   4.096  -4.733  0.00  0.00    +0.000 S 
ATOM      8  C   UNL     1       0.776   3.329  -4.620  0.00  0.00    +0.000 A 
ATOM      9  N   UNL     1      -0.313   3.835  -5.260  0.00  0.00    +0.000 NA
ATOM     10  C   UNL     1      -1.407   3.181  -5.048  0.00  0.00    +0.000 A 
ATOM     11  N   UNL     1      -1.511   2.067  -4.257  0.00  0.00    +0.000 N 
ATOM     12  C   UNL     1      -0.429   1.484  -3.640  0.00  0.00    +0.000 A 
ATOM     13  O   UNL     1      -0.544   0.428  -3.034  0.00  0.00    +0.000 OA
ATOM     14  C   UNL     1       0.823   2.195  -3.832  0.00  0.00    +0.000 A 
ATOM     15  H   UNL     1      -2.393   1.591  -4.148  0.00  0.00    +0.000 HD
ENDBRANCH   2   5
BRANCH   3  16
ATOM     16  C   UNL     1       2.233  -1.567  -1.906  0.00  0.00    +0.000 C 
BRANCH  16  17
ATOM     17  C   UNL     1       3.256  -2.454  -2.637  0.00  0.00    +0.000 C 
ATOM     18  C   UNL     1       2.763  -2.874  -4.036  0.00  0.00    +0.000 C 
ATOM     19  C   UNL     1       1.684  -3.958  -3.990  0.00  0.00    +0.000 C 
ATOM     20  N   UNL     1       2.177  -5.149  -3.286  0.00  0.00    +0.000 NA
ATOM     21  C   UNL     1       2.547  -4.804  -1.898  0.00  0.00    +0.000 C 
ATOM     22  C   UNL     1       3.646  -3.726  -1.841  0.00  0.00    +0.000 C 
BRANCH  20  23
ATOM     23  C   UNL     1       1.176  -6.245  -3.272  0.00  0.00    +0.000 C 
BRANCH  23  24
ATOM     24  C   UNL     1       0.824  -6.795  -4.665  0.00  0.00    +0.000 C 
BRANCH  24  25
ATOM     25  O   UNL     1       1.999  -7.199  -5.360  0.00  0.00    +0.000 OA
ATOM     26  H   UNL     1       2.658  -6.499  -5.183  0.00  0.00    +0.000 HD
ENDBRANCH  24  25
ENDBRANCH  23  24
ENDBRANCH  20  23
BRANCH  22  27
ATOM     27  C   UNL     1       4.029  -3.457  -0.379  0.00  0.00    +0.000 C 
BRANCH  27  28
ATOM     28  O   UNL     1       5.022  -2.451  -0.279  0.00  0.00    +0.000 OA
ATOM     29  H   UNL     1       5.798  -2.736  -0.790  0.00  0.00    +0.000 HD
ENDBRANCH  27  28
ENDBRANCH  22  27
ENDBRANCH  16  17
ENDBRANCH   3  16
TORSDOF 8
