REMARK  Name = 
REMARK  6 active torsions:
REMARK  status: ('A' for Active; 'I' for Inactive)
REMARK    1  A    between atoms: C_2  and  C_4
REMARK    2  A    between atoms: C_7  and  N_8
REMARK    3  A    between atoms: N_8  and  C_9
REMARK    4  A    between atoms: C_9  and  C_10
REMARK    5  A    between atoms: C_10  and  C_13
REMARK    6  A    between atoms: C_17  and  C_18
REMARK                            x       y       z     vdW  Elec       q    Type
REMARK                         _______ _______ _______ _____ _____    ______ ____
ROOT
ATOM      1  C   UNL     1       5.941   0.304   7.130  0.00  0.00    +0.000 C 
ATOM      2  F   UNL     1       7.222  -0.024   6.790  0.00  0.00    +0.000 F 
ATOM      3  F   UNL     1       5.942   1.665   7.276  0.00  0.00    +0.000 F 
ENDROOT
BRANCH   1   4
ATOM      4  C   UNL     1       5.486  -0.413   8.386  0.00  0.00    +0.000 A 
ATOM      5  C   UNL     1       4.617   0.209   9.289  0.00  0.00    +0.000 A 
ATOM      6  C   UNL     1       4.151  -0.488  10.399  0.00  0.00    +0.000 A 
ATOM      7  C   UNL     1       4.534  -1.816  10.606  0.00  0.00    +0.000 A 
ATOM      8  C   UNL     1       5.387  -2.485   9.710  0.00  0.00    +0.000 A 
ATOM      9  C   UNL     1       5.870  -1.748   8.613  0.00  0.00    +0.000 A 
BRANCH   8  10
ATOM     10  C   UNL     1       5.721  -3.915   9.880  0.00  0.00    +0.000 A 
ATOM     11  C   UNL     1       6.963  -4.452   9.516  0.00  0.00    +0.000 A 
ATOM     12  C   UNL     1       7.218  -5.818   9.655  0.00  0.00    +0.000 A 
ATOM     13  C   UNL     1       6.218  -6.625  10.173  0.00  0.00    +0.000 A 
ATOM     14  N   UNL     1       5.011  -6.164  10.540  0.00  0.00    +0.000 NA
ATOM     15  C   UNL     1       4.793  -4.835  10.382  0.00  0.00    +0.000 A 
ENDBRANCH   8  10
ENDBRANCH   1   4
BRANCH   1  16
ATOM     16  C   UNL     1       4.992  -0.058   5.959  0.00  0.00    +0.000 C 
BRANCH  16  17
ATOM     17  N   UNL     1       5.334   0.614   4.696  0.00  0.00    +0.000 N 
ATOM     18  H   UNL     1       5.692   1.562   4.803  0.00  0.00    +0.000 HD
BRANCH  17  22
ATOM     19  C   UNL     1       3.242  -0.090   1.105  0.00  0.00    +0.000 A 
ATOM     20  C   UNL     1       2.823  -0.720   2.278  0.00  0.00    +0.000 A 
ATOM     21  C   UNL     1       3.494  -0.477   3.481  0.00  0.00    +0.000 A 
ATOM     22  C   UNL     1       4.572   0.415   3.550  0.00  0.00    +0.000 A 
ATOM     23  C   UNL     1       4.988   1.027   2.359  0.00  0.00    +0.000 A 
ATOM     24  C   UNL     1       4.336   0.776   1.145  0.00  0.00    +0.000 A 
BRANCH  19  26
ATOM     25  N   UNL     1       1.263  -0.717  -0.167  0.00  0.00    +0.000 N 
ATOM     26  C   UNL     1       2.582  -0.357  -0.197  0.00  0.00    +0.000 C 
ATOM     27  O   UNL     1       3.178  -0.230  -1.260  0.00  0.00    +0.000 OA
ATOM     28  H   UNL     1       0.802  -0.798  -1.064  0.00  0.00    +0.000 HD
ATOM     29  H   UNL     1       0.685  -0.585   0.650  0.00  0.00    +0.000 HD
ENDBRANCH  19  26
ENDBRANCH  17  22
ENDBRANCH  16  17
ENDBRANCH   1  16
TORSDOF 6
