REMARK  Name = 
REMARK  4 active torsions:
REMARK  status: ('A' for Active; 'I' for Inactive)
REMARK    1  A    between atoms: C_2  and  C_4
REMARK    2  A    between atoms: C_7  and  C_8
REMARK    3  A    between atoms: C_8  and  N_9
REMARK    4  A    between atoms: N_9  and  C_10
REMARK                            x       y       z     vdW  Elec       q    Type
REMARK                         _______ _______ _______ _____ _____    ______ ____
ROOT
ATOM      1  C   UNL     1       3.170  -0.930   0.936  0.00  0.00    +0.000 A 
ATOM      2  C   UNL     1       4.516  -1.069   0.592  0.00  0.00    +0.000 A 
ATOM      3  C   UNL     1       5.376  -1.749   1.458  0.00  0.00    +0.000 A 
ATOM      4  C   UNL     1       4.870  -2.269   2.650  0.00  0.00    +0.000 A 
ATOM      5  N   UNL     1       3.563  -2.133   2.995  0.00  0.00    +0.000 NA
ATOM      6  C   UNL     1       2.747  -1.470   2.140  0.00  0.00    +0.000 A 
ENDROOT
BRANCH   1   8
ATOM      7  N   UNL     1       2.424  -0.175  -1.248  0.00  0.00    +0.000 N 
ATOM      8  C   UNL     1       2.193  -0.205   0.099  0.00  0.00    +0.000 C 
ATOM      9  O   UNL     1       1.203   0.324   0.584  0.00  0.00    +0.000 OA
ATOM     10  H   UNL     1       1.690   0.231  -1.816  0.00  0.00    +0.000 HD
ATOM     11  H   UNL     1       3.071  -0.802  -1.702  0.00  0.00    +0.000 HD
ENDBRANCH   1   8
BRANCH   4  12
ATOM     12  C   UNL     1       5.791  -2.957   3.647  0.00  0.00    +0.000 C 
BRANCH  12  13
ATOM     13  N   UNL     1       5.388  -4.338   3.919  0.00  0.00    +0.000 NA
ATOM     14  H   UNL     1       5.342  -4.853   3.043  0.00  0.00    +0.000 HD
BRANCH  13  15
ATOM     15  C   UNL     1       6.233  -5.046   4.886  0.00  0.00    +0.000 C 
ATOM     16  C   UNL     1       5.666  -6.470   5.038  0.00  0.00    +0.000 C 
ATOM     17  C   UNL     1       6.434  -7.289   6.074  0.00  0.00    +0.000 C 
ATOM     18  C   UNL     1       6.484  -6.581   7.422  0.00  0.00    +0.000 C 
ATOM     19  C   UNL     1       7.062  -5.179   7.287  0.00  0.00    +0.000 C 
ATOM     20  C   UNL     1       6.295  -4.350   6.258  0.00  0.00    +0.000 C 
ENDBRANCH  13  15
ENDBRANCH  12  13
ENDBRANCH   4  12
TORSDOF 4
