REMARK  Name = 
REMARK  8 active torsions:
REMARK  status: ('A' for Active; 'I' for Inactive)
REMARK    1  A    between atoms: C_1  and  C_2
REMARK    2  A    between atoms: C_2  and  C_3
REMARK    3  A    between atoms: C_2  and  N_4
REMARK    4  A    between atoms: C_2  and  C_5
REMARK    5  A    between atoms: C_5  and  C_6
REMARK    6  A    between atoms: C_9  and  C_10
REMARK    7  A    between atoms: C_10  and  N_11
REMARK    8  A    between atoms: C_15  and  C_16
REMARK                            x       y       z     vdW  Elec       q    Type
REMARK                         _______ _______ _______ _____ _____    ______ ____
ROOT
ATOM      1  C   UNL     1       8.800  -0.118   1.707  0.00  0.00    +0.000 C 
ENDROOT
BRANCH   1   2
ATOM      2  N   UNL     1       9.385  -0.590   2.953  0.00  0.00    +0.000 N 
ATOM      3  C   UNL     1      10.249   0.170   3.690  0.00  0.00    +0.000 A 
ATOM      4  N   UNL     1      11.175  -0.572   4.244  0.00  0.00    +0.000 NA
ATOM      5  C   UNL     1      10.834  -1.879   3.957  0.00  0.00    +0.000 A 
ATOM      6  C   UNL     1      11.493  -3.098   4.184  0.00  0.00    +0.000 A 
ATOM      7  N   UNL     1      10.868  -4.291   3.898  0.00  0.00    +0.000 NA
ATOM      8  C   UNL     1       9.629  -4.258   3.360  0.00  0.00    +0.000 A 
ATOM      9  C   UNL     1       8.952  -3.104   2.986  0.00  0.00    +0.000 A 
ATOM     10  C   UNL     1       9.613  -1.910   3.281  0.00  0.00    +0.000 A 
BRANCH   6  11
ATOM     11  C   UNL     1      12.927  -3.158   4.593  0.00  0.00    +0.000 C 
ATOM     12  N   UNL     1      13.447  -4.423   4.700  0.00  0.00    +0.000 N 
ATOM     13  O   UNL     1      13.644  -2.182   4.767  0.00  0.00    +0.000 OA
ATOM     14  H   UNL     1      12.884  -5.219   4.425  0.00  0.00    +0.000 HD
ATOM     15  H   UNL     1      14.444  -4.517   4.833  0.00  0.00    +0.000 HD
ENDBRANCH   6  11
ENDBRANCH   1   2
BRANCH   1  19
ATOM     16  C   UNL     1       4.563   0.127   1.474  0.00  0.00    +0.000 A 
ATOM     17  C   UNL     1       5.289   1.268   1.823  0.00  0.00    +0.000 A 
ATOM     18  C   UNL     1       6.670   1.193   1.954  0.00  0.00    +0.000 A 
ATOM     19  C   UNL     1       7.308  -0.023   1.718  0.00  0.00    +0.000 A 
ATOM     20  N   UNL     1       6.619  -1.143   1.387  0.00  0.00    +0.000 NA
ATOM     21  C   UNL     1       5.281  -1.046   1.279  0.00  0.00    +0.000 A 
BRANCH  16  22
ATOM     22  C   UNL     1       3.065   0.161   1.314  0.00  0.00    +0.000 C 
BRANCH  22  24
ATOM     23  C   UNL     1       0.981   0.443  -0.052  0.00  0.00    +0.000 C 
ATOM     24  C   UNL     1       2.518   0.489  -0.107  0.00  0.00    +0.000 C 
ATOM     25  C   UNL     1       3.003  -0.513  -1.165  0.00  0.00    +0.000 C 
BRANCH  24  26
ATOM     26  N   UNL     1       2.907   1.847  -0.521  0.00  0.00    +0.000 NA
ATOM     27  H   UNL     1       2.548   2.036  -1.459  0.00  0.00    +0.000 HD
ATOM     28  H   UNL     1       3.922   1.900  -0.601  0.00  0.00    +0.000 HD
ENDBRANCH  24  26
ENDBRANCH  22  24
ENDBRANCH  16  22
ENDBRANCH   1  19
TORSDOF 6
