REMARK  Name = 
REMARK  6 active torsions:
REMARK  status: ('A' for Active; 'I' for Inactive)
REMARK    1  A    between atoms: C_1  and  C_2
REMARK    2  A    between atoms: C_4  and  C_5
REMARK    3  A    between atoms: C_10  and  N_11
REMARK    4  A    between atoms: N_11  and  C_12
REMARK    5  A    between atoms: C_12  and  C_13
REMARK    6  A    between atoms: C_17  and  C_18
REMARK                            x       y       z     vdW  Elec       q    Type
REMARK                         _______ _______ _______ _____ _____    ______ ____
ROOT
ATOM      1  C   UNL     1       2.565  -2.644  -0.506  0.00  0.00    +0.000 C 
ATOM      2  C   UNL     1       3.718  -1.782  -1.004  0.00  0.00    +0.000 C 
ATOM      3  C   UNL     1       2.665  -2.201  -1.967  0.00  0.00    +0.000 C 
ENDROOT
BRANCH   1   4
ATOM      4  C   UNL     1       2.959  -4.079  -0.146  0.00  0.00    +0.000 A 
ATOM      5  C   UNL     1       2.454  -5.204  -0.811  0.00  0.00    +0.000 A 
ATOM      6  C   UNL     1       2.970  -6.479  -0.559  0.00  0.00    +0.000 A 
ATOM      7  C   UNL     1       4.008  -6.656   0.363  0.00  0.00    +0.000 A 
ATOM      8  C   UNL     1       4.541  -5.567   1.064  0.00  0.00    +0.000 A 
ATOM      9  C   UNL     1       3.972  -4.306   0.806  0.00  0.00    +0.000 A 
BRANCH   8  10
ATOM     10  C   UNL     1       5.725  -5.675   1.951  0.00  0.00    +0.000 A 
ATOM     11  C   UNL     1       6.790  -6.543   1.642  0.00  0.00    +0.000 A 
ATOM     12  C   UNL     1       7.965  -6.551   2.401  0.00  0.00    +0.000 A 
ATOM     13  C   UNL     1       8.092  -5.687   3.479  0.00  0.00    +0.000 A 
ATOM     14  F   UNL     1       9.231  -5.667   4.183  0.00  0.00    +0.000 F 
ATOM     15  C   UNL     1       7.056  -4.836   3.830  0.00  0.00    +0.000 A 
ATOM     16  C   UNL     1       5.876  -4.841   3.079  0.00  0.00    +0.000 A 
ENDBRANCH   8  10
ENDBRANCH   1   4
BRANCH   1  17
ATOM     17  N   UNL     1       1.373  -2.115   0.188  0.00  0.00    +0.000 N 
ATOM     18  H   UNL     1       0.615  -1.850  -0.432  0.00  0.00    +0.000 HD
BRANCH  17  25
ATOM     19  C   UNL     1      -1.228  -1.220   1.229  0.00  0.00    +0.000 C 
ATOM     20  C   UNL     1       0.087  -0.956   1.918  0.00  0.00    +0.000 A 
ATOM     21  C   UNL     1       0.034  -0.301   3.167  0.00  0.00    +0.000 A 
ATOM     22  C   UNL     1       1.188  -0.060   3.919  0.00  0.00    +0.000 A 
ATOM     23  C   UNL     1       2.410  -0.511   3.420  0.00  0.00    +0.000 A 
ATOM     24  C   UNL     1       2.472  -1.175   2.184  0.00  0.00    +0.000 A 
ATOM     25  C   UNL     1       1.332  -1.392   1.400  0.00  0.00    +0.000 A 
BRANCH  22  26
ATOM     26  C   UNL     1       1.031   0.658   5.212  0.00  0.00    +0.000 C 
ATOM     27  N   UNL     1       2.151   0.975   5.933  0.00  0.00    +0.000 N 
ATOM     28  O   UNL     1      -0.075   0.992   5.641  0.00  0.00    +0.000 OA
ATOM     29  H   UNL     1       3.096   0.810   5.636  0.00  0.00    +0.000 HD
ATOM     30  H   UNL     1       2.001   1.499   6.786  0.00  0.00    +0.000 HD
ENDBRANCH  22  26
ENDBRANCH  17  25
ENDBRANCH   1  17
TORSDOF 5
