REMARK  Name = 
REMARK  7 active torsions:
REMARK  status: ('A' for Active; 'I' for Inactive)
REMARK    1  A    between atoms: C_2  and  C_19
REMARK    2  A    between atoms: N_3  and  C_4
REMARK    3  A    between atoms: C_4  and  C_5
REMARK    4  A    between atoms: C_8  and  C_9
REMARK    5  A    between atoms: C_9  and  C_10
REMARK    6  A    between atoms: C_10  and  C_11
REMARK    7  A    between atoms: C_11  and  N_12
REMARK                            x       y       z     vdW  Elec       q    Type
REMARK                         _______ _______ _______ _____ _____    ______ ____
ROOT
ATOM      1  C   UNL     1       2.265   1.274   2.048  0.00  0.00    +0.000 C 
ENDROOT
BRANCH   1   2
ATOM      2  C   UNL     1       3.175   1.925   3.055  0.00  0.00    +0.000 A 
ATOM      3  C   UNL     1       3.223   3.319   3.169  0.00  0.00    +0.000 A 
ATOM      4  C   UNL     1       4.052   3.927   4.113  0.00  0.00    +0.000 A 
ATOM      5  C   UNL     1       4.848   3.150   4.966  0.00  0.00    +0.000 A 
ATOM      6  C   UNL     1       4.828   1.758   4.825  0.00  0.00    +0.000 A 
ATOM      7  C   UNL     1       4.005   1.151   3.876  0.00  0.00    +0.000 A 
BRANCH   5   8
ATOM      8  C   UNL     1       5.732   3.791   6.007  0.00  0.00    +0.000 C 
BRANCH   8   9
ATOM      9  C   UNL     1       4.990   4.689   6.999  0.00  0.00    +0.000 C 
BRANCH   9  10
ATOM     10  C   UNL     1       3.935   3.959   7.845  0.00  0.00    +0.000 C 
BRANCH  10  11
ATOM     11  N   UNL     1       3.311   4.894   8.785  0.00  0.00    +0.000 NA
ATOM     12  C   UNL     1       2.551   5.955   8.126  0.00  0.00    +0.000 C 
ATOM     13  C   UNL     1       1.571   6.358   9.204  0.00  0.00    +0.000 C 
ATOM     14  N   UNL     1       1.183   5.068   9.784  0.00  0.00    +0.000 NA
ATOM     15  C   UNL     1       2.406   4.263   9.737  0.00  0.00    +0.000 C 
ATOM     16  H   UNL     1       0.519   4.630   9.148  0.00  0.00    +0.000 HD
ENDBRANCH  10  11
ENDBRANCH   9  10
ENDBRANCH   8   9
ENDBRANCH   5   8
ENDBRANCH   1   2
BRANCH   1  19
ATOM     17  O   UNL     1       1.942   3.053  -0.094  0.00  0.00    +0.000 OA
ATOM     18  C   UNL     1       2.705   2.100  -0.228  0.00  0.00    +0.000 C 
ATOM     19  N   UNL     1       2.894   1.167   0.757  0.00  0.00    +0.000 N 
ATOM     20  H   UNL     1       3.656   0.502   0.678  0.00  0.00    +0.000 HD
BRANCH  18  21
ATOM     21  C   UNL     1       3.422   1.873  -1.489  0.00  0.00    +0.000 A 
ATOM     22  C   UNL     1       2.938   2.437  -2.661  0.00  0.00    +0.000 A 
ATOM     23  S   UNL     1       3.889   2.090  -4.032  0.00  0.00    +0.000 S 
ATOM     24  C   UNL     1       5.004   1.204  -3.100  0.00  0.00    +0.000 A 
ATOM     25  N   UNL     1       6.111   0.660  -3.670  0.00  0.00    +0.000 NA
ATOM     26  C   UNL     1       6.896   0.054  -2.841  0.00  0.00    +0.000 A 
ATOM     27  N   UNL     1       6.661  -0.072  -1.496  0.00  0.00    +0.000 N 
ATOM     28  C   UNL     1       5.513   0.384  -0.892  0.00  0.00    +0.000 A 
ATOM     29  O   UNL     1       5.265   0.125   0.278  0.00  0.00    +0.000 OA
ATOM     30  C   UNL     1       4.633   1.138  -1.769  0.00  0.00    +0.000 A 
ATOM     31  H   UNL     1       7.294  -0.595  -0.911  0.00  0.00    +0.000 HD
ENDBRANCH  18  21
ENDBRANCH   1  19
TORSDOF 7
