REMARK  Name = 
REMARK  4 active torsions:
REMARK  status: ('A' for Active; 'I' for Inactive)
REMARK    1  A    between atoms: C_2  and  C_4
REMARK    2  A    between atoms: N_8  and  C_9
REMARK    3  A    between atoms: C_9  and  C_10
REMARK    4  A    between atoms: C_12  and  C_13
REMARK                            x       y       z     vdW  Elec       q    Type
REMARK                         _______ _______ _______ _____ _____    ______ ____
ROOT
ATOM      1  C   UNL     1       5.105  -4.351  -4.164  0.00  0.00    +0.000 C 
ENDROOT
BRANCH   1   6
ATOM      2  C   UNL     1       5.470  -4.013   0.976  0.00  0.00    +0.000 A 
ATOM      3  C   UNL     1       4.823  -4.949   0.178  0.00  0.00    +0.000 A 
ATOM      4  C   UNL     1       4.895  -4.822  -1.210  0.00  0.00    +0.000 A 
ATOM      5  C   UNL     1       5.608  -3.772  -1.776  0.00  0.00    +0.000 A 
ATOM      6  N   UNL     1       5.733  -3.577  -3.122  0.00  0.00    +0.000 N 
ATOM      7  N   UNL     1       6.229  -2.854  -1.009  0.00  0.00    +0.000 NA
ATOM      8  C   UNL     1       6.140  -2.980   0.343  0.00  0.00    +0.000 A 
ATOM      9  H   UNL     1       6.302  -2.777  -3.364  0.00  0.00    +0.000 HD
BRANCH   2  11
ATOM     10  N   UNL     1       5.309  -5.312   3.017  0.00  0.00    +0.000 N 
ATOM     11  C   UNL     1       5.450  -4.075   2.450  0.00  0.00    +0.000 C 
ATOM     12  O   UNL     1       5.587  -3.071   3.136  0.00  0.00    +0.000 OA
ATOM     13  H   UNL     1       5.400  -5.358   4.025  0.00  0.00    +0.000 HD
ATOM     14  H   UNL     1       5.434  -6.169   2.499  0.00  0.00    +0.000 HD
ENDBRANCH   2  11
ENDBRANCH   1   6
BRANCH   1  15
ATOM     15  C   UNL     1       5.979  -5.501  -4.586  0.00  0.00    +0.000 A 
ATOM     16  C   UNL     1       7.229  -5.267  -5.190  0.00  0.00    +0.000 A 
ATOM     17  C   UNL     1       8.064  -6.320  -5.618  0.00  0.00    +0.000 A 
ATOM     18  C   UNL     1       7.599  -7.633  -5.414  0.00  0.00    +0.000 A 
ATOM     19  C   UNL     1       6.358  -7.881  -4.820  0.00  0.00    +0.000 A 
ATOM     20  C   UNL     1       5.563  -6.818  -4.413  0.00  0.00    +0.000 A 
ATOM     21  F   UNL     1       4.375  -7.082  -3.849  0.00  0.00    +0.000 F 
BRANCH  17  22
ATOM     22  C   UNL     1       9.366  -6.051  -6.267  0.00  0.00    +0.000 A 
ATOM     23  C   UNL     1      10.163  -4.946  -5.927  0.00  0.00    +0.000 A 
ATOM     24  C   UNL     1      11.378  -4.715  -6.572  0.00  0.00    +0.000 A 
ATOM     25  C   UNL     1      11.784  -5.606  -7.547  0.00  0.00    +0.000 A 
ATOM     26  N   UNL     1      11.065  -6.685  -7.913  0.00  0.00    +0.000 NA
ATOM     27  C   UNL     1       9.884  -6.873  -7.273  0.00  0.00    +0.000 A 
ENDBRANCH  17  22
ENDBRANCH   1  15
TORSDOF 4
