REMARK  Name = 
REMARK  6 active torsions:
REMARK  status: ('A' for Active; 'I' for Inactive)
REMARK    1  A    between atoms: C_2  and  C_20
REMARK    2  A    between atoms: N_3  and  C_4
REMARK    3  A    between atoms: C_4  and  C_5
REMARK    4  A    between atoms: C_8  and  C_9
REMARK    5  A    between atoms: C_9  and  N_10
REMARK    6  A    between atoms: C_11  and  C_13
REMARK                            x       y       z     vdW  Elec       q    Type
REMARK                         _______ _______ _______ _____ _____    ______ ____
ROOT
ATOM      1  C   UNL     1       3.273  -0.536  -3.450  0.00  0.00    +0.000 A 
ATOM      2  C   UNL     1       3.832   0.624  -4.006  0.00  0.00    +0.000 A 
ATOM      3  C   UNL     1       4.749   0.543  -5.061  0.00  0.00    +0.000 A 
ATOM      4  C   UNL     1       5.109  -0.700  -5.599  0.00  0.00    +0.000 A 
ATOM      5  C   UNL     1       4.547  -1.859  -5.046  0.00  0.00    +0.000 A 
ATOM      6  C   UNL     1       3.631  -1.777  -3.991  0.00  0.00    +0.000 A 
ENDROOT
BRANCH   1   7
ATOM      7  C   UNL     1       2.262  -0.443  -2.335  0.00  0.00    +0.000 C 
BRANCH   7  10
ATOM      8  O   UNL     1      -0.086  -0.411  -0.822  0.00  0.00    +0.000 OA
ATOM      9  C   UNL     1      -0.169  -0.257  -2.038  0.00  0.00    +0.000 C 
ATOM     10  N   UNL     1       0.924  -0.337  -2.861  0.00  0.00    +0.000 N 
ATOM     11  H   UNL     1       0.844  -0.008  -3.818  0.00  0.00    +0.000 HD
BRANCH   9  12
ATOM     12  C   UNL     1      -1.462  -0.018  -2.696  0.00  0.00    +0.000 A 
ATOM     13  C   UNL     1      -2.640  -0.425  -2.084  0.00  0.00    +0.000 A 
ATOM     14  S   UNL     1      -4.039  -0.083  -3.001  0.00  0.00    +0.000 S 
ATOM     15  C   UNL     1      -3.123   0.664  -4.225  0.00  0.00    +0.000 A 
ATOM     16  N   UNL     1      -3.724   1.217  -5.314  0.00  0.00    +0.000 NA
ATOM     17  C   UNL     1      -2.911   1.780  -6.144  0.00  0.00    +0.000 A 
ATOM     18  N   UNL     1      -1.551   1.836  -5.989  0.00  0.00    +0.000 N 
ATOM     19  C   UNL     1      -0.898   1.261  -4.925  0.00  0.00    +0.000 A 
ATOM     20  O   UNL     1       0.326   1.281  -4.847  0.00  0.00    +0.000 OA
ATOM     21  C   UNL     1      -1.767   0.631  -3.950  0.00  0.00    +0.000 A 
ATOM     22  H   UNL     1      -0.967   2.279  -6.682  0.00  0.00    +0.000 HD
ENDBRANCH   9  12
ENDBRANCH   7  10
ENDBRANCH   1   7
BRANCH   4  23
ATOM     23  C   UNL     1       6.065  -0.792  -6.761  0.00  0.00    +0.000 C 
BRANCH  23  24
ATOM     24  N   UNL     1       7.436  -0.970  -6.337  0.00  0.00    +0.000 N 
ATOM     25  C   UNL     1       8.444  -1.103  -7.273  0.00  0.00    +0.000 C 
ATOM     26  O   UNL     1       8.215  -1.075  -8.478  0.00  0.00    +0.000 OA
ATOM     27  H   UNL     1       7.633  -1.061  -5.349  0.00  0.00    +0.000 HD
BRANCH  25  28
ATOM     28  C   UNL     1       9.830  -1.355  -6.679  0.00  0.00    +0.000 C 
ATOM     29  C   UNL     1      10.299  -0.229  -5.764  0.00  0.00    +0.000 C 
ATOM     30  C   UNL     1      11.210   0.596  -6.649  0.00  0.00    +0.000 C 
ATOM     31  N   UNL     1      11.922  -0.400  -7.449  0.00  0.00    +0.000 NA
ATOM     32  C   UNL     1      10.933  -1.456  -7.740  0.00  0.00    +0.000 C 
ATOM     33  H   UNL     1      12.680  -0.798  -6.894  0.00  0.00    +0.000 HD
ENDBRANCH  25  28
ENDBRANCH  23  24
ENDBRANCH   4  23
TORSDOF 6
