REMARK  Name = 
REMARK  11 active torsions:
REMARK  status: ('A' for Active; 'I' for Inactive)
REMARK    1  A    between atoms: N_1  and  C_2
REMARK    2  A    between atoms: C_2  and  C_3
REMARK    3  A    between atoms: C_3  and  N_4
REMARK    4  A    between atoms: C_3  and  C_21
REMARK    5  A    between atoms: N_4  and  C_5
REMARK    6  A    between atoms: C_5  and  C_6
REMARK    7  A    between atoms: C_9  and  C_10
REMARK    8  A    between atoms: C_10  and  C_11
REMARK    9  A    between atoms: C_10  and  C_13
REMARK   10  A    between atoms: C_11  and  O_12
REMARK   11  A    between atoms: C_13  and  C_14
REMARK                            x       y       z     vdW  Elec       q    Type
REMARK                         _______ _______ _______ _____ _____    ______ ____
ROOT
ATOM      1  N   UNL     1      -5.890   1.882   3.998  0.00  0.00    +0.000 NA
ATOM      2  H   UNL     1      -5.773   2.861   4.264  0.00  0.00    +0.000 HD
ENDROOT
BRANCH   1   3
ATOM      3  C   UNL     1      -7.034   1.345   4.757  0.00  0.00    +0.000 C 
BRANCH   3   4
ATOM      4  C   UNL     1      -6.711   1.560   6.230  0.00  0.00    +0.000 A 
ATOM      5  C   UNL     1      -5.556   1.109   6.855  0.00  0.00    +0.000 A 
ATOM      6  S   UNL     1      -5.498   1.484   8.520  0.00  0.00    +0.000 S 
ATOM      7  C   UNL     1      -7.013   2.258   8.459  0.00  0.00    +0.000 A 
ATOM      8  N   UNL     1      -7.565   2.814   9.572  0.00  0.00    +0.000 NA
ATOM      9  C   UNL     1      -8.714   3.368   9.372  0.00  0.00    +0.000 A 
ATOM     10  N   UNL     1      -9.363   3.418   8.164  0.00  0.00    +0.000 N 
ATOM     11  C   UNL     1      -8.854   2.856   7.015  0.00  0.00    +0.000 A 
ATOM     12  O   UNL     1      -9.472   2.906   5.955  0.00  0.00    +0.000 OA
ATOM     13  C   UNL     1      -7.556   2.231   7.188  0.00  0.00    +0.000 A 
ATOM     14  H   UNL     1     -10.262   3.867   8.078  0.00  0.00    +0.000 HD
ENDBRANCH   3   4
BRANCH   3  15
ATOM     15  C   UNL     1      -7.358  -0.152   4.457  0.00  0.00    +0.000 C 
BRANCH  15  16
ATOM     16  N   UNL     1      -8.521  -0.672   5.192  0.00  0.00    +0.000 NA
ATOM     17  H   UNL     1      -8.786  -1.576   4.804  0.00  0.00    +0.000 HD
ATOM     18  H   UNL     1      -9.317  -0.049   5.057  0.00  0.00    +0.000 HD
ENDBRANCH  15  16
ENDBRANCH   3  15
ENDBRANCH   1   3
BRANCH   1  19
ATOM     19  C   UNL     1      -6.080   1.832   2.547  0.00  0.00    +0.000 C 
BRANCH  19  20
ATOM     20  C   UNL     1      -4.957   2.549   1.832  0.00  0.00    +0.000 A 
ATOM     21  C   UNL     1      -3.622   2.185   2.056  0.00  0.00    +0.000 A 
ATOM     22  C   UNL     1      -2.578   2.878   1.438  0.00  0.00    +0.000 A 
ATOM     23  C   UNL     1      -2.843   3.941   0.562  0.00  0.00    +0.000 A 
ATOM     24  C   UNL     1      -4.181   4.253   0.283  0.00  0.00    +0.000 A 
ATOM     25  C   UNL     1      -5.226   3.577   0.921  0.00  0.00    +0.000 A 
BRANCH  23  26
ATOM     26  C   UNL     1      -1.684   4.749  -0.020  0.00  0.00    +0.000 C 
BRANCH  26  27
ATOM     27  C   UNL     1      -1.695   6.192   0.534  0.00  0.00    +0.000 C 
BRANCH  27  28
ATOM     28  O   UNL     1      -2.735   6.995  -0.024  0.00  0.00    +0.000 OA
ATOM     29  H   UNL     1      -3.497   6.905   0.574  0.00  0.00    +0.000 HD
ENDBRANCH  27  28
ENDBRANCH  26  27
BRANCH  26  30
ATOM     30  C   UNL     1      -1.652   4.683  -1.562  0.00  0.00    +0.000 C 
BRANCH  30  31
ATOM     31  C   UNL     1      -0.407   5.273  -2.138  0.00  0.00    +0.000 A 
ATOM     32  C   UNL     1       0.836   4.742  -2.407  0.00  0.00    +0.000 A 
ATOM     33  N   UNL     1       1.677   5.698  -2.914  0.00  0.00    +0.000 NA
ATOM     34  C   UNL     1       0.962   6.798  -2.969  0.00  0.00    +0.000 A 
ATOM     35  N   UNL     1      -0.313   6.588  -2.527  0.00  0.00    +0.000 N 
ATOM     36  H   UNL     1      -1.045   7.284  -2.466  0.00  0.00    +0.000 HD
ENDBRANCH  30  31
ENDBRANCH  26  30
ENDBRANCH  23  26
ENDBRANCH  19  20
ENDBRANCH   1  19
TORSDOF 11
