REMARK  Name = 
REMARK  7 active torsions:
REMARK  status: ('A' for Active; 'I' for Inactive)
REMARK    1  A    between atoms: C_1  and  C_2
REMARK    2  A    between atoms: C_2  and  C_3
REMARK    3  A    between atoms: N_6  and  C_7
REMARK    4  A    between atoms: C_7  and  C_8
REMARK    5  A    between atoms: C_11  and  O_12
REMARK    6  A    between atoms: O_12  and  C_13
REMARK    7  A    between atoms: C_22  and  N_23
REMARK                            x       y       z     vdW  Elec       q    Type
REMARK                         _______ _______ _______ _____ _____    ______ ____
ROOT
ATOM      1  C   UNL     1       3.433   2.908  -3.190  0.00  0.00    +0.000 C 
ATOM      2  C   UNL     1       4.514   3.738  -2.501  0.00  0.00    +0.000 C 
ATOM      3  C   UNL     1       3.091   3.905  -2.098  0.00  0.00    +0.000 C 
ENDROOT
BRANCH   1   9
ATOM      4  C   UNL     1      -0.159  -0.401  -1.816  0.00  0.00    +0.000 C 
ATOM      5  C   UNL     1       1.048  -0.181  -0.886  0.00  0.00    +0.000 C 
ATOM      6  C   UNL     1       0.572  -0.199   0.571  0.00  0.00    +0.000 C 
ATOM      7  C   UNL     1       1.747   1.138  -1.229  0.00  0.00    +0.000 C 
ATOM      8  C   UNL     1       2.799   0.657  -2.191  0.00  0.00    +0.000 C 
ATOM      9  N   UNL     1       3.535   1.462  -3.008  0.00  0.00    +0.000 N 
ATOM     10  N   UNL     1       3.008  -0.628  -2.200  0.00  0.00    +0.000 NA
ATOM     11  C   UNL     1       2.201  -1.181  -1.113  0.00  0.00    +0.000 C 
ATOM     12  H   UNL     1       4.160   0.942  -3.620  0.00  0.00    +0.000 HD
BRANCH  11  13
ATOM     13  N   UNL     1       1.815  -2.537  -1.421  0.00  0.00    +0.000 NA
ATOM     14  H   UNL     1       1.539  -2.558  -2.400  0.00  0.00    +0.000 HD
ATOM     15  H   UNL     1       1.010  -2.812  -0.869  0.00  0.00    +0.000 HD
ENDBRANCH  11  13
ENDBRANCH   1   9
BRANCH   1  16
ATOM     16  C   UNL     1       3.047   3.299  -4.614  0.00  0.00    +0.000 A 
ATOM     17  C   UNL     1       1.700   3.373  -5.007  0.00  0.00    +0.000 A 
ATOM     18  C   UNL     1       1.329   3.821  -6.280  0.00  0.00    +0.000 A 
ATOM     19  C   UNL     1       2.305   4.233  -7.185  0.00  0.00    +0.000 A 
ATOM     20  C   UNL     1       3.649   4.081  -6.849  0.00  0.00    +0.000 A 
ATOM     21  C   UNL     1       4.013   3.614  -5.583  0.00  0.00    +0.000 A 
BRANCH  19  22
ATOM     22  O   UNL     1       2.070   4.745  -8.423  0.00  0.00    +0.000 OA
BRANCH  22  23
ATOM     23  C   UNL     1       0.944   5.593  -8.610  0.00  0.00    +0.000 C 
ATOM     24  F   UNL     1       0.285   5.907  -7.475  0.00  0.00    +0.000 F 
ATOM     25  F   UNL     1       1.361   6.749  -9.175  0.00  0.00    +0.000 F 
ATOM     26  F   UNL     1       0.082   4.998  -9.462  0.00  0.00    +0.000 F 
ENDBRANCH  22  23
ENDBRANCH  19  22
ENDBRANCH   1  16
TORSDOF 5
