REMARK  Name = 
REMARK  7 active torsions:
REMARK  status: ('A' for Active; 'I' for Inactive)
REMARK    1  A    between atoms: C_1  and  C_2
REMARK    2  A    between atoms: C_2  and  C_3
REMARK    3  A    between atoms: C_2  and  C_14
REMARK    4  A    between atoms: C_3  and  N_4
REMARK    5  A    between atoms: N_4  and  C_5
REMARK    6  A    between atoms: C_8  and  C_9
REMARK    7  A    between atoms: C_18  and  C_19
REMARK                            x       y       z     vdW  Elec       q    Type
REMARK                         _______ _______ _______ _____ _____    ______ ____
ROOT
ATOM      1  C   UNL     1       3.021  -0.345   1.406  0.00  0.00    +0.000 C 
ENDROOT
BRANCH   1   3
ATOM      2  C   UNL     1       0.899   0.185   0.043  0.00  0.00    +0.000 C 
ATOM      3  C   UNL     1       2.342  -0.212   0.077  0.00  0.00    +0.000 C 
BRANCH   3   4
ATOM      4  C   UNL     1       2.921  -0.905  -1.077  0.00  0.00    +0.000 A 
ATOM      5  C   UNL     1       2.175  -1.875  -1.746  0.00  0.00    +0.000 A 
ATOM      6  C   UNL     1       2.721  -2.578  -2.821  0.00  0.00    +0.000 A 
ATOM      7  C   UNL     1       4.014  -2.295  -3.252  0.00  0.00    +0.000 A 
ATOM      8  C   UNL     1       4.774  -1.304  -2.614  0.00  0.00    +0.000 A 
ATOM      9  C   UNL     1       4.223  -0.624  -1.514  0.00  0.00    +0.000 A 
BRANCH   8  10
ATOM     10  C   UNL     1       6.154  -0.945  -3.103  0.00  0.00    +0.000 C 
ATOM     11  F   UNL     1       6.554  -1.666  -4.187  0.00  0.00    +0.000 F 
ATOM     12  F   UNL     1       6.247   0.364  -3.472  0.00  0.00    +0.000 F 
ATOM     13  F   UNL     1       7.111  -1.134  -2.154  0.00  0.00    +0.000 F 
ENDBRANCH   8  10
ENDBRANCH   3   4
ENDBRANCH   1   3
BRANCH   1  14
ATOM     14  N   UNL     1       2.487  -1.542   2.052  0.00  0.00    +0.000 N 
ATOM     15  H   UNL     1       2.434  -2.321   1.396  0.00  0.00    +0.000 HD
BRANCH  14  16
ATOM     16  C   UNL     1       3.086  -1.932   3.257  0.00  0.00    +0.000 A 
ATOM     17  C   UNL     1       3.101  -3.283   3.618  0.00  0.00    +0.000 A 
ATOM     18  C   UNL     1       3.671  -3.686   4.826  0.00  0.00    +0.000 A 
ATOM     19  C   UNL     1       4.184  -2.709   5.665  0.00  0.00    +0.000 A 
ATOM     20  N   UNL     1       4.140  -1.378   5.394  0.00  0.00    +0.000 NA
ATOM     21  C   UNL     1       3.576  -1.035   4.213  0.00  0.00    +0.000 A 
BRANCH  19  22
ATOM     22  C   UNL     1       4.843  -3.100   6.953  0.00  0.00    +0.000 C 
ATOM     23  N   UNL     1       5.318  -2.058   7.705  0.00  0.00    +0.000 N 
ATOM     24  O   UNL     1       4.959  -4.264   7.313  0.00  0.00    +0.000 OA
ATOM     25  H   UNL     1       5.210  -1.109   7.365  0.00  0.00    +0.000 HD
ATOM     26  H   UNL     1       5.792  -2.246   8.576  0.00  0.00    +0.000 HD
ENDBRANCH  19  22
ENDBRANCH  14  16
ENDBRANCH   1  14
TORSDOF 6
