REMARK  Name = 
REMARK  7 active torsions:
REMARK  status: ('A' for Active; 'I' for Inactive)
REMARK    1  A    between atoms: C_2  and  C_3
REMARK    2  A    between atoms: C_7  and  C_8
REMARK    3  A    between atoms: N_10  and  C_11
REMARK    4  A    between atoms: C_11  and  C_12
REMARK    5  A    between atoms: C_15  and  C_16
REMARK    6  A    between atoms: C_16  and  N_17
REMARK    7  A    between atoms: C_18  and  C_20
REMARK                            x       y       z     vdW  Elec       q    Type
REMARK                         _______ _______ _______ _____ _____    ______ ____
ROOT
ATOM      1  C   UNL     1       3.973   6.024   1.215  0.00  0.00    +0.000 A 
ATOM      2  C   UNL     1       5.118   6.645   1.731  0.00  0.00    +0.000 A 
ATOM      3  C   UNL     1       5.011   7.719   2.625  0.00  0.00    +0.000 A 
ATOM      4  C   UNL     1       3.755   8.184   3.040  0.00  0.00    +0.000 A 
ATOM      5  C   UNL     1       2.610   7.580   2.503  0.00  0.00    +0.000 A 
ATOM      6  C   UNL     1       2.717   6.504   1.615  0.00  0.00    +0.000 A 
ENDROOT
BRANCH   1   7
ATOM      7  C   UNL     1       4.080   4.878   0.241  0.00  0.00    +0.000 C 
BRANCH   7  10
ATOM      8  C   UNL     1       2.979   2.836   1.068  0.00  0.00    +0.000 C 
ATOM      9  O   UNL     1       1.865   3.232   0.734  0.00  0.00    +0.000 OA
ATOM     10  N   UNL     1       4.120   3.581   0.890  0.00  0.00    +0.000 N 
ATOM     11  H   UNL     1       4.995   3.279   1.294  0.00  0.00    +0.000 HD
BRANCH   8  16
ATOM     12  C   UNL     1       1.883   0.672   1.785  0.00  0.00    +0.000 C 
ATOM     13  C   UNL     1       2.323  -0.788   1.881  0.00  0.00    +0.000 C 
ATOM     14  C   UNL     1       3.722  -0.853   1.271  0.00  0.00    +0.000 C 
ATOM     15  C   UNL     1       4.073   0.565   0.837  0.00  0.00    +0.000 C 
ATOM     16  C   UNL     1       3.195   1.468   1.697  0.00  0.00    +0.000 C 
BRANCH  12  18
ATOM     17  N   UNL     1       0.432   1.453   4.026  0.00  0.00    +0.000 NA
ATOM     18  C   UNL     1       1.090   1.099   3.010  0.00  0.00    +0.000 C 
ENDBRANCH  12  18
ENDBRANCH   8  16
ENDBRANCH   7  10
ENDBRANCH   1   7
BRANCH   4  19
ATOM     19  C   UNL     1       3.626   9.310   4.038  0.00  0.00    +0.000 C 
BRANCH  19  20
ATOM     20  N   UNL     1       3.595  10.598   3.394  0.00  0.00    +0.000 N 
ATOM     21  C   UNL     1       3.503  11.763   4.120  0.00  0.00    +0.000 C 
ATOM     22  O   UNL     1       3.502  11.774   5.348  0.00  0.00    +0.000 OA
ATOM     23  H   UNL     1       3.314  10.608   2.420  0.00  0.00    +0.000 HD
BRANCH  21  24
ATOM     24  C   UNL     1       3.470  13.009   3.342  0.00  0.00    +0.000 A 
ATOM     25  C   UNL     1       3.918  14.197   3.902  0.00  0.00    +0.000 A 
ATOM     26  S   UNL     1       3.850  15.526   2.831  0.00  0.00    +0.000 S 
ATOM     27  C   UNL     1       3.167  14.569   1.599  0.00  0.00    +0.000 A 
ATOM     28  N   UNL     1       2.830  15.106   0.395  0.00  0.00    +0.000 NA
ATOM     29  C   UNL     1       2.299  14.270  -0.433  0.00  0.00    +0.000 A 
ATOM     30  N   UNL     1       2.078  12.943  -0.169  0.00  0.00    +0.000 N 
ATOM     31  C   UNL     1       2.428  12.352   1.022  0.00  0.00    +0.000 A 
ATOM     32  O   UNL     1       2.263  11.150   1.204  0.00  0.00    +0.000 OA
ATOM     33  C   UNL     1       3.017  13.251   1.992  0.00  0.00    +0.000 A 
ATOM     34  H   UNL     1       1.668  12.334  -0.864  0.00  0.00    +0.000 HD
ENDBRANCH  21  24
ENDBRANCH  19  20
ENDBRANCH   4  19
TORSDOF 7
