REMARK  Name = 
REMARK  11 active torsions:
REMARK  status: ('A' for Active; 'I' for Inactive)
REMARK    1  A    between atoms: C_1  and  O_2
REMARK    2  A    between atoms: O_2  and  C_3
REMARK    3  A    between atoms: C_3  and  C_4
REMARK    4  A    between atoms: C_4  and  N_5
REMARK    5  A    between atoms: N_5  and  C_6
REMARK    6  A    between atoms: C_6  and  C_7
REMARK    7  A    between atoms: C_10  and  C_11
REMARK    8  A    between atoms: C_11  and  N_12
REMARK    9  A    between atoms: C_15  and  C_16
REMARK   10  A    between atoms: C_16  and  N_17
REMARK   11  A    between atoms: C_18  and  C_20
REMARK                            x       y       z     vdW  Elec       q    Type
REMARK                         _______ _______ _______ _____ _____    ______ ____
ROOT
ATOM      1  N   UNL     1       7.582   4.181   8.089  0.00  0.00    +0.000 NA
ATOM      2  C   UNL     1       8.474   5.086   7.343  0.00  0.00    +0.000 C 
ATOM      3  C   UNL     1       8.145   6.563   7.578  0.00  0.00    +0.000 C 
ATOM      4  C   UNL     1       6.676   6.900   7.290  0.00  0.00    +0.000 C 
ATOM      5  C   UNL     1       5.803   5.943   8.109  0.00  0.00    +0.000 C 
ATOM      6  C   UNL     1       6.159   4.473   7.870  0.00  0.00    +0.000 C 
ENDROOT
BRANCH   1   7
ATOM      7  C   UNL     1       7.864   2.767   7.736  0.00  0.00    +0.000 C 
BRANCH   7  11
ATOM      8  C   UNL     1      11.719   1.515   9.109  0.00  0.00    +0.000 A 
ATOM      9  C   UNL     1      10.611   1.422   9.960  0.00  0.00    +0.000 A 
ATOM     10  C   UNL     1       9.351   1.790   9.509  0.00  0.00    +0.000 A 
ATOM     11  C   UNL     1       9.220   2.268   8.210  0.00  0.00    +0.000 A 
ATOM     12  N   UNL     1      10.274   2.359   7.354  0.00  0.00    +0.000 NA
ATOM     13  C   UNL     1      11.490   1.980   7.818  0.00  0.00    +0.000 A 
BRANCH   8  14
ATOM     14  C   UNL     1      13.093   1.156   9.598  0.00  0.00    +0.000 C 
BRANCH  14  15
ATOM     15  N   UNL     1      13.131  -0.229  10.064  0.00  0.00    +0.000 NA
ATOM     16  H   UNL     1      12.415  -0.364  10.774  0.00  0.00    +0.000 HD
BRANCH  15  17
ATOM     17  C   UNL     1      14.433  -0.558  10.641  0.00  0.00    +0.000 C 
BRANCH  17  18
ATOM     18  C   UNL     1      14.438  -2.004  11.141  0.00  0.00    +0.000 C 
BRANCH  18  20
ATOM     19  C   UNL     1      15.788  -3.639  12.150  0.00  0.00    +0.000 C 
ATOM     20  O   UNL     1      15.723  -2.297  11.685  0.00  0.00    +0.000 OA
ENDBRANCH  18  20
ENDBRANCH  17  18
ENDBRANCH  15  17
ENDBRANCH  14  15
ENDBRANCH   8  14
ENDBRANCH   7  11
ENDBRANCH   1   7
BRANCH   4  21
ATOM     21  C   UNL     1       6.300   6.841   5.800  0.00  0.00    +0.000 C 
BRANCH  21  22
ATOM     22  N   UNL     1       7.045   7.783   4.999  0.00  0.00    +0.000 N 
ATOM     23  C   UNL     1       6.654   9.084   4.802  0.00  0.00    +0.000 C 
ATOM     24  O   UNL     1       5.656   9.566   5.329  0.00  0.00    +0.000 OA
ATOM     25  H   UNL     1       7.763   7.391   4.400  0.00  0.00    +0.000 HD
BRANCH  23  26
ATOM     26  C   UNL     1       7.551   9.890   3.966  0.00  0.00    +0.000 A 
ATOM     27  C   UNL     1       7.620  11.266   4.136  0.00  0.00    +0.000 A 
ATOM     28  S   UNL     1       8.781  12.015   3.132  0.00  0.00    +0.000 S 
ATOM     29  C   UNL     1       9.187  10.532   2.401  0.00  0.00    +0.000 A 
ATOM     30  N   UNL     1      10.137  10.466   1.426  0.00  0.00    +0.000 NA
ATOM     31  C   UNL     1      10.323   9.280   0.950  0.00  0.00    +0.000 A 
ATOM     32  N   UNL     1       9.643   8.157   1.347  0.00  0.00    +0.000 N 
ATOM     33  C   UNL     1       8.690   8.173   2.335  0.00  0.00    +0.000 A 
ATOM     34  O   UNL     1       8.133   7.144   2.695  0.00  0.00    +0.000 OA
ATOM     35  C   UNL     1       8.450   9.482   2.915  0.00  0.00    +0.000 A 
ATOM     36  H   UNL     1       9.840   7.258   0.933  0.00  0.00    +0.000 HD
ENDBRANCH  23  26
ENDBRANCH  21  22
ENDBRANCH   4  21
TORSDOF 10
