REMARK  Name = 
REMARK  8 active torsions:
REMARK  status: ('A' for Active; 'I' for Inactive)
REMARK    1  A    between atoms: N_1  and  C_2
REMARK    2  A    between atoms: C_2  and  C_3
REMARK    3  A    between atoms: C_2  and  C_19
REMARK    4  A    between atoms: C_3  and  C_4
REMARK    5  A    between atoms: C_7  and  C_8
REMARK    6  A    between atoms: C_8  and  O_9
REMARK    7  A    between atoms: C_8  and  C_10
REMARK    8  A    between atoms: C_10  and  N_11
REMARK                            x       y       z     vdW  Elec       q    Type
REMARK                         _______ _______ _______ _____ _____    ______ ____
ROOT
ATOM      1  C   UNL     1       0.437  -0.984  -1.215  0.00  0.00    +0.000 A 
ATOM      2  C   UNL     1       1.302  -1.552  -2.141  0.00  0.00    +0.000 A 
ATOM      3  C   UNL     1       0.786  -2.399  -3.118  0.00  0.00    +0.000 A 
ATOM      4  C   UNL     1      -0.584  -2.673  -3.161  0.00  0.00    +0.000 A 
ATOM      5  C   UNL     1      -1.379  -2.007  -2.237  0.00  0.00    +0.000 A 
ATOM      6  N   UNL     1      -0.905  -1.166  -1.287  0.00  0.00    +0.000 NA
ENDROOT
BRANCH   1   7
ATOM      7  C   UNL     1       1.004  -0.103  -0.119  0.00  0.00    +0.000 C 
BRANCH   7   8
ATOM      8  C   UNL     1       0.246  -0.095   1.227  0.00  0.00    +0.000 C 
BRANCH   8   9
ATOM      9  C   UNL     1       0.080  -1.468   1.864  0.00  0.00    +0.000 A 
ATOM     10  C   UNL     1      -0.980  -2.336   1.640  0.00  0.00    +0.000 A 
ATOM     11  S   UNL     1      -0.892  -3.781   2.541  0.00  0.00    +0.000 S 
ATOM     12  C   UNL     1       0.571  -3.305   3.265  0.00  0.00    +0.000 A 
ATOM     13  N   UNL     1       1.186  -4.095   4.186  0.00  0.00    +0.000 NA
ATOM     14  C   UNL     1       2.287  -3.606   4.649  0.00  0.00    +0.000 A 
ATOM     15  N   UNL     1       2.837  -2.408   4.266  0.00  0.00    +0.000 N 
ATOM     16  C   UNL     1       2.271  -1.593   3.309  0.00  0.00    +0.000 A 
ATOM     17  O   UNL     1       2.828  -0.569   2.925  0.00  0.00    +0.000 OA
ATOM     18  C   UNL     1       1.002  -2.076   2.797  0.00  0.00    +0.000 A 
ATOM     19  H   UNL     1       3.717  -2.100   4.649  0.00  0.00    +0.000 HD
ENDBRANCH   8   9
BRANCH   8  20
ATOM     20  N   UNL     1      -1.064   0.561   1.100  0.00  0.00    +0.000 NA
ATOM     21  H   UNL     1      -1.609   0.401   1.944  0.00  0.00    +0.000 HD
ATOM     22  H   UNL     1      -1.557   0.091   0.331  0.00  0.00    +0.000 HD
ENDBRANCH   8  20
ENDBRANCH   7   8
ENDBRANCH   1   7
BRANCH   4  23
ATOM     23  C   UNL     1      -1.216  -3.618  -4.156  0.00  0.00    +0.000 C 
BRANCH  23  24
ATOM     24  O   UNL     1      -1.630  -2.877  -5.313  0.00  0.00    +0.000 OA
ATOM     25  H   UNL     1      -0.967  -2.180  -5.463  0.00  0.00    +0.000 HD
ENDBRANCH  23  24
BRANCH  23  26
ATOM     26  C   UNL     1      -0.278  -4.761  -4.600  0.00  0.00    +0.000 C 
BRANCH  26  27
ATOM     27  N   UNL     1      -0.948  -5.681  -5.523  0.00  0.00    +0.000 N 
ATOM     28  C   UNL     1      -0.175  -6.678  -5.997  0.00  0.00    +0.000 A 
ATOM     29  N   UNL     1       1.040  -7.010  -5.630  0.00  0.00    +0.000 NA
ATOM     30  C   UNL     1       1.384  -8.083  -6.408  0.00  0.00    +0.000 A 
ATOM     31  C   UNL     1       0.353  -8.417  -7.255  0.00  0.00    +0.000 A 
ATOM     32  N   UNL     1      -0.631  -7.506  -6.985  0.00  0.00    +0.000 N 
ATOM     33  H   UNL     1      -1.579  -5.198  -6.161  0.00  0.00    +0.000 HD
ATOM     34  H   UNL     1      -1.547  -7.459  -7.406  0.00  0.00    +0.000 HD
ENDBRANCH  26  27
ENDBRANCH  23  26
ENDBRANCH   4  23
TORSDOF 8
