REMARK  Name = 
REMARK  9 active torsions:
REMARK  status: ('A' for Active; 'I' for Inactive)
REMARK    1  A    between atoms: C_1  and  O_2
REMARK    2  A    between atoms: O_2  and  C_3
REMARK    3  A    between atoms: C_10  and  C_11
REMARK    4  A    between atoms: N_13  and  C_14
REMARK    5  A    between atoms: C_14  and  C_15
REMARK    6  A    between atoms: C_18  and  N_19
REMARK    7  A    between atoms: N_19  and  C_20
REMARK    8  A    between atoms: C_20  and  C_21
REMARK    9  A    between atoms: C_25  and  C_26
REMARK                            x       y       z     vdW  Elec       q    Type
REMARK                         _______ _______ _______ _____ _____    ______ ____
ROOT
ATOM      1  C   UNL     1       1.822  -0.837  -3.218  0.00  0.00    +0.000 A 
ATOM      2  C   UNL     1       2.021  -2.219  -3.205  0.00  0.00    +0.000 A 
ATOM      3  C   UNL     1       0.975  -3.085  -2.873  0.00  0.00    +0.000 A 
ATOM      4  C   UNL     1      -0.297  -2.607  -2.540  0.00  0.00    +0.000 A 
ATOM      5  C   UNL     1      -0.501  -1.224  -2.608  0.00  0.00    +0.000 A 
ATOM      6  C   UNL     1       0.540  -0.348  -2.947  0.00  0.00    +0.000 A 
ENDROOT
BRANCH   4   7
ATOM      7  N   UNL     1      -1.306  -3.403  -1.994  0.00  0.00    +0.000 N 
ATOM      8  H   UNL     1      -2.240  -3.130  -2.292  0.00  0.00    +0.000 HD
BRANCH   7   9
ATOM      9  C   UNL     1      -1.111  -4.827  -1.779  0.00  0.00    +0.000 C 
BRANCH   9  10
ATOM     10  C   UNL     1      -1.929  -5.325  -0.573  0.00  0.00    +0.000 C 
ATOM     11  C   UNL     1      -1.549  -4.626   0.747  0.00  0.00    +0.000 C 
ATOM     12  C   UNL     1      -0.157  -5.013   1.255  0.00  0.00    +0.000 C 
ATOM     13  N   UNL     1       0.011  -6.470   1.309  0.00  0.00    +0.000 N 
ATOM     14  C   UNL     1       0.595  -7.201   2.332  0.00  0.00    +0.000 C 
ATOM     15  C   UNL     1       1.003  -6.524   3.616  0.00  0.00    +0.000 C 
ATOM     16  O   UNL     1       0.776  -8.420   2.241  0.00  0.00    +0.000 OA
ATOM     17  C   UNL     1      -0.315  -7.181   0.073  0.00  0.00    +0.000 C 
ATOM     18  C   UNL     1      -1.732  -6.841  -0.391  0.00  0.00    +0.000 C 
ENDBRANCH   9  10
ENDBRANCH   7   9
ENDBRANCH   4   7
BRANCH   1  19
ATOM     19  C   UNL     1       2.979   0.101  -3.435  0.00  0.00    +0.000 C 
BRANCH  19  22
ATOM     20  C   UNL     1       3.394   0.439  -5.834  0.00  0.00    +0.000 C 
ATOM     21  O   UNL     1       2.520   1.300  -5.903  0.00  0.00    +0.000 OA
ATOM     22  N   UNL     1       3.696  -0.182  -4.654  0.00  0.00    +0.000 N 
ATOM     23  H   UNL     1       4.364  -0.937  -4.640  0.00  0.00    +0.000 HD
BRANCH  20  31
ATOM     24  C   UNL     1       5.936  -1.843  -6.396  0.00  0.00    +0.000 A 
ATOM     25  N   UNL     1       6.967  -2.567  -6.880  0.00  0.00    +0.000 NA
ATOM     26  C   UNL     1       7.327  -2.384  -8.153  0.00  0.00    +0.000 A 
ATOM     27  N   UNL     1       6.766  -1.558  -9.030  0.00  0.00    +0.000 NA
ATOM     28  C   UNL     1       5.751  -0.849  -8.510  0.00  0.00    +0.000 A 
ATOM     29  S   UNL     1       4.913   0.246  -9.498  0.00  0.00    +0.000 S 
ATOM     30  C   UNL     1       3.904   0.710  -8.214  0.00  0.00    +0.000 A 
ATOM     31  C   UNL     1       4.182   0.060  -7.019  0.00  0.00    +0.000 A 
ATOM     32  C   UNL     1       5.268  -0.901  -7.204  0.00  0.00    +0.000 A 
BRANCH  24  34
ATOM     33  C   UNL     1       6.265  -3.111  -4.446  0.00  0.00    +0.000 C 
ATOM     34  O   UNL     1       5.543  -2.058  -5.087  0.00  0.00    +0.000 OA
ENDBRANCH  24  34
ENDBRANCH  20  31
ENDBRANCH  19  22
ENDBRANCH   1  19
TORSDOF 7
