REMARK  Name = 
REMARK  10 active torsions:
REMARK  status: ('A' for Active; 'I' for Inactive)
REMARK    1  A    between atoms: C_2  and  C_3
REMARK    2  A    between atoms: C_6  and  O_7
REMARK    3  A    between atoms: O_7  and  C_8
REMARK    4  A    between atoms: C_8  and  C_9
REMARK    5  A    between atoms: C_9  and  C_10
REMARK    6  A    between atoms: C_9  and  C_12
REMARK    7  A    between atoms: C_10  and  O_11
REMARK    8  A    between atoms: C_16  and  N_17
REMARK    9  A    between atoms: N_17  and  C_18
REMARK   10  A    between atoms: C_20  and  O_21
REMARK                            x       y       z     vdW  Elec       q    Type
REMARK                         _______ _______ _______ _____ _____    ______ ____
ROOT
ATOM      1  C   UNL     1      -5.745   1.044  -0.202  0.00  0.00    +0.000 C 
ENDROOT
BRANCH   1   2
ATOM      2  C   UNL     1      -6.558   2.333  -0.222  0.00  0.00    +0.000 A 
ATOM      3  C   UNL     1      -7.952   2.292  -0.109  0.00  0.00    +0.000 A 
ATOM      4  C   UNL     1      -8.693   3.476  -0.050  0.00  0.00    +0.000 A 
ATOM      5  C   UNL     1      -8.054   4.717  -0.120  0.00  0.00    +0.000 A 
ATOM      6  C   UNL     1      -6.669   4.785  -0.254  0.00  0.00    +0.000 A 
ATOM      7  C   UNL     1      -5.938   3.590  -0.312  0.00  0.00    +0.000 A 
BRANCH   6   8
ATOM      8  N   UNL     1      -5.953   6.000  -0.335  0.00  0.00    +0.000 N 
ATOM      9  H   UNL     1      -5.281   6.038   0.433  0.00  0.00    +0.000 HD
BRANCH   8  10
ATOM     10  C   UNL     1      -6.492   7.279  -0.678  0.00  0.00    +0.000 C 
ATOM     11  C   UNL     1      -6.897   7.364  -2.163  0.00  0.00    +0.000 C 
ATOM     12  C   UNL     1      -5.991   8.596  -2.328  0.00  0.00    +0.000 C 
ATOM     13  C   UNL     1      -5.372   8.302  -0.951  0.00  0.00    +0.000 C 
BRANCH  12  14
ATOM     14  O   UNL     1      -6.649   9.869  -2.479  0.00  0.00    +0.000 OA
ATOM     15  H   UNL     1      -7.285   9.928  -1.748  0.00  0.00    +0.000 HD
ENDBRANCH  12  14
ENDBRANCH   8  10
ENDBRANCH   6   8
ENDBRANCH   1   2
BRANCH   1  16
ATOM     16  C   UNL     1      -4.990   0.815  -1.523  0.00  0.00    +0.000 C 
BRANCH  16  17
ATOM     17  O   UNL     1      -4.299  -0.449  -1.482  0.00  0.00    +0.000 OA
BRANCH  17  21
ATOM     18  C   UNL     1      -1.998  -1.138  -4.834  0.00  0.00    +0.000 A 
ATOM     19  C   UNL     1      -2.059  -2.104  -3.828  0.00  0.00    +0.000 A 
ATOM     20  C   UNL     1      -2.848  -1.868  -2.697  0.00  0.00    +0.000 A 
ATOM     21  C   UNL     1      -3.545  -0.674  -2.619  0.00  0.00    +0.000 A 
ATOM     22  N   UNL     1      -3.505   0.273  -3.579  0.00  0.00    +0.000 NA
ATOM     23  C   UNL     1      -2.738   0.022  -4.663  0.00  0.00    +0.000 A 
BRANCH  18  25
ATOM     24  N   UNL     1      -0.563  -1.441  -6.959  0.00  0.00    +0.000 NA
ATOM     25  C   UNL     1      -1.204  -1.314  -6.007  0.00  0.00    +0.000 C 
ENDBRANCH  18  25
ENDBRANCH  17  21
ENDBRANCH  16  17
ENDBRANCH   1  16
BRANCH   1  26
ATOM     26  C   UNL     1      -4.826   0.979   1.039  0.00  0.00    +0.000 C 
BRANCH  26  27
ATOM     27  O   UNL     1      -3.781   1.948   1.045  0.00  0.00    +0.000 OA
ATOM     28  H   UNL     1      -3.276   1.861   0.220  0.00  0.00    +0.000 HD
ENDBRANCH  26  27
ENDBRANCH   1  26
TORSDOF 10
