REMARK  Name = 
REMARK  5 active torsions:
REMARK  status: ('A' for Active; 'I' for Inactive)
REMARK    1  A    between atoms: C_1  and  C_2
REMARK    2  A    between atoms: C_4  and  N_5
REMARK    3  A    between atoms: C_4  and  C_15
REMARK    4  A    between atoms: N_5  and  C_6
REMARK    5  A    between atoms: C_9  and  C_10
REMARK                            x       y       z     vdW  Elec       q    Type
REMARK                         _______ _______ _______ _____ _____    ______ ____
ROOT
ATOM      1  N   UNL     1       2.260  -1.236  -2.350  0.00  0.00    +0.000 N 
ATOM      2  H   UNL     1       1.502  -1.868  -2.109  0.00  0.00    +0.000 HD
ENDROOT
BRANCH   1   3
ATOM      3  C   UNL     1       2.715  -1.403  -3.673  0.00  0.00    +0.000 A 
ATOM      4  C   UNL     1       3.873  -0.801  -4.166  0.00  0.00    +0.000 A 
ATOM      5  C   UNL     1       4.259  -0.993  -5.493  0.00  0.00    +0.000 A 
ATOM      6  C   UNL     1       3.447  -1.770  -6.306  0.00  0.00    +0.000 A 
ATOM      7  N   UNL     1       2.286  -2.345  -5.891  0.00  0.00    +0.000 NA
ATOM      8  C   UNL     1       1.954  -2.131  -4.595  0.00  0.00    +0.000 A 
BRANCH   6   9
ATOM      9  C   UNL     1       3.835  -2.010  -7.732  0.00  0.00    +0.000 C 
ATOM     10  N   UNL     1       2.967  -2.791  -8.447  0.00  0.00    +0.000 N 
ATOM     11  O   UNL     1       4.854  -1.549  -8.231  0.00  0.00    +0.000 OA
ATOM     12  H   UNL     1       2.138  -3.156  -7.991  0.00  0.00    +0.000 HD
ATOM     13  H   UNL     1       3.164  -3.006  -9.412  0.00  0.00    +0.000 HD
ENDBRANCH   6   9
ENDBRANCH   1   3
BRANCH   1  17
ATOM     14  C   UNL     1       2.850  -0.294   1.373  0.00  0.00    +0.000 C 
ATOM     15  C   UNL     1       2.512  -0.141  -0.071  0.00  0.00    +0.000 C 
ATOM     16  C   UNL     1       3.483   0.565  -0.967  0.00  0.00    +0.000 C 
ATOM     17  C   UNL     1       3.174  -0.903  -1.225  0.00  0.00    +0.000 C 
BRANCH  17  18
ATOM     18  C   UNL     1       4.235  -1.976  -0.936  0.00  0.00    +0.000 A 
ATOM     19  C   UNL     1       3.878  -3.303  -0.616  0.00  0.00    +0.000 A 
ATOM     20  C   UNL     1       4.841  -4.301  -0.426  0.00  0.00    +0.000 A 
ATOM     21  C   UNL     1       6.190  -3.987  -0.550  0.00  0.00    +0.000 A 
ATOM     22  F   UNL     1       7.114  -4.939  -0.370  0.00  0.00    +0.000 F 
ATOM     23  C   UNL     1       6.585  -2.699  -0.869  0.00  0.00    +0.000 A 
ATOM     24  C   UNL     1       5.616  -1.709  -1.070  0.00  0.00    +0.000 A 
ENDBRANCH  17  18
ENDBRANCH   1  17
TORSDOF 4
