REMARK  Name = 
REMARK  9 active torsions:
REMARK  status: ('A' for Active; 'I' for Inactive)
REMARK    1  A    between atoms: C_1  and  O_2
REMARK    2  A    between atoms: O_2  and  C_3
REMARK    3  A    between atoms: C_10  and  C_11
REMARK    4  A    between atoms: N_13  and  C_14
REMARK    5  A    between atoms: C_14  and  C_15
REMARK    6  A    between atoms: C_18  and  C_19
REMARK    7  A    between atoms: C_19  and  N_20
REMARK    8  A    between atoms: N_20  and  C_21
REMARK    9  A    between atoms: C_21  and  C_22
REMARK                            x       y       z     vdW  Elec       q    Type
REMARK                         _______ _______ _______ _____ _____    ______ ____
ROOT
ATOM      1  C   UNL     1       2.641   2.799  -1.767  0.00  0.00    +0.000 C 
ENDROOT
BRANCH   1   2
ATOM      2  C   UNL     1       1.430   2.099  -2.334  0.00  0.00    +0.000 A 
ATOM      3  C   UNL     1       1.454   0.723  -2.597  0.00  0.00    +0.000 A 
ATOM      4  C   UNL     1       0.322   0.074  -3.102  0.00  0.00    +0.000 A 
ATOM      5  C   UNL     1      -0.858   0.785  -3.365  0.00  0.00    +0.000 A 
ATOM      6  C   UNL     1      -0.866   2.169  -3.143  0.00  0.00    +0.000 A 
ATOM      7  C   UNL     1       0.267   2.819  -2.639  0.00  0.00    +0.000 A 
BRANCH   5   8
ATOM      8  C   UNL     1      -2.090   0.075  -3.887  0.00  0.00    +0.000 C 
BRANCH   8   9
ATOM      9  N   UNL     1      -2.532  -0.971  -2.966  0.00  0.00    +0.000 NA
ATOM     10  H   UNL     1      -2.725  -0.551  -2.057  0.00  0.00    +0.000 HD
BRANCH   9  11
ATOM     11  C   UNL     1      -3.738  -1.641  -3.449  0.00  0.00    +0.000 C 
BRANCH  11  12
ATOM     12  C   UNL     1      -4.181  -2.714  -2.483  0.00  0.00    +0.000 A 
ATOM     13  C   UNL     1      -5.441  -2.672  -1.879  0.00  0.00    +0.000 A 
ATOM     14  C   UNL     1      -5.794  -3.687  -1.000  0.00  0.00    +0.000 A 
ATOM     15  N   UNL     1      -4.991  -4.728  -0.689  0.00  0.00    +0.000 NA
ATOM     16  C   UNL     1      -3.781  -4.751  -1.283  0.00  0.00    +0.000 A 
ATOM     17  C   UNL     1      -3.339  -3.788  -2.175  0.00  0.00    +0.000 A 
ENDBRANCH  11  12
ENDBRANCH   9  11
ENDBRANCH   8   9
ENDBRANCH   5   8
ENDBRANCH   1   2
BRANCH   1  20
ATOM     18  C   UNL     1       4.683   3.923  -2.565  0.00  0.00    +0.000 C 
ATOM     19  O   UNL     1       5.085   4.092  -1.418  0.00  0.00    +0.000 OA
ATOM     20  N   UNL     1       3.490   3.303  -2.816  0.00  0.00    +0.000 N 
ATOM     21  H   UNL     1       3.154   3.217  -3.764  0.00  0.00    +0.000 HD
BRANCH  18  29
ATOM     22  C   UNL     1       4.245   3.633  -5.966  0.00  0.00    +0.000 A 
ATOM     23  N   UNL     1       4.317   3.666  -7.311  0.00  0.00    +0.000 NA
ATOM     24  C   UNL     1       5.369   4.272  -7.868  0.00  0.00    +0.000 A 
ATOM     25  N   UNL     1       6.379   4.865  -7.236  0.00  0.00    +0.000 NA
ATOM     26  C   UNL     1       6.263   4.817  -5.898  0.00  0.00    +0.000 A 
ATOM     27  S   UNL     1       7.462   5.525  -4.927  0.00  0.00    +0.000 S 
ATOM     28  C   UNL     1       6.650   5.070  -3.505  0.00  0.00    +0.000 A 
ATOM     29  C   UNL     1       5.464   4.381  -3.730  0.00  0.00    +0.000 A 
ATOM     30  C   UNL     1       5.235   4.232  -5.166  0.00  0.00    +0.000 A 
BRANCH  22  32
ATOM     31  C   UNL     1       2.527   2.063  -6.226  0.00  0.00    +0.000 C 
ATOM     32  O   UNL     1       3.143   3.039  -5.391  0.00  0.00    +0.000 OA
ENDBRANCH  22  32
ENDBRANCH  18  29
ENDBRANCH   1  20
TORSDOF 8
