REMARK  Name = 
REMARK  8 active torsions:
REMARK  status: ('A' for Active; 'I' for Inactive)
REMARK    1  A    between atoms: C_1  and  C_2
REMARK    2  A    between atoms: C_2  and  N_3
REMARK    3  A    between atoms: C_2  and  C_25
REMARK    4  A    between atoms: N_3  and  C_4
REMARK    5  A    between atoms: C_4  and  C_5
REMARK    6  A    between atoms: C_8  and  C_9
REMARK    7  A    between atoms: C_9  and  N_10
REMARK    8  A    between atoms: C_11  and  C_13
REMARK                            x       y       z     vdW  Elec       q    Type
REMARK                         _______ _______ _______ _____ _____    ______ ____
ROOT
ATOM      1  C   UNL     1      -1.076   1.044   0.788  0.00  0.00    +0.000 A 
ATOM      2  C   UNL     1      -1.864   0.280  -0.079  0.00  0.00    +0.000 A 
ATOM      3  C   UNL     1      -3.240   0.479  -0.127  0.00  0.00    +0.000 A 
ATOM      4  C   UNL     1      -3.805   1.448   0.696  0.00  0.00    +0.000 A 
ATOM      5  N   UNL     1      -3.076   2.136   1.612  0.00  0.00    +0.000 NA
ATOM      6  C   UNL     1      -1.737   1.924   1.634  0.00  0.00    +0.000 A 
ENDROOT
BRANCH   1   7
ATOM      7  C   UNL     1       0.424   1.032   0.665  0.00  0.00    +0.000 C 
BRANCH   7   8
ATOM      8  N   UNL     1       1.129   0.647   1.890  0.00  0.00    +0.000 NA
ATOM      9  H   UNL     1       0.847  -0.301   2.138  0.00  0.00    +0.000 HD
BRANCH   8  11
ATOM     10  C   UNL     1       3.050  -0.366   0.627  0.00  0.00    +0.000 C 
ATOM     11  C   UNL     1       2.608   0.654   1.694  0.00  0.00    +0.000 C 
BRANCH  11  12
ATOM     12  C   UNL     1       3.185   2.051   1.439  0.00  0.00    +0.000 A 
ATOM     13  C   UNL     1       2.954   3.079   2.356  0.00  0.00    +0.000 A 
ATOM     14  C   UNL     1       3.420   4.361   2.069  0.00  0.00    +0.000 A 
ATOM     15  C   UNL     1       4.120   4.585   0.891  0.00  0.00    +0.000 A 
ATOM     16  C   UNL     1       4.334   3.510   0.047  0.00  0.00    +0.000 A 
ATOM     17  N   UNL     1       3.880   2.262   0.290  0.00  0.00    +0.000 NA
ENDBRANCH  11  12
ENDBRANCH   8  11
ENDBRANCH   7   8
ENDBRANCH   1   7
BRANCH   4  18
ATOM     18  C   UNL     1      -5.288   1.729   0.620  0.00  0.00    +0.000 C 
BRANCH  18  19
ATOM     19  N   UNL     1      -5.995   0.903   1.565  0.00  0.00    +0.000 N 
ATOM     20  C   UNL     1      -7.250   0.411   1.346  0.00  0.00    +0.000 C 
ATOM     21  O   UNL     1      -7.864   0.610   0.302  0.00  0.00    +0.000 OA
ATOM     22  H   UNL     1      -5.609   0.914   2.503  0.00  0.00    +0.000 HD
BRANCH  20  23
ATOM     23  C   UNL     1      -7.787  -0.453   2.405  0.00  0.00    +0.000 A 
ATOM     24  C   UNL     1      -8.794  -1.362   2.111  0.00  0.00    +0.000 A 
ATOM     25  S   UNL     1      -9.219  -2.356   3.431  0.00  0.00    +0.000 S 
ATOM     26  C   UNL     1      -8.113  -1.567   4.455  0.00  0.00    +0.000 A 
ATOM     27  N   UNL     1      -7.979  -1.939   5.756  0.00  0.00    +0.000 NA
ATOM     28  C   UNL     1      -7.124  -1.236   6.425  0.00  0.00    +0.000 A 
ATOM     29  N   UNL     1      -6.395  -0.197   5.910  0.00  0.00    +0.000 N 
ATOM     30  C   UNL     1      -6.489   0.206   4.600  0.00  0.00    +0.000 A 
ATOM     31  O   UNL     1      -5.813   1.134   4.170  0.00  0.00    +0.000 OA
ATOM     32  C   UNL     1      -7.428  -0.559   3.801  0.00  0.00    +0.000 A 
ATOM     33  H   UNL     1      -5.745   0.319   6.486  0.00  0.00    +0.000 HD
ENDBRANCH  20  23
ENDBRANCH  18  19
ENDBRANCH   4  18
TORSDOF 7
