REMARK  Name = 
REMARK  5 active torsions:
REMARK  status: ('A' for Active; 'I' for Inactive)
REMARK    1  A    between atoms: C_2  and  C_4
REMARK    2  A    between atoms: C_7  and  O_8
REMARK    3  A    between atoms: O_8  and  C_9
REMARK    4  A    between atoms: C_9  and  C_10
REMARK    5  A    between atoms: C_14  and  C_15
REMARK                            x       y       z     vdW  Elec       q    Type
REMARK                         _______ _______ _______ _____ _____    ______ ____
ROOT
ATOM      1  C   UNL     1       5.068  -4.783  -3.709  0.00  0.00    +0.000 C 
ENDROOT
BRANCH   1   2
ATOM      2  C   UNL     1       5.998  -5.939  -3.975  0.00  0.00    +0.000 A 
ATOM      3  C   UNL     1       7.328  -5.714  -4.340  0.00  0.00    +0.000 A 
ATOM      4  C   UNL     1       8.185  -6.789  -4.554  0.00  0.00    +0.000 A 
ATOM      5  C   UNL     1       7.724  -8.098  -4.388  0.00  0.00    +0.000 A 
ATOM      6  C   UNL     1       6.403  -8.366  -3.986  0.00  0.00    +0.000 A 
ATOM      7  C   UNL     1       5.553  -7.261  -3.792  0.00  0.00    +0.000 A 
BRANCH   6   8
ATOM      8  C   UNL     1       5.935  -9.747  -3.740  0.00  0.00    +0.000 A 
ATOM      9  C   UNL     1       4.622 -10.160  -4.014  0.00  0.00    +0.000 A 
ATOM     10  C   UNL     1       4.212 -11.465  -3.737  0.00  0.00    +0.000 A 
ATOM     11  C   UNL     1       5.134 -12.344  -3.199  0.00  0.00    +0.000 A 
ATOM     12  N   UNL     1       6.408 -12.007  -2.922  0.00  0.00    +0.000 NA
ATOM     13  C   UNL     1       6.769 -10.727  -3.191  0.00  0.00    +0.000 A 
ENDBRANCH   6   8
ENDBRANCH   1   2
BRANCH   1  14
ATOM     14  O   UNL     1       5.111  -4.509  -2.312  0.00  0.00    +0.000 OA
BRANCH  14  18
ATOM     15  C   UNL     1       2.845  -1.443  -0.633  0.00  0.00    +0.000 A 
ATOM     16  C   UNL     1       2.749  -1.661  -2.012  0.00  0.00    +0.000 A 
ATOM     17  C   UNL     1       3.493  -2.681  -2.618  0.00  0.00    +0.000 A 
ATOM     18  C   UNL     1       4.337  -3.484  -1.850  0.00  0.00    +0.000 A 
ATOM     19  C   UNL     1       4.439  -3.255  -0.475  0.00  0.00    +0.000 A 
ATOM     20  C   UNL     1       3.704  -2.237   0.133  0.00  0.00    +0.000 A 
BRANCH  15  22
ATOM     21  N   UNL     1       0.883  -0.007  -0.518  0.00  0.00    +0.000 N 
ATOM     22  C   UNL     1       2.074  -0.372   0.047  0.00  0.00    +0.000 C 
ATOM     23  O   UNL     1       2.459   0.137   1.091  0.00  0.00    +0.000 OA
ATOM     24  H   UNL     1       0.316   0.635   0.021  0.00  0.00    +0.000 HD
ATOM     25  H   UNL     1       0.415  -0.581  -1.206  0.00  0.00    +0.000 HD
ENDBRANCH  15  22
ENDBRANCH  14  18
ENDBRANCH   1  14
TORSDOF 5
