REMARK  Name = 
REMARK  10 active torsions:
REMARK  status: ('A' for Active; 'I' for Inactive)
REMARK    1  A    between atoms: CB_1  and  CA_2
REMARK    2  A    between atoms: CA_2  and  C_3
REMARK    3  A    between atoms: CA_2  and  N_5
REMARK    4  A    between atoms: C_3  and  O_4
REMARK    5  A    between atoms: N_5  and  C_6
REMARK    6  A    between atoms: C_6  and  C_7
REMARK    7  A    between atoms: C_10  and  O_11
REMARK    8  A    between atoms: O_11  and  C_12
REMARK    9  A    between atoms: C_12  and  C_13
REMARK   10  A    between atoms: C_17  and  C_18
REMARK                            x       y       z     vdW  Elec       q    Type
REMARK                         _______ _______ _______ _____ _____    ______ ____
ROOT
ATOM      1  C   UNK A   0       5.015  -0.154   2.848  0.00  0.00    +0.000 A 
ATOM      2  C   UNK A   0       5.160   1.070   3.518  0.00  0.00    +0.000 A 
ATOM      3  C   UNK A   0       5.524   1.112   4.866  0.00  0.00    +0.000 A 
ATOM      4  C   UNK A   0       5.725  -0.073   5.571  0.00  0.00    +0.000 A 
ATOM      5  C   UNK A   0       5.582  -1.296   4.913  0.00  0.00    +0.000 A 
ATOM      6  C   UNK A   0       5.223  -1.339   3.564  0.00  0.00    +0.000 A 
ENDROOT
BRANCH   1   7
ATOM      7  C   UNK A   0       4.595  -0.192   1.397  0.00  0.00    +0.000 C 
BRANCH   7   8
ATOM      8  N   ALA A   1       5.552   0.507   0.534  0.00  0.00    +0.000 NA
ATOM      9  H   ALA A   1       5.607   1.475   0.852  0.00  0.00    +0.000 HD
BRANCH   8  11
ATOM     10  CB  ALA A   1       6.269   1.164  -1.684  0.00  0.00    +0.000 C 
ATOM     11  CA  ALA A   1       5.133   0.520  -0.879  0.00  0.00    +0.000 C 
BRANCH  11  12
ATOM     12  C   ALA A   1       3.811   1.286  -1.118  0.00  0.00    +0.000 C 
BRANCH  12  13
ATOM     13  O   ALA A   1       3.843   2.584  -0.525  0.00  0.00    +0.000 OA
ATOM     14  H   ALA A   1       4.554   3.087  -0.958  0.00  0.00    +0.000 HD
ENDBRANCH  12  13
ENDBRANCH  11  12
ENDBRANCH   8  11
ENDBRANCH   7   8
ENDBRANCH   1   7
BRANCH   4  15
ATOM     15  O   UNK A   0       6.104  -0.156   6.882  0.00  0.00    +0.000 OA
BRANCH  15  16
ATOM     16  C   UNK A   0       5.687   0.929   7.716  0.00  0.00    +0.000 C 
BRANCH  16  17
ATOM     17  C   UNK A   0       6.143   0.671   9.135  0.00  0.00    +0.000 A 
ATOM     18  N   UNK A   0       5.327  -0.020   9.954  0.00  0.00    +0.000 NA
ATOM     19  C   UNK A   0       5.776  -0.250  11.200  0.00  0.00    +0.000 A 
ATOM     20  C   UNK A   0       7.000   0.186  11.661  0.00  0.00    +0.000 A 
ATOM     21  C   UNK A   0       7.775   0.899  10.766  0.00  0.00    +0.000 A 
ATOM     22  N   UNK A   0       7.351   1.149   9.499  0.00  0.00    +0.000 NA
BRANCH  21  23
ATOM     23  C   UNK A   0       9.137   1.425  11.192  0.00  0.00    +0.000 C 
ATOM     24  F   UNK A   0       9.450   1.115  12.486  0.00  0.00    +0.000 F 
ATOM     25  F   UNK A   0      10.163   0.930  10.443  0.00  0.00    +0.000 F 
ATOM     26  F   UNK A   0       9.231   2.783  11.114  0.00  0.00    +0.000 F 
ENDBRANCH  21  23
ENDBRANCH  16  17
ENDBRANCH  15  16
ENDBRANCH   4  15
TORSDOF 9
