REMARK  Name = 
REMARK  7 active torsions:
REMARK  status: ('A' for Active; 'I' for Inactive)
REMARK    1  A    between atoms: C_1  and  N_2
REMARK    2  A    between atoms: N_2  and  C_3
REMARK    3  A    between atoms: C_3  and  C_4
REMARK    4  A    between atoms: C_7  and  C_8
REMARK    5  A    between atoms: C_8  and  N_9
REMARK    6  A    between atoms: C_10  and  C_12
REMARK    7  A    between atoms: C_19  and  C_21
REMARK                            x       y       z     vdW  Elec       q    Type
REMARK                         _______ _______ _______ _____ _____    ______ ____
ROOT
ATOM      1  C   UNL     1       2.967  -0.671  -1.089  0.00  0.00    +0.000 C 
ENDROOT
BRANCH   1   2
ATOM      2  C   UNL     1       2.087  -1.287  -2.149  0.00  0.00    +0.000 A 
ATOM      3  C   UNL     1       2.101  -2.675  -2.361  0.00  0.00    +0.000 A 
ATOM      4  C   UNL     1       1.247  -3.257  -3.299  0.00  0.00    +0.000 A 
ATOM      5  C   UNL     1       0.371  -2.462  -4.047  0.00  0.00    +0.000 A 
ATOM      6  C   UNL     1       0.361  -1.076  -3.836  0.00  0.00    +0.000 A 
ATOM      7  C   UNL     1       1.221  -0.491  -2.903  0.00  0.00    +0.000 A 
BRANCH   5   8
ATOM      8  C   UNL     1      -0.584  -3.089  -5.025  0.00  0.00    +0.000 C 
BRANCH   8   9
ATOM      9  N   UNL     1      -1.815  -3.466  -4.378  0.00  0.00    +0.000 N 
ATOM     10  C   UNL     1      -2.879  -3.967  -5.092  0.00  0.00    +0.000 C 
ATOM     11  O   UNL     1      -2.834  -4.122  -6.311  0.00  0.00    +0.000 OA
ATOM     12  H   UNL     1      -1.883  -3.412  -3.368  0.00  0.00    +0.000 HD
BRANCH  10  13
ATOM     13  C   UNL     1      -4.040  -4.290  -4.298  0.00  0.00    +0.000 A 
ATOM     14  C   UNL     1      -5.257  -4.842  -4.632  0.00  0.00    +0.000 A 
ATOM     15  C   UNL     1      -5.962  -4.883  -3.417  0.00  0.00    +0.000 A 
ATOM     16  N   UNL     1      -5.242  -4.398  -2.403  0.00  0.00    +0.000 NA
ATOM     17  O   UNL     1      -4.031  -4.025  -2.960  0.00  0.00    +0.000 OA
ENDBRANCH  10  13
ENDBRANCH   8   9
ENDBRANCH   5   8
ENDBRANCH   1   2
BRANCH   1  19
ATOM     18  C   UNL     1       4.817  -0.420  -2.811  0.00  0.00    +0.000 C 
ATOM     19  N   UNL     1       4.294  -0.182  -1.471  0.00  0.00    +0.000 N 
ATOM     20  C   UNL     1       5.082   0.647  -0.650  0.00  0.00    +0.000 C 
ATOM     21  O   UNL     1       6.142   1.118  -1.059  0.00  0.00    +0.000 OA
BRANCH  20  22
ATOM     22  C   UNL     1       4.657   0.926   0.731  0.00  0.00    +0.000 A 
ATOM     23  C   UNL     1       4.208  -0.031   1.627  0.00  0.00    +0.000 A 
ATOM     24  S   UNL     1       3.857   0.589   3.178  0.00  0.00    +0.000 S 
ATOM     25  C   UNL     1       4.441   2.127   2.750  0.00  0.00    +0.000 A 
ATOM     26  N   UNL     1       4.528   3.121   3.673  0.00  0.00    +0.000 NA
ATOM     27  C   UNL     1       5.062   4.209   3.226  0.00  0.00    +0.000 A 
ATOM     28  N   UNL     1       5.478   4.404   1.933  0.00  0.00    +0.000 N 
ATOM     29  C   UNL     1       5.277   3.475   0.933  0.00  0.00    +0.000 A 
ATOM     30  O   UNL     1       5.430   3.775  -0.245  0.00  0.00    +0.000 OA
ATOM     31  C   UNL     1       4.800   2.191   1.416  0.00  0.00    +0.000 A 
ATOM     32  H   UNL     1       5.822   5.304   1.633  0.00  0.00    +0.000 HD
ENDBRANCH  20  22
ENDBRANCH   1  19
TORSDOF 6
