REMARK  Name = 
REMARK  9 active torsions:
REMARK  status: ('A' for Active; 'I' for Inactive)
REMARK    1  A    between atoms: N_1  and  C_2
REMARK    2  A    between atoms: C_2  and  C_3
REMARK    3  A    between atoms: C_3  and  N_4
REMARK    4  A    between atoms: C_3  and  C_19
REMARK    5  A    between atoms: N_4  and  C_5
REMARK    6  A    between atoms: C_8  and  C_9
REMARK    7  A    between atoms: C_9  and  N_10
REMARK    8  A    between atoms: N_10  and  C_11
REMARK    9  A    between atoms: C_14  and  O_15
REMARK                            x       y       z     vdW  Elec       q    Type
REMARK                         _______ _______ _______ _____ _____    ______ ____
ROOT
ATOM      1  N   UNL     1      -5.007   1.653   9.663  0.00  0.00    +0.000 N 
ATOM      2  H   UNL     1      -4.323   1.265  10.308  0.00  0.00    +0.000 HD
ENDROOT
BRANCH   1   3
ATOM      3  C   UNL     1      -4.825   1.093   8.387  0.00  0.00    +0.000 A 
ATOM      4  C   UNL     1      -5.778   1.195   7.371  0.00  0.00    +0.000 A 
ATOM      5  C   UNL     1      -5.544   0.664   6.100  0.00  0.00    +0.000 A 
ATOM      6  C   UNL     1      -4.319   0.062   5.788  0.00  0.00    +0.000 A 
ATOM      7  C   UNL     1      -3.334   0.008   6.777  0.00  0.00    +0.000 A 
ATOM      8  C   UNL     1      -3.583   0.532   8.054  0.00  0.00    +0.000 A 
BRANCH   6   9
ATOM      9  C   UNL     1      -4.092  -0.521   4.414  0.00  0.00    +0.000 C 
BRANCH   9  10
ATOM     10  N   UNL     1      -4.287   0.498   3.380  0.00  0.00    +0.000 NA
ATOM     11  H   UNL     1      -3.632   1.261   3.560  0.00  0.00    +0.000 HD
BRANCH  10  12
ATOM     12  C   UNL     1      -4.104  -0.008   2.020  0.00  0.00    +0.000 C 
ATOM     13  C   UNL     1      -5.145  -1.087   1.650  0.00  0.00    +0.000 C 
ATOM     14  C   UNL     1      -5.840  -0.599   0.388  0.00  0.00    +0.000 C 
ATOM     15  C   UNL     1      -5.749   0.913   0.500  0.00  0.00    +0.000 C 
ATOM     16  C   UNL     1      -4.326   1.121   0.999  0.00  0.00    +0.000 C 
BRANCH  15  17
ATOM     17  O   UNL     1      -5.978   1.546  -0.745  0.00  0.00    +0.000 OA
ATOM     18  H   UNL     1      -5.322   1.217  -1.381  0.00  0.00    +0.000 HD
ENDBRANCH  15  17
ENDBRANCH  10  12
ENDBRANCH   9  10
ENDBRANCH   6   9
ENDBRANCH   1   3
BRANCH   1  19
ATOM     19  C   UNL     1      -6.364   1.626  10.271  0.00  0.00    +0.000 C 
BRANCH  19  20
ATOM     20  C   UNL     1      -6.427   0.785  11.541  0.00  0.00    +0.000 A 
ATOM     21  C   UNL     1      -5.705   1.071  12.691  0.00  0.00    +0.000 A 
ATOM     22  S   UNL     1      -5.994  -0.032  13.958  0.00  0.00    +0.000 S 
ATOM     23  C   UNL     1      -7.075  -0.939  13.005  0.00  0.00    +0.000 A 
ATOM     24  N   UNL     1      -7.686  -2.046  13.498  0.00  0.00    +0.000 NA
ATOM     25  C   UNL     1      -8.476  -2.634  12.661  0.00  0.00    +0.000 A 
ATOM     26  N   UNL     1      -8.707  -2.215  11.374  0.00  0.00    +0.000 N 
ATOM     27  C   UNL     1      -8.128  -1.092  10.834  0.00  0.00    +0.000 A 
ATOM     28  O   UNL     1      -8.395  -0.724   9.693  0.00  0.00    +0.000 OA
ATOM     29  C   UNL     1      -7.222  -0.401  11.737  0.00  0.00    +0.000 A 
ATOM     30  H   UNL     1      -9.347  -2.713  10.776  0.00  0.00    +0.000 HD
ENDBRANCH  19  20
BRANCH  19  31
ATOM     31  C   UNL     1      -6.820   3.095  10.590  0.00  0.00    +0.000 C 
BRANCH  31  32
ATOM     32  N   UNL     1      -6.825   4.015   9.441  0.00  0.00    +0.000 NA
ATOM     33  H   UNL     1      -6.530   4.936   9.760  0.00  0.00    +0.000 HD
ATOM     34  H   UNL     1      -6.087   3.704   8.799  0.00  0.00    +0.000 HD
ENDBRANCH  31  32
ENDBRANCH  19  31
ENDBRANCH   1  19
TORSDOF 9
