REMARK  Name = 
REMARK  9 active torsions:
REMARK  status: ('A' for Active; 'I' for Inactive)
REMARK    1  A    between atoms: C_1  and  O_2
REMARK    2  A    between atoms: O_2  and  C_3
REMARK    3  A    between atoms: C_10  and  C_11
REMARK    4  A    between atoms: N_13  and  C_14
REMARK    5  A    between atoms: C_14  and  C_15
REMARK    6  A    between atoms: C_18  and  O_19
REMARK    7  A    between atoms: O_19  and  C_20
REMARK    8  A    between atoms: C_20  and  C_21
REMARK    9  A    between atoms: C_21  and  N_22
REMARK                            x       y       z     vdW  Elec       q    Type
REMARK                         _______ _______ _______ _____ _____    ______ ____
ROOT
ATOM      1  C   UNL     1       3.915  -2.362   1.256  0.00  0.00    +0.000 C 
ATOM      2  O   UNL     1       4.716  -2.891   2.020  0.00  0.00    +0.000 OA
ATOM      3  N   UNL     1       3.010  -1.439   1.705  0.00  0.00    +0.000 N 
ATOM      4  H   UNL     1       2.397  -0.975   1.051  0.00  0.00    +0.000 HD
ENDROOT
BRANCH   1  12
ATOM      5  C   UNL     1       1.872  -1.410  -1.342  0.00  0.00    +0.000 A 
ATOM      6  N   UNL     1       1.239  -1.207  -2.514  0.00  0.00    +0.000 NA
ATOM      7  C   UNL     1       1.701  -1.845  -3.593  0.00  0.00    +0.000 A 
ATOM      8  N   UNL     1       2.738  -2.676  -3.652  0.00  0.00    +0.000 NA
ATOM      9  C   UNL     1       3.343  -2.846  -2.463  0.00  0.00    +0.000 A 
ATOM     10  S   UNL     1       4.689  -3.874  -2.347  0.00  0.00    +0.000 S 
ATOM     11  C   UNL     1       4.841  -3.571  -0.679  0.00  0.00    +0.000 A 
ATOM     12  C   UNL     1       3.888  -2.688  -0.181  0.00  0.00    +0.000 A 
ATOM     13  C   UNL     1       2.992  -2.257  -1.253  0.00  0.00    +0.000 A 
BRANCH   5  15
ATOM     14  C   UNL     1       0.075  -0.295  -0.325  0.00  0.00    +0.000 C 
ATOM     15  O   UNL     1       1.431  -0.720  -0.235  0.00  0.00    +0.000 OA
ENDBRANCH   5  15
ENDBRANCH   1  12
BRANCH   3  16
ATOM     16  C   UNL     1       2.930  -1.029   3.084  0.00  0.00    +0.000 C 
BRANCH  16  17
ATOM     17  C   UNL     1       1.782  -0.073   3.306  0.00  0.00    +0.000 A 
ATOM     18  C   UNL     1       0.507  -0.557   3.625  0.00  0.00    +0.000 A 
ATOM     19  C   UNL     1      -0.557   0.323   3.854  0.00  0.00    +0.000 A 
ATOM     20  C   UNL     1      -0.369   1.703   3.762  0.00  0.00    +0.000 A 
ATOM     21  C   UNL     1       0.884   2.190   3.385  0.00  0.00    +0.000 A 
ATOM     22  C   UNL     1       1.954   1.310   3.161  0.00  0.00    +0.000 A 
BRANCH  20  23
ATOM     23  O   UNL     1      -1.344   2.644   3.977  0.00  0.00    +0.000 OA
BRANCH  23  24
ATOM     24  C   UNL     1      -2.364   2.259   4.914  0.00  0.00    +0.000 C 
BRANCH  24  25
ATOM     25  C   UNL     1      -3.313   3.449   5.162  0.00  0.00    +0.000 C 
BRANCH  25  26
ATOM     26  N   UNL     1      -4.451   3.137   6.053  0.00  0.00    +0.000 NA
ATOM     27  C   UNL     1      -5.374   4.283   6.158  0.00  0.00    +0.000 C 
ATOM     28  C   UNL     1      -4.845   5.102   7.319  0.00  0.00    +0.000 C 
ATOM     29  C   UNL     1      -4.415   4.036   8.305  0.00  0.00    +0.000 C 
ATOM     30  C   UNL     1      -4.046   2.835   7.439  0.00  0.00    +0.000 C 
ENDBRANCH  25  26
ENDBRANCH  24  25
ENDBRANCH  23  24
ENDBRANCH  20  23
ENDBRANCH  16  17
ENDBRANCH   3  16
TORSDOF 8
