REMARK  Name = 
REMARK  7 active torsions:
REMARK  status: ('A' for Active; 'I' for Inactive)
REMARK    1  A    between atoms: C_1  and  C_2
REMARK    2  A    between atoms: C_2  and  C_3
REMARK    3  A    between atoms: C_7  and  C_8
REMARK    4  A    between atoms: C_8  and  C_9
REMARK    5  A    between atoms: C_9  and  N_10
REMARK    6  A    between atoms: C_14  and  C_15
REMARK    7  A    between atoms: C_23  and  O_24
REMARK                            x       y       z     vdW  Elec       q    Type
REMARK                         _______ _______ _______ _____ _____    ______ ____
ROOT
ATOM      1  C   UNL     1       2.987   0.403   1.320  0.00  0.00    +0.000 A 
ATOM      2  C   UNL     1       2.728   1.667   1.871  0.00  0.00    +0.000 A 
ATOM      3  C   UNL     1       3.046   1.952   3.204  0.00  0.00    +0.000 A 
ATOM      4  C   UNL     1       3.614   0.975   4.024  0.00  0.00    +0.000 A 
ATOM      5  C   UNL     1       3.896  -0.294   3.512  0.00  0.00    +0.000 A 
ATOM      6  C   UNL     1       3.606  -0.536   2.156  0.00  0.00    +0.000 A 
ENDROOT
BRANCH   1   8
ATOM      7  C   UNL     1       0.967   0.082  -0.083  0.00  0.00    +0.000 C 
ATOM      8  C   UNL     1       2.514   0.022  -0.104  0.00  0.00    +0.000 C 
ATOM      9  C   UNL     1       3.091   1.019  -1.143  0.00  0.00    +0.000 C 
ATOM     10  C   UNL     1       2.775   0.650  -2.598  0.00  0.00    +0.000 C 
ATOM     11  C   UNL     1       3.177  -0.776  -2.959  0.00  0.00    +0.000 C 
ATOM     12  C   UNL     1       2.618  -1.792  -1.968  0.00  0.00    +0.000 C 
ATOM     13  C   UNL     1       2.944  -1.421  -0.522  0.00  0.00    +0.000 C 
BRANCH  11  14
ATOM     14  O   UNL     1       4.596  -0.887  -3.025  0.00  0.00    +0.000 OA
ATOM     15  H   UNL     1       4.975  -0.656  -2.160  0.00  0.00    +0.000 HD
ENDBRANCH  11  14
ENDBRANCH   1   8
BRANCH   5  16
ATOM     16  C   UNL     1       4.434  -1.390   4.424  0.00  0.00    +0.000 C 
BRANCH  16  17
ATOM     17  C   UNL     1       4.684  -2.719   3.694  0.00  0.00    +0.000 C 
BRANCH  17  18
ATOM     18  N   UNL     1       5.134  -3.809   4.564  0.00  0.00    +0.000 N 
ATOM     19  C   UNL     1       5.334  -4.992   3.807  0.00  0.00    +0.000 A 
ATOM     20  C   UNL     1       5.746  -6.171   4.438  0.00  0.00    +0.000 A 
ATOM     21  N   UNL     1       5.963  -7.352   3.794  0.00  0.00    +0.000 NA
ATOM     22  C   UNL     1       5.757  -7.304   2.447  0.00  0.00    +0.000 A 
ATOM     23  C   UNL     1       5.362  -6.147   1.800  0.00  0.00    +0.000 A 
ATOM     24  N   UNL     1       5.148  -4.984   2.461  0.00  0.00    +0.000 NA
ATOM     25  H   UNL     1       4.458  -4.008   5.298  0.00  0.00    +0.000 HD
BRANCH  22  26
ATOM     26  C   UNL     1       5.968  -8.547   1.658  0.00  0.00    +0.000 C 
ATOM     27  N   UNL     1       6.377  -9.642   2.369  0.00  0.00    +0.000 N 
ATOM     28  O   UNL     1       5.787  -8.597   0.448  0.00  0.00    +0.000 OA
ATOM     29  H   UNL     1       6.530  -9.571   3.369  0.00  0.00    +0.000 HD
ATOM     30  H   UNL     1       6.545 -10.513   1.886  0.00  0.00    +0.000 HD
ENDBRANCH  22  26
ENDBRANCH  17  18
ENDBRANCH  16  17
ENDBRANCH   5  16
TORSDOF 6
