REMARK  Name = 
REMARK  8 active torsions:
REMARK  status: ('A' for Active; 'I' for Inactive)
REMARK    1  A    between atoms: C_2  and  C_3
REMARK    2  A    between atoms: C_3  and  C_4
REMARK    3  A    between atoms: C_4  and  N_5
REMARK    4  A    between atoms: C_4  and  C_18
REMARK    5  A    between atoms: C_6  and  C_8
REMARK    6  A    between atoms: C_21  and  O_22
REMARK    7  A    between atoms: O_22  and  C_23
REMARK    8  A    between atoms: C_23  and  C_24
REMARK                            x       y       z     vdW  Elec       q    Type
REMARK                         _______ _______ _______ _____ _____    ______ ____
ROOT
ATOM      1  C   UNL     1       4.328   0.199   1.204  0.00  0.00    +0.000 C 
ENDROOT
BRANCH   1   2
ATOM      2  C   UNL     1       5.844   0.226   1.273  0.00  0.00    +0.000 A 
ATOM      3  C   UNL     1       6.569  -0.975   1.346  0.00  0.00    +0.000 A 
ATOM      4  C   UNL     1       7.960  -0.954   1.446  0.00  0.00    +0.000 A 
ATOM      5  C   UNL     1       8.640   0.263   1.459  0.00  0.00    +0.000 A 
ATOM      6  C   UNL     1       7.923   1.458   1.417  0.00  0.00    +0.000 A 
ATOM      7  C   UNL     1       6.537   1.439   1.323  0.00  0.00    +0.000 A 
BRANCH   5   8
ATOM      8  O   UNL     1      10.004   0.190   1.527  0.00  0.00    +0.000 OA
BRANCH   8   9
ATOM      9  C   UNL     1      10.674   1.349   1.018  0.00  0.00    +0.000 C 
BRANCH   9  10
ATOM     10  C   UNL     1      12.112   1.059   0.675  0.00  0.00    +0.000 A 
ATOM     11  C   UNL     1      12.519  -0.215   0.289  0.00  0.00    +0.000 A 
ATOM     12  C   UNL     1      13.836  -0.403  -0.116  0.00  0.00    +0.000 A 
ATOM     13  C   UNL     1      14.702   0.682  -0.136  0.00  0.00    +0.000 A 
ATOM     14  C   UNL     1      14.218   1.917   0.259  0.00  0.00    +0.000 A 
ATOM     15  N   UNL     1      12.949   2.130   0.657  0.00  0.00    +0.000 NA
ENDBRANCH   9  10
ENDBRANCH   8   9
ENDBRANCH   5   8
ENDBRANCH   1   2
BRANCH   1  16
ATOM     16  N   UNL     1       3.818   0.361   2.549  0.00  0.00    +0.000 N 
ATOM     17  C   UNL     1       2.626  -0.212   2.929  0.00  0.00    +0.000 C 
ATOM     18  O   UNL     1       1.896  -0.789   2.132  0.00  0.00    +0.000 OA
ATOM     19  H   UNL     1       4.446   0.631   3.302  0.00  0.00    +0.000 HD
BRANCH  17  20
ATOM     20  C   UNL     1       2.339  -0.086   4.363  0.00  0.00    +0.000 A 
ATOM     21  N   UNL     1       3.361   0.059   5.225  0.00  0.00    +0.000 NA
ATOM     22  S   UNL     1       2.763   0.102   6.774  0.00  0.00    +0.000 S 
ATOM     23  C   UNL     1       1.120   0.002   6.335  0.00  0.00    +0.000 A 
ATOM     24  N   UNL     1       0.088   0.028   7.218  0.00  0.00    +0.000 NA
ATOM     25  C   UNL     1      -1.075  -0.044   6.657  0.00  0.00    +0.000 A 
ATOM     26  N   UNL     1      -1.291  -0.140   5.303  0.00  0.00    +0.000 N 
ATOM     27  C   UNL     1      -0.272  -0.097   4.371  0.00  0.00    +0.000 A 
ATOM     28  O   UNL     1      -0.523  -0.016   3.176  0.00  0.00    +0.000 OA
ATOM     29  C   UNL     1       1.039  -0.079   4.960  0.00  0.00    +0.000 A 
ATOM     30  H   UNL     1      -2.227  -0.140   4.924  0.00  0.00    +0.000 HD
ENDBRANCH  17  20
ENDBRANCH   1  16
BRANCH   1  31
ATOM     31  C   UNL     1       3.725   1.226   0.204  0.00  0.00    +0.000 C 
BRANCH  31  33
ATOM     32  N   UNL     1       4.631   0.426  -2.301  0.00  0.00    +0.000 NA
ATOM     33  C   UNL     1       4.220   0.789  -1.165  0.00  0.00    +0.000 C 
ENDBRANCH  31  33
ENDBRANCH   1  31
TORSDOF 8
