REMARK  Name = 
REMARK  10 active torsions:
REMARK  status: ('A' for Active; 'I' for Inactive)
REMARK    1  A    between atoms: C_2  and  C_3
REMARK    2  A    between atoms: C_3  and  N_4
REMARK    3  A    between atoms: C_3  and  C_21
REMARK    4  A    between atoms: N_4  and  C_5
REMARK    5  A    between atoms: C_5  and  C_6
REMARK    6  A    between atoms: C_9  and  C_10
REMARK    7  A    between atoms: C_10  and  C_11
REMARK    8  A    between atoms: C_10  and  C_13
REMARK    9  A    between atoms: C_11  and  O_12
REMARK   10  A    between atoms: C_13  and  C_14
REMARK                            x       y       z     vdW  Elec       q    Type
REMARK                         _______ _______ _______ _____ _____    ______ ____
ROOT
ATOM      1  C   UNL     1       1.918  -0.701  -1.097  0.00  0.00    +0.000 C 
ENDROOT
BRANCH   1   2
ATOM      2  C   UNL     1       0.416  -0.836  -1.042  0.00  0.00    +0.000 A 
ATOM      3  C   UNL     1      -0.256  -1.729  -1.888  0.00  0.00    +0.000 A 
ATOM      4  C   UNL     1      -1.646  -1.856  -1.834  0.00  0.00    +0.000 A 
ATOM      5  C   UNL     1      -2.394  -1.093  -0.920  0.00  0.00    +0.000 A 
ATOM      6  C   UNL     1      -1.713  -0.235  -0.052  0.00  0.00    +0.000 A 
ATOM      7  C   UNL     1      -0.327  -0.102  -0.112  0.00  0.00    +0.000 A 
BRANCH   5   8
ATOM      8  C   UNL     1      -3.915  -1.177  -0.910  0.00  0.00    +0.000 C 
BRANCH   8   9
ATOM      9  C   UNL     1      -4.453  -1.640   0.461  0.00  0.00    +0.000 C 
BRANCH   9  10
ATOM     10  O   UNL     1      -4.022  -2.962   0.782  0.00  0.00    +0.000 OA
ATOM     11  H   UNL     1      -4.234  -3.540   0.030  0.00  0.00    +0.000 HD
ENDBRANCH   9  10
ENDBRANCH   8   9
BRANCH   8  12
ATOM     12  C   UNL     1      -4.555   0.178  -1.333  0.00  0.00    +0.000 C 
BRANCH  12  13
ATOM     13  C   UNL     1      -4.191   0.607  -2.774  0.00  0.00    +0.000 C 
ATOM     14  C   UNL     1      -4.800   1.944  -3.197  0.00  0.00    +0.000 C 
ATOM     15  C   UNL     1      -5.989   1.567  -4.055  0.00  0.00    +0.000 C 
ATOM     16  N   UNL     1      -5.567   0.352  -4.753  0.00  0.00    +0.000 NA
ATOM     17  C   UNL     1      -4.713  -0.386  -3.817  0.00  0.00    +0.000 C 
ATOM     18  H   UNL     1      -5.009   0.612  -5.566  0.00  0.00    +0.000 HD
ENDBRANCH  12  13
ENDBRANCH   8  12
ENDBRANCH   5   8
ENDBRANCH   1   2
BRANCH   1  19
ATOM     19  N   UNL     1       2.370  -0.264  -2.424  0.00  0.00    +0.000 NA
ATOM     20  H   UNL     1       1.925   0.631  -2.629  0.00  0.00    +0.000 HD
BRANCH  19  21
ATOM     21  C   UNL     1       3.833  -0.069  -2.470  0.00  0.00    +0.000 C 
BRANCH  21  22
ATOM     22  C   UNL     1       4.184   0.284  -3.912  0.00  0.00    +0.000 A 
ATOM     23  C   UNL     1       4.381  -0.649  -4.922  0.00  0.00    +0.000 A 
ATOM     24  S   UNL     1       4.833   0.041  -6.416  0.00  0.00    +0.000 S 
ATOM     25  C   UNL     1       4.733   1.621  -5.786  0.00  0.00    +0.000 A 
ATOM     26  N   UNL     1       5.007   2.702  -6.561  0.00  0.00    +0.000 NA
ATOM     27  C   UNL     1       4.871   3.836  -5.960  0.00  0.00    +0.000 A 
ATOM     28  N   UNL     1       4.474   3.986  -4.655  0.00  0.00    +0.000 N 
ATOM     29  C   UNL     1       4.172   2.919  -3.833  0.00  0.00    +0.000 A 
ATOM     30  O   UNL     1       3.771   3.072  -2.685  0.00  0.00    +0.000 OA
ATOM     31  C   UNL     1       4.343   1.621  -4.456  0.00  0.00    +0.000 A 
ATOM     32  H   UNL     1       4.359   4.908  -4.262  0.00  0.00    +0.000 HD
ENDBRANCH  21  22
BRANCH  21  34
ATOM     33  N   UNL     1       5.159  -2.216  -1.649  0.00  0.00    +0.000 NA
ATOM     34  C   UNL     1       4.602  -1.273  -2.029  0.00  0.00    +0.000 C 
ENDBRANCH  21  34
ENDBRANCH  19  21
ENDBRANCH   1  19
TORSDOF 10
