REMARK  Name = 
REMARK  4 active torsions:
REMARK  status: ('A' for Active; 'I' for Inactive)
REMARK    1  A    between atoms: N_1  and  C_2
REMARK    2  A    between atoms: C_2  and  C_3
REMARK    3  A    between atoms: C_7  and  C_8
REMARK    4  A    between atoms: C_8  and  N_9
REMARK                            x       y       z     vdW  Elec       q    Type
REMARK                         _______ _______ _______ _____ _____    ______ ____
ROOT
ATOM      1  C   UNL     1       3.528  -2.021  -1.328  0.00  0.00    +0.000 A 
ATOM      2  C   UNL     1       4.422  -1.669  -0.321  0.00  0.00    +0.000 A 
ATOM      3  C   UNL     1       4.472  -2.444   0.829  0.00  0.00    +0.000 A 
ATOM      4  C   UNL     1       3.623  -3.540   0.953  0.00  0.00    +0.000 A 
ATOM      5  C   UNL     1       2.740  -3.833  -0.085  0.00  0.00    +0.000 A 
ATOM      6  N   UNL     1       2.692  -3.087  -1.222  0.00  0.00    +0.000 NA
ENDROOT
BRANCH   1   7
ATOM      7  C   UNL     1       3.474  -1.215  -2.609  0.00  0.00    +0.000 C 
BRANCH   7   8
ATOM      8  N   UNL     1       4.747  -1.230  -3.336  0.00  0.00    +0.000 NA
ATOM      9  H   UNL     1       4.598  -0.838  -4.264  0.00  0.00    +0.000 HD
ATOM     10  H   UNL     1       5.011  -2.206  -3.483  0.00  0.00    +0.000 HD
ENDBRANCH   7   8
ENDBRANCH   1   7
BRANCH   5  11
ATOM     11  C   UNL     1       1.727  -4.937   0.051  0.00  0.00    +0.000 C 
BRANCH  11  12
ATOM     12  N   UNL     1       2.336  -6.255   0.152  0.00  0.00    +0.000 N 
ATOM     13  N   UNL     1       2.603  -6.767   1.380  0.00  0.00    +0.000 NA
ATOM     14  C   UNL     1       2.968  -8.024   1.123  0.00  0.00    +0.000 A 
ATOM     15  C   UNL     1       2.932  -8.336  -0.253  0.00  0.00    +0.000 A 
ATOM     16  C   UNL     1       3.179  -9.479  -1.034  0.00  0.00    +0.000 A 
ATOM     17  C   UNL     1       3.018  -9.397  -2.422  0.00  0.00    +0.000 A 
ATOM     18  C   UNL     1       2.629  -8.201  -3.025  0.00  0.00    +0.000 A 
ATOM     19  C   UNL     1       2.381  -7.053  -2.263  0.00  0.00    +0.000 A 
ATOM     20  C   UNL     1       2.533  -7.155  -0.873  0.00  0.00    +0.000 A 
ENDBRANCH  11  12
ENDBRANCH   5  11
TORSDOF 4
