REMARK  Name = 
REMARK  9 active torsions:
REMARK  status: ('A' for Active; 'I' for Inactive)
REMARK    1  A    between atoms: C_1  and  C_2
REMARK    2  A    between atoms: C_2  and  C_3
REMARK    3  A    between atoms: C_3  and  N_4
REMARK    4  A    between atoms: C_3  and  C_26
REMARK    5  A    between atoms: N_4  and  C_5
REMARK    6  A    between atoms: C_5  and  C_6
REMARK    7  A    between atoms: C_9  and  C_10
REMARK    8  A    between atoms: C_10  and  N_11
REMARK    9  A    between atoms: C_12  and  C_14
REMARK                            x       y       z     vdW  Elec       q    Type
REMARK                         _______ _______ _______ _____ _____    ______ ____
ROOT
ATOM      1  C   UNL     1       0.604   3.565  -0.996  0.00  0.00    +0.000 C 
ATOM      2  C   UNL     1       1.413   4.687  -1.669  0.00  0.00    +0.000 C 
ATOM      3  C   UNL     1       0.874   6.073  -1.326  0.00  0.00    +0.000 C 
ATOM      4  C   UNL     1       0.830   6.310   0.192  0.00  0.00    +0.000 C 
ATOM      5  C   UNL     1       0.003   5.216   0.879  0.00  0.00    +0.000 C 
ATOM      6  C   UNL     1       0.486   3.806   0.526  0.00  0.00    +0.000 C 
ENDROOT
BRANCH   1   7
ATOM      7  C   UNL     1      -0.810   3.387  -1.585  0.00  0.00    +0.000 C 
BRANCH   7   8
ATOM      8  N   UNL     1      -0.818   3.130  -3.028  0.00  0.00    +0.000 NA
ATOM      9  H   UNL     1      -0.357   3.895  -3.514  0.00  0.00    +0.000 HD
BRANCH   8  10
ATOM     10  C   UNL     1      -2.194   3.001  -3.566  0.00  0.00    +0.000 C 
BRANCH  10  11
ATOM     11  C   UNL     1      -2.952   1.825  -2.940  0.00  0.00    +0.000 A 
ATOM     12  C   UNL     1      -2.694   0.523  -3.368  0.00  0.00    +0.000 A 
ATOM     13  C   UNL     1      -3.327  -0.536  -2.719  0.00  0.00    +0.000 A 
ATOM     14  C   UNL     1      -4.177  -0.271  -1.652  0.00  0.00    +0.000 A 
ATOM     15  C   UNL     1      -4.369   1.046  -1.278  0.00  0.00    +0.000 A 
ATOM     16  N   UNL     1      -3.784   2.091  -1.897  0.00  0.00    +0.000 NA
ENDBRANCH  10  11
BRANCH  10  18
ATOM     17  C   UNL     1      -2.401   5.508  -4.173  0.00  0.00    +0.000 C 
ATOM     18  C   UNL     1      -3.037   4.301  -3.500  0.00  0.00    +0.000 C 
ENDBRANCH  10  18
ENDBRANCH   8  10
ENDBRANCH   7   8
ENDBRANCH   1   7
BRANCH   4  19
ATOM     19  C   UNL     1       2.238   6.397   0.807  0.00  0.00    +0.000 C 
BRANCH  19  20
ATOM     20  N   UNL     1       2.944   7.534   0.276  0.00  0.00    +0.000 N 
ATOM     21  C   UNL     1       4.156   7.477  -0.359  0.00  0.00    +0.000 C 
ATOM     22  O   UNL     1       4.743   6.428  -0.606  0.00  0.00    +0.000 OA
ATOM     23  H   UNL     1       2.572   8.435   0.544  0.00  0.00    +0.000 HD
BRANCH  21  24
ATOM     24  C   UNL     1       4.667   8.776  -0.805  0.00  0.00    +0.000 A 
ATOM     25  C   UNL     1       5.502   8.870  -1.906  0.00  0.00    +0.000 A 
ATOM     26  S   UNL     1       5.882  10.482  -2.329  0.00  0.00    +0.000 S 
ATOM     27  C   UNL     1       4.976  11.099  -1.024  0.00  0.00    +0.000 A 
ATOM     28  N   UNL     1       4.854  12.439  -0.818  0.00  0.00    +0.000 NA
ATOM     29  C   UNL     1       4.155  12.759   0.220  0.00  0.00    +0.000 A 
ATOM     30  N   UNL     1       3.580  11.860   1.083  0.00  0.00    +0.000 N 
ATOM     31  C   UNL     1       3.663  10.504   0.907  0.00  0.00    +0.000 A 
ATOM     32  O   UNL     1       3.098   9.734   1.676  0.00  0.00    +0.000 OA
ATOM     33  C   UNL     1       4.416  10.093  -0.265  0.00  0.00    +0.000 A 
ATOM     34  H   UNL     1       3.045  12.171   1.881  0.00  0.00    +0.000 HD
ENDBRANCH  21  24
ENDBRANCH  19  20
ENDBRANCH   4  19
TORSDOF 8
