REMARK  Name = 
REMARK  6 active torsions:
REMARK  status: ('A' for Active; 'I' for Inactive)
REMARK    1  A    between atoms: C_1  and  C_2
REMARK    2  A    between atoms: C_2  and  C_3
REMARK    3  A    between atoms: C_2  and  C_14
REMARK    4  A    between atoms: C_3  and  N_4
REMARK    5  A    between atoms: N_4  and  C_5
REMARK    6  A    between atoms: C_8  and  C_9
REMARK                            x       y       z     vdW  Elec       q    Type
REMARK                         _______ _______ _______ _____ _____    ______ ____
ROOT
ATOM      1  N   UNL     1       2.719  -0.139  -2.543  0.00  0.00    +0.000 N 
ATOM      2  H   UNL     1       1.713  -0.278  -2.624  0.00  0.00    +0.000 HD
ENDROOT
BRANCH   1   3
ATOM      3  C   UNL     1       3.268   0.324  -3.747  0.00  0.00    +0.000 A 
ATOM      4  C   UNL     1       2.605   0.062  -4.951  0.00  0.00    +0.000 A 
ATOM      5  C   UNL     1       3.151   0.476  -6.166  0.00  0.00    +0.000 A 
ATOM      6  C   UNL     1       4.382   1.116  -6.143  0.00  0.00    +0.000 A 
ATOM      7  N   UNL     1       5.095   1.344  -5.011  0.00  0.00    +0.000 NA
ATOM      8  C   UNL     1       4.526   0.922  -3.858  0.00  0.00    +0.000 A 
BRANCH   6   9
ATOM      9  C   UNL     1       4.998   1.600  -7.419  0.00  0.00    +0.000 C 
ATOM     10  N   UNL     1       6.208   2.226  -7.279  0.00  0.00    +0.000 N 
ATOM     11  O   UNL     1       4.463   1.459  -8.510  0.00  0.00    +0.000 OA
ATOM     12  H   UNL     1       6.614   2.318  -6.354  0.00  0.00    +0.000 HD
ATOM     13  H   UNL     1       6.686   2.580  -8.094  0.00  0.00    +0.000 HD
ENDBRANCH   6   9
ENDBRANCH   1   3
BRANCH   1  14
ATOM     14  C   UNL     1       3.046   0.615  -1.333  0.00  0.00    +0.000 C 
BRANCH  14  16
ATOM     15  C   UNL     1       2.766  -1.315   0.341  0.00  0.00    +0.000 C 
ATOM     16  C   UNL     1       2.291  -0.002  -0.196  0.00  0.00    +0.000 C 
BRANCH  16  17
ATOM     17  C   UNL     1       0.895   0.410   0.005  0.00  0.00    +0.000 A 
ATOM     18  C   UNL     1       0.568   1.749   0.247  0.00  0.00    +0.000 A 
ATOM     19  C   UNL     1      -0.770   2.144   0.330  0.00  0.00    +0.000 A 
ATOM     20  C   UNL     1      -1.786   1.204   0.169  0.00  0.00    +0.000 A 
ATOM     21  C   UNL     1      -1.469  -0.134  -0.045  0.00  0.00    +0.000 A 
ATOM     22  C   UNL     1      -0.134  -0.531  -0.115  0.00  0.00    +0.000 A 
ENDBRANCH  16  17
ENDBRANCH  14  16
ENDBRANCH   1  14
TORSDOF 5
