REMARK  Name = 
REMARK  5 active torsions:
REMARK  status: ('A' for Active; 'I' for Inactive)
REMARK    1  A    between atoms: N_1  and  C_2
REMARK    2  A    between atoms: C_2  and  C_3
REMARK    3  A    between atoms: C_3  and  C_4
REMARK    4  A    between atoms: C_6  and  C_7
REMARK    5  A    between atoms: C_7  and  N_8
REMARK                            x       y       z     vdW  Elec       q    Type
REMARK                         _______ _______ _______ _____ _____    ______ ____
ROOT
ATOM      1  C   UNL     1       4.417   1.353   0.499  0.00  0.00    +0.000 C 
ATOM      2  C   UNL     1       5.123   1.231   1.638  0.00  0.00    +0.000 C 
ATOM      3  C   UNL     1       6.632   1.300   1.693  0.00  0.00    +0.000 C 
ATOM      4  C   UNL     1       7.188   1.685   0.312  0.00  0.00    +0.000 C 
ATOM      5  C   UNL     1       6.369   1.044  -0.792  0.00  0.00    +0.000 C 
ATOM      6  O   UNL     1       5.011   1.488  -0.741  0.00  0.00    +0.000 OA
ENDROOT
BRANCH   1   7
ATOM      7  C   UNL     1       2.910   1.377   0.455  0.00  0.00    +0.000 C 
BRANCH   7   8
ATOM      8  C   UNL     1       2.348   0.237  -0.401  0.00  0.00    +0.000 C 
BRANCH   8   9
ATOM      9  N   UNL     1       0.885   0.277  -0.453  0.00  0.00    +0.000 NA
ATOM     10  H   UNL     1       0.557  -0.474  -1.060  0.00  0.00    +0.000 HD
ATOM     11  H   UNL     1       0.590   1.145  -0.901  0.00  0.00    +0.000 HD
ENDBRANCH   8   9
ENDBRANCH   7   8
ENDBRANCH   1   7
BRANCH   3  12
ATOM     12  C   UNL     1       7.090   2.276   2.800  0.00  0.00    +0.000 C 
BRANCH  12  13
ATOM     13  N   UNL     1       8.534   2.367   2.965  0.00  0.00    +0.000 N 
ATOM     14  C   UNL     1       9.266   1.560   3.801  0.00  0.00    +0.000 A 
ATOM     15  C   UNL     1      10.595   1.872   3.639  0.00  0.00    +0.000 A 
ATOM     16  C   UNL     1      10.680   2.921   2.683  0.00  0.00    +0.000 A 
ATOM     17  C   UNL     1      11.755   3.614   2.093  0.00  0.00    +0.000 A 
ATOM     18  C   UNL     1      11.481   4.625   1.175  0.00  0.00    +0.000 A 
ATOM     19  F   UNL     1      12.500   5.258   0.577  0.00  0.00    +0.000 F 
ATOM     20  C   UNL     1      10.180   4.994   0.865  0.00  0.00    +0.000 A 
ATOM     21  C   UNL     1       9.099   4.332   1.452  0.00  0.00    +0.000 A 
ATOM     22  C   UNL     1       9.370   3.267   2.328  0.00  0.00    +0.000 A 
ENDBRANCH  12  13
ENDBRANCH   3  12
TORSDOF 5
