REMARK  Name = 
REMARK  7 active torsions:
REMARK  status: ('A' for Active; 'I' for Inactive)
REMARK    1  A    between atoms: C_1  and  C_2
REMARK    2  A    between atoms: C_2  and  C_3
REMARK    3  A    between atoms: C_7  and  C_8
REMARK    4  A    between atoms: C_8  and  C_9
REMARK    5  A    between atoms: C_9  and  N_10
REMARK    6  A    between atoms: C_14  and  C_15
REMARK    7  A    between atoms: C_23  and  O_24
REMARK                            x       y       z     vdW  Elec       q    Type
REMARK                         _______ _______ _______ _____ _____    ______ ____
ROOT
ATOM      1  C   UNL     1       2.878   0.354   1.448  0.00  0.00    +0.000 A 
ATOM      2  C   UNL     1       2.614   1.624   1.980  0.00  0.00    +0.000 A 
ATOM      3  C   UNL     1       2.923   1.928   3.308  0.00  0.00    +0.000 A 
ATOM      4  C   UNL     1       3.488   0.961   4.144  0.00  0.00    +0.000 A 
ATOM      5  C   UNL     1       3.765  -0.317   3.651  0.00  0.00    +0.000 A 
ATOM      6  C   UNL     1       3.489  -0.576   2.297  0.00  0.00    +0.000 A 
ENDROOT
BRANCH   1   8
ATOM      7  C   UNL     1       0.860   0.061   0.052  0.00  0.00    +0.000 C 
ATOM      8  C   UNL     1       2.405  -0.037   0.031  0.00  0.00    +0.000 C 
ATOM      9  C   UNL     1       3.010   0.930  -1.020  0.00  0.00    +0.000 C 
ATOM     10  C   UNL     1       2.651   0.563  -2.461  0.00  0.00    +0.000 C 
ATOM     11  C   UNL     1       3.021  -0.878  -2.801  0.00  0.00    +0.000 C 
ATOM     12  C   UNL     1       2.435  -1.867  -1.802  0.00  0.00    +0.000 C 
ATOM     13  C   UNL     1       2.806  -1.492  -0.372  0.00  0.00    +0.000 C 
BRANCH  11  14
ATOM     14  O   UNL     1       2.555  -1.194  -4.108  0.00  0.00    +0.000 OA
ATOM     15  H   UNL     1       1.583  -1.177  -4.093  0.00  0.00    +0.000 HD
ENDBRANCH  11  14
ENDBRANCH   1   8
BRANCH   5  16
ATOM     16  C   UNL     1       4.285  -1.410   4.575  0.00  0.00    +0.000 C 
BRANCH  16  17
ATOM     17  C   UNL     1       4.521  -2.754   3.864  0.00  0.00    +0.000 C 
BRANCH  17  18
ATOM     18  N   UNL     1       4.976  -3.824   4.758  0.00  0.00    +0.000 N 
ATOM     19  C   UNL     1       5.178  -5.026   4.035  0.00  0.00    +0.000 A 
ATOM     20  C   UNL     1       5.621  -6.181   4.692  0.00  0.00    +0.000 A 
ATOM     21  N   UNL     1       5.847  -7.377   4.078  0.00  0.00    +0.000 NA
ATOM     22  C   UNL     1       5.615  -7.372   2.736  0.00  0.00    +0.000 A 
ATOM     23  C   UNL     1       5.180  -6.242   2.067  0.00  0.00    +0.000 A 
ATOM     24  N   UNL     1       4.963  -5.062   2.698  0.00  0.00    +0.000 NA
ATOM     25  H   UNL     1       4.301  -4.003   5.498  0.00  0.00    +0.000 HD
BRANCH  22  26
ATOM     26  C   UNL     1       5.835  -8.633   1.978  0.00  0.00    +0.000 C 
ATOM     27  N   UNL     1       6.278  -9.716   2.684  0.00  0.00    +0.000 N 
ATOM     28  O   UNL     1       5.626  -8.707   0.769  0.00  0.00    +0.000 OA
ATOM     29  H   UNL     1       6.448  -9.658   3.682  0.00  0.00    +0.000 HD
ATOM     30  H   UNL     1       6.430 -10.586   2.192  0.00  0.00    +0.000 HD
ENDBRANCH  22  26
ENDBRANCH  17  18
ENDBRANCH  16  17
ENDBRANCH   5  16
TORSDOF 6
