REMARK  Name = 
REMARK  7 active torsions:
REMARK  status: ('A' for Active; 'I' for Inactive)
REMARK    1  A    between atoms: C_1  and  C_2
REMARK    2  A    between atoms: C_2  and  C_3
REMARK    3  A    between atoms: C_2  and  C_14
REMARK    4  A    between atoms: C_3  and  N_4
REMARK    5  A    between atoms: N_4  and  C_5
REMARK    6  A    between atoms: C_8  and  C_9
REMARK    7  A    between atoms: C_18  and  C_19
REMARK                            x       y       z     vdW  Elec       q    Type
REMARK                         _______ _______ _______ _____ _____    ______ ____
ROOT
ATOM      1  C   UNL     1       3.201  -0.678  -1.311  0.00  0.00    +0.000 C 
ENDROOT
BRANCH   1   3
ATOM      2  C   UNL     1       2.811  -0.399   1.213  0.00  0.00    +0.000 C 
ATOM      3  C   UNL     1       2.406  -0.077  -0.192  0.00  0.00    +0.000 C 
BRANCH   3   4
ATOM      4  C   UNL     1       1.067   0.454  -0.476  0.00  0.00    +0.000 A 
ATOM      5  C   UNL     1       0.874   1.424  -1.467  0.00  0.00    +0.000 A 
ATOM      6  C   UNL     1      -0.410   1.876  -1.776  0.00  0.00    +0.000 A 
ATOM      7  C   UNL     1      -1.516   1.350  -1.108  0.00  0.00    +0.000 A 
ATOM      8  C   UNL     1      -1.344   0.378  -0.113  0.00  0.00    +0.000 A 
ATOM      9  C   UNL     1      -0.044  -0.047   0.207  0.00  0.00    +0.000 A 
BRANCH   8  10
ATOM     10  C   UNL     1      -2.517  -0.245   0.599  0.00  0.00    +0.000 C 
ATOM     11  F   UNL     1      -3.725   0.199   0.156  0.00  0.00    +0.000 F 
ATOM     12  F   UNL     1      -2.543  -1.600   0.455  0.00  0.00    +0.000 F 
ATOM     13  F   UNL     1      -2.498  -0.012   1.940  0.00  0.00    +0.000 F 
ENDBRANCH   8  10
ENDBRANCH   3   4
ENDBRANCH   1   3
BRANCH   1  14
ATOM     14  N   UNL     1       2.851  -2.094  -1.383  0.00  0.00    +0.000 N 
ATOM     15  H   UNL     1       1.842  -2.227  -1.345  0.00  0.00    +0.000 HD
BRANCH  14  16
ATOM     16  C   UNL     1       3.421  -2.857  -2.413  0.00  0.00    +0.000 A 
ATOM     17  C   UNL     1       4.685  -2.588  -2.947  0.00  0.00    +0.000 A 
ATOM     18  C   UNL     1       5.238  -3.401  -3.940  0.00  0.00    +0.000 A 
ATOM     19  C   UNL     1       4.555  -4.531  -4.389  0.00  0.00    +0.000 A 
ATOM     20  C   UNL     1       3.312  -4.846  -3.834  0.00  0.00    +0.000 A 
ATOM     21  C   UNL     1       2.765  -4.021  -2.841  0.00  0.00    +0.000 A 
BRANCH  19  22
ATOM     22  C   UNL     1       5.191  -5.348  -5.456  0.00  0.00    +0.000 C 
ATOM     23  N   UNL     1       4.834  -6.663  -5.547  0.00  0.00    +0.000 N 
ATOM     24  O   UNL     1       6.035  -4.875  -6.207  0.00  0.00    +0.000 OA
ATOM     25  H   UNL     1       4.343  -7.146  -4.809  0.00  0.00    +0.000 HD
ATOM     26  H   UNL     1       5.372  -7.221  -6.198  0.00  0.00    +0.000 HD
ENDBRANCH  19  22
ENDBRANCH  14  16
ENDBRANCH   1  14
TORSDOF 6
