REMARK  Name = 
REMARK  9 active torsions:
REMARK  status: ('A' for Active; 'I' for Inactive)
REMARK    1  A    between atoms: C_1  and  C_2
REMARK    2  A    between atoms: C_2  and  O_3
REMARK    3  A    between atoms: O_3  and  C_4
REMARK    4  A    between atoms: C_8  and  C_9
REMARK    5  A    between atoms: C_9  and  C_10
REMARK    6  A    between atoms: C_10  and  N_11
REMARK    7  A    between atoms: C_15  and  C_16
REMARK    8  A    between atoms: C_24  and  C_25
REMARK    9  A    between atoms: C_25  and  O_26
REMARK                            x       y       z     vdW  Elec       q    Type
REMARK                         _______ _______ _______ _____ _____    ______ ____
ROOT
ATOM      1  C   UNL     1       0.476   0.037   1.340  0.00  0.00    +0.000 A 
ATOM      2  C   UNL     1       1.099   0.063   2.581  0.00  0.00    +0.000 A 
ATOM      3  C   UNL     1       0.385   0.472   3.711  0.00  0.00    +0.000 A 
ATOM      4  C   UNL     1      -0.966   0.816   3.612  0.00  0.00    +0.000 A 
ATOM      5  C   UNL     1      -1.630   0.730   2.383  0.00  0.00    +0.000 A 
ATOM      6  C   UNL     1      -0.887   0.324   1.257  0.00  0.00    +0.000 A 
ENDROOT
BRANCH   1   7
ATOM      7  O   UNL     1       1.089  -0.237   0.137  0.00  0.00    +0.000 OA
BRANCH   7   9
ATOM      8  C   UNL     1       3.315  -1.209   0.219  0.00  0.00    +0.000 C 
ATOM      9  C   UNL     1       2.505   0.057  -0.034  0.00  0.00    +0.000 C 
ATOM     10  C   UNL     1       3.078   1.338   0.625  0.00  0.00    +0.000 C 
ATOM     11  O   UNL     1       3.706   1.761  -0.607  0.00  0.00    +0.000 OA
ATOM     12  C   UNL     1       2.868   0.829  -1.358  0.00  0.00    +0.000 C 
BRANCH  12  13
ATOM     13  C   UNL     1       3.690   0.189  -2.473  0.00  0.00    +0.000 C 
BRANCH  13  14
ATOM     14  O   UNL     1       4.171   1.203  -3.360  0.00  0.00    +0.000 OA
ATOM     15  H   UNL     1       4.662   1.838  -2.803  0.00  0.00    +0.000 HD
ENDBRANCH  13  14
ENDBRANCH  12  13
ENDBRANCH   7   9
ENDBRANCH   1   7
BRANCH   5  16
ATOM     16  C   UNL     1      -3.105   1.100   2.305  0.00  0.00    +0.000 C 
BRANCH  16  17
ATOM     17  C   UNL     1      -3.688   0.927   0.902  0.00  0.00    +0.000 C 
BRANCH  17  18
ATOM     18  N   UNL     1      -5.102   1.296   0.791  0.00  0.00    +0.000 N 
ATOM     19  C   UNL     1      -5.540   1.115  -0.545  0.00  0.00    +0.000 A 
ATOM     20  C   UNL     1      -6.854   1.416  -0.873  0.00  0.00    +0.000 A 
ATOM     21  C   UNL     1      -7.281   1.243  -2.197  0.00  0.00    +0.000 A 
ATOM     22  C   UNL     1      -6.389   0.776  -3.162  0.00  0.00    +0.000 A 
ATOM     23  C   UNL     1      -5.107   0.487  -2.746  0.00  0.00    +0.000 A 
ATOM     24  N   UNL     1      -4.678   0.647  -1.472  0.00  0.00    +0.000 NA
ATOM     25  H   UNL     1      -5.264   2.268   1.041  0.00  0.00    +0.000 HD
BRANCH  22  26
ATOM     26  C   UNL     1      -6.833   0.619  -4.566  0.00  0.00    +0.000 C 
ATOM     27  N   UNL     1      -5.940   0.180  -5.504  0.00  0.00    +0.000 N 
ATOM     28  O   UNL     1      -7.983   0.887  -4.892  0.00  0.00    +0.000 OA
ATOM     29  H   UNL     1      -4.974  -0.058  -5.348  0.00  0.00    +0.000 HD
ATOM     30  H   UNL     1      -6.286   0.110  -6.456  0.00  0.00    +0.000 HD
ENDBRANCH  22  26
ENDBRANCH  17  18
ENDBRANCH  16  17
ENDBRANCH   5  16
TORSDOF 8
