REMARK  Name = 
REMARK  6 active torsions:
REMARK  status: ('A' for Active; 'I' for Inactive)
REMARK    1  A    between atoms: C_1  and  O_2
REMARK    2  A    between atoms: O_2  and  C_3
REMARK    3  A    between atoms: C_6  and  O_7
REMARK    4  A    between atoms: O_7  and  C_8
REMARK    5  A    between atoms: C_8  and  C_9
REMARK    6  A    between atoms: C_16  and  C_17
REMARK                            x       y       z     vdW  Elec       q    Type
REMARK                         _______ _______ _______ _____ _____    ______ ____
ROOT
ATOM      1  C   UNL     1       3.097   0.835  -0.952  0.00  0.00    +0.000 A 
ATOM      2  C   UNL     1       2.740   2.182  -1.116  0.00  0.00    +0.000 A 
ATOM      3  C   UNL     1       3.421   2.995  -2.028  0.00  0.00    +0.000 A 
ATOM      4  C   UNL     1       4.470   2.481  -2.782  0.00  0.00    +0.000 A 
ATOM      5  C   UNL     1       4.871   1.162  -2.581  0.00  0.00    +0.000 A 
ATOM      6  C   UNL     1       4.179   0.320  -1.693  0.00  0.00    +0.000 A 
ENDROOT
BRANCH   6   7
ATOM      7  C   UNL     1       4.642  -1.103  -1.671  0.00  0.00    +0.000 C 
ATOM      8  N   UNL     1       3.979  -1.991  -0.876  0.00  0.00    +0.000 N 
ATOM      9  O   UNL     1       5.576  -1.488  -2.365  0.00  0.00    +0.000 OA
ATOM     10  H   UNL     1       3.224  -1.695  -0.270  0.00  0.00    +0.000 HD
ATOM     11  H   UNL     1       4.282  -2.953  -0.874  0.00  0.00    +0.000 HD
ENDBRANCH   6   7
BRANCH   1  13
ATOM     12  C   UNL     1       1.112   0.304   0.257  0.00  0.00    +0.000 C 
ATOM     13  O   UNL     1       2.470   0.007  -0.054  0.00  0.00    +0.000 OA
ENDBRANCH   1  13
BRANCH   4  14
ATOM     14  O   UNL     1       5.033   3.336  -3.690  0.00  0.00    +0.000 OA
BRANCH  14  15
ATOM     15  C   UNL     1       5.687   2.690  -4.793  0.00  0.00    +0.000 C 
BRANCH  15  16
ATOM     16  C   UNL     1       5.760   3.578  -6.013  0.00  0.00    +0.000 A 
ATOM     17  C   UNL     1       4.798   4.555  -6.259  0.00  0.00    +0.000 A 
ATOM     18  C   UNL     1       4.854   5.271  -7.452  0.00  0.00    +0.000 A 
ATOM     19  C   UNL     1       5.854   4.985  -8.372  0.00  0.00    +0.000 A 
ATOM     20  C   UNL     1       6.767   3.993  -8.059  0.00  0.00    +0.000 A 
ATOM     21  N   UNL     1       6.740   3.287  -6.909  0.00  0.00    +0.000 NA
ENDBRANCH  15  16
ENDBRANCH  14  15
ENDBRANCH   4  14
TORSDOF 5
