REMARK  Name = 
REMARK  7 active torsions:
REMARK  status: ('A' for Active; 'I' for Inactive)
REMARK    1  A    between atoms: C_1  and  N_2
REMARK    2  A    between atoms: N_2  and  C_3
REMARK    3  A    between atoms: C_4  and  C_6
REMARK    4  A    between atoms: N_10  and  C_11
REMARK    5  A    between atoms: C_11  and  C_12
REMARK    6  A    between atoms: C_15  and  O_16
REMARK    7  A    between atoms: O_16  and  C_17
REMARK                            x       y       z     vdW  Elec       q    Type
REMARK                         _______ _______ _______ _____ _____    ______ ____
ROOT
ATOM      1  C   UNL     1       9.566   0.791   2.159  0.00  0.00    +0.000 C 
ATOM      2  C   UNL     1       9.581  -0.287   3.243  0.00  0.00    +0.000 C 
ATOM      3  C   UNL     1       9.058   1.077   3.559  0.00  0.00    +0.000 C 
ENDROOT
BRANCH   1   8
ATOM      4  C   UNL     1       5.865   3.135  -0.518  0.00  0.00    +0.000 A 
ATOM      5  C   UNL     1       6.655   2.318  -1.285  0.00  0.00    +0.000 A 
ATOM      6  N   UNL     1       7.593   1.487  -0.779  0.00  0.00    +0.000 NA
ATOM      7  C   UNL     1       7.794   1.519   0.547  0.00  0.00    +0.000 A 
ATOM      8  N   UNL     1       8.664   0.542   1.029  0.00  0.00    +0.000 N 
ATOM      9  N   UNL     1       7.157   2.368   1.371  0.00  0.00    +0.000 NA
ATOM     10  C   UNL     1       6.202   3.162   0.817  0.00  0.00    +0.000 A 
ATOM     11  H   UNL     1       9.080   0.125   0.202  0.00  0.00    +0.000 HD
BRANCH   4  15
ATOM     12  C   UNL     1       2.850   4.405  -2.458  0.00  0.00    +0.000 C 
ATOM     13  N   UNL     1       3.938   3.520  -2.070  0.00  0.00    +0.000 N 
ATOM     14  C   UNL     1       3.853   2.140  -2.536  0.00  0.00    +0.000 C 
ATOM     15  C   UNL     1       4.774   3.977  -1.042  0.00  0.00    +0.000 C 
ATOM     16  O   UNL     1       4.621   5.075  -0.509  0.00  0.00    +0.000 OA
ENDBRANCH   4  15
ENDBRANCH   1   8
BRANCH   1  17
ATOM     17  C   UNL     1      10.896   1.418   1.756  0.00  0.00    +0.000 A 
ATOM     18  C   UNL     1      11.027   2.810   1.619  0.00  0.00    +0.000 A 
ATOM     19  C   UNL     1      12.260   3.408   1.335  0.00  0.00    +0.000 A 
ATOM     20  C   UNL     1      13.402   2.622   1.214  0.00  0.00    +0.000 A 
ATOM     21  C   UNL     1      13.277   1.234   1.252  0.00  0.00    +0.000 A 
ATOM     22  C   UNL     1      12.040   0.640   1.514  0.00  0.00    +0.000 A 
BRANCH  20  23
ATOM     23  O   UNL     1      14.665   3.083   1.008  0.00  0.00    +0.000 OA
BRANCH  23  24
ATOM     24  C   UNL     1      15.052   4.314   1.606  0.00  0.00    +0.000 C 
ATOM     25  F   UNL     1      14.146   4.830   2.464  0.00  0.00    +0.000 F 
ATOM     26  F   UNL     1      16.200   4.116   2.293  0.00  0.00    +0.000 F 
ATOM     27  F   UNL     1      15.296   5.220   0.635  0.00  0.00    +0.000 F 
ENDBRANCH  23  24
ENDBRANCH  20  23
ENDBRANCH   1  17
TORSDOF 5
