REMARK  Name = 
REMARK  6 active torsions:
REMARK  status: ('A' for Active; 'I' for Inactive)
REMARK    1  A    between atoms: C_2  and  C_25
REMARK    2  A    between atoms: N_3  and  C_4
REMARK    3  A    between atoms: C_4  and  C_5
REMARK    4  A    between atoms: C_8  and  C_9
REMARK    5  A    between atoms: C_9  and  N_10
REMARK    6  A    between atoms: C_11  and  C_13
REMARK                            x       y       z     vdW  Elec       q    Type
REMARK                         _______ _______ _______ _____ _____    ______ ____
ROOT
ATOM      1  C   UNL     1       3.251  -3.229  -1.828  0.00  0.00    +0.000 A 
ATOM      2  C   UNL     1       4.488  -2.848  -2.366  0.00  0.00    +0.000 A 
ATOM      3  C   UNL     1       5.382  -3.809  -2.849  0.00  0.00    +0.000 A 
ATOM      4  C   UNL     1       5.049  -5.170  -2.823  0.00  0.00    +0.000 A 
ATOM      5  C   UNL     1       3.817  -5.551  -2.275  0.00  0.00    +0.000 A 
ATOM      6  C   UNL     1       2.923  -4.590  -1.793  0.00  0.00    +0.000 A 
ENDROOT
BRANCH   1   7
ATOM      7  C   UNL     1       2.294  -2.198  -1.293  0.00  0.00    +0.000 C 
BRANCH   7  10
ATOM      8  O   UNL     1       0.282  -0.310  -0.851  0.00  0.00    +0.000 OA
ATOM      9  C   UNL     1       0.407  -0.790  -1.973  0.00  0.00    +0.000 C 
ATOM     10  N   UNL     1       1.363  -1.733  -2.288  0.00  0.00    +0.000 N 
ATOM     11  H   UNL     1       1.408  -2.061  -3.250  0.00  0.00    +0.000 HD
BRANCH   9  12
ATOM     12  C   UNL     1      -0.485  -0.370  -3.102  0.00  0.00    +0.000 A 
ATOM     13  C   UNL     1      -1.445   0.614  -2.881  0.00  0.00    +0.000 A 
ATOM     14  C   UNL     1      -2.264   0.990  -3.941  0.00  0.00    +0.000 A 
ATOM     15  C   UNL     1      -2.097   0.373  -5.177  0.00  0.00    +0.000 A 
ATOM     16  C   UNL     1      -1.114  -0.600  -5.306  0.00  0.00    +0.000 A 
ATOM     17  N   UNL     1      -0.297  -0.989  -4.300  0.00  0.00    +0.000 NA
ENDBRANCH   9  12
ENDBRANCH   7  10
ENDBRANCH   1   7
BRANCH   4  18
ATOM     18  C   UNL     1       6.010  -6.213  -3.334  0.00  0.00    +0.000 C 
BRANCH  18  19
ATOM     19  N   UNL     1       6.886  -6.673  -2.287  0.00  0.00    +0.000 N 
ATOM     20  C   UNL     1       7.899  -7.562  -2.539  0.00  0.00    +0.000 C 
ATOM     21  O   UNL     1       8.144  -7.966  -3.673  0.00  0.00    +0.000 OA
ATOM     22  H   UNL     1       6.565  -6.541  -1.333  0.00  0.00    +0.000 HD
BRANCH  20  23
ATOM     23  C   UNL     1       8.722  -7.962  -1.390  0.00  0.00    +0.000 A 
ATOM     24  C   UNL     1      10.008  -8.444  -1.597  0.00  0.00    +0.000 A 
ATOM     25  S   UNL     1      10.846  -8.803  -0.156  0.00  0.00    +0.000 S 
ATOM     26  C   UNL     1       9.501  -8.378   0.796  0.00  0.00    +0.000 A 
ATOM     27  N   UNL     1       9.546  -8.476   2.152  0.00  0.00    +0.000 NA
ATOM     28  C   UNL     1       8.447  -8.148   2.747  0.00  0.00    +0.000 A 
ATOM     29  N   UNL     1       7.309  -7.730   2.109  0.00  0.00    +0.000 N 
ATOM     30  C   UNL     1       7.225  -7.595   0.743  0.00  0.00    +0.000 A 
ATOM     31  O   UNL     1       6.199  -7.190   0.206  0.00  0.00    +0.000 OA
ATOM     32  C   UNL     1       8.433  -7.954   0.026  0.00  0.00    +0.000 A 
ATOM     33  H   UNL     1       6.482  -7.484   2.632  0.00  0.00    +0.000 HD
ENDBRANCH  20  23
ENDBRANCH  18  19
ENDBRANCH   4  18
TORSDOF 6
