REMARK  Name = 
REMARK  7 active torsions:
REMARK  status: ('A' for Active; 'I' for Inactive)
REMARK    1  A    between atoms: C_1  and  C_2
REMARK    2  A    between atoms: C_2  and  N_3
REMARK    3  A    between atoms: C_2  and  C_17
REMARK    4  A    between atoms: C_4  and  C_6
REMARK    5  A    between atoms: N_12  and  C_13
REMARK    6  A    between atoms: C_20  and  C_21
REMARK    7  A    between atoms: C_21  and  C_22
REMARK                            x       y       z     vdW  Elec       q    Type
REMARK                         _______ _______ _______ _____ _____    ______ ____
ROOT
ATOM      1  C   UNL     1       0.967  -0.068  -0.032  0.00  0.00    +0.000 C 
ATOM      2  C   UNL     1       2.497  -0.034  -0.022  0.00  0.00    +0.000 C 
ENDROOT
BRANCH   2   3
ATOM      3  C   UNL     1       3.041   0.713  -1.231  0.00  0.00    +0.000 A 
ATOM      4  C   UNL     1       3.868   1.830  -1.058  0.00  0.00    +0.000 A 
ATOM      5  C   UNL     1       4.440   2.473  -2.160  0.00  0.00    +0.000 A 
ATOM      6  C   UNL     1       4.206   2.006  -3.461  0.00  0.00    +0.000 A 
ATOM      7  C   UNL     1       3.358   0.907  -3.640  0.00  0.00    +0.000 A 
ATOM      8  C   UNL     1       2.780   0.273  -2.539  0.00  0.00    +0.000 A 
BRANCH   6   9
ATOM      9  C   UNL     1       4.900   2.632  -4.650  0.00  0.00    +0.000 C 
BRANCH   9  10
ATOM     10  C   UNL     1       6.228   1.985  -4.970  0.00  0.00    +0.000 A 
ATOM     11  C   UNL     1       6.305   0.886  -5.831  0.00  0.00    +0.000 A 
ATOM     12  C   UNL     1       7.542   0.299  -6.057  0.00  0.00    +0.000 A 
ATOM     13  N   UNL     1       8.692   0.728  -5.496  0.00  0.00    +0.000 NA
ATOM     14  C   UNL     1       8.598   1.789  -4.667  0.00  0.00    +0.000 A 
ATOM     15  C   UNL     1       7.409   2.441  -4.376  0.00  0.00    +0.000 A 
ENDBRANCH   9  10
ENDBRANCH   6   9
ENDBRANCH   2   3
BRANCH   2  16
ATOM     16  N   UNL     1       3.048  -1.379  -0.006  0.00  0.00    +0.000 N 
ATOM     17  C   UNL     1       3.266  -2.111   1.123  0.00  0.00    +0.000 C 
ATOM     18  O   UNL     1       3.142  -1.648   2.254  0.00  0.00    +0.000 OA
ATOM     19  H   UNL     1       3.040  -1.857  -0.899  0.00  0.00    +0.000 HD
BRANCH  17  20
ATOM     20  C   UNL     1       3.700  -3.502   0.903  0.00  0.00    +0.000 A 
ATOM     21  C   UNL     1       4.476  -4.155   1.850  0.00  0.00    +0.000 A 
ATOM     22  S   UNL     1       4.859  -5.761   1.425  0.00  0.00    +0.000 S 
ATOM     23  C   UNL     1       3.972  -5.654  -0.025  0.00  0.00    +0.000 A 
ATOM     24  N   UNL     1       3.859  -6.717  -0.863  0.00  0.00    +0.000 NA
ATOM     25  C   UNL     1       3.138  -6.501  -1.911  0.00  0.00    +0.000 A 
ATOM     26  N   UNL     1       2.525  -5.309  -2.225  0.00  0.00    +0.000 N 
ATOM     27  C   UNL     1       1.766  -5.156  -3.451  0.00  0.00    +0.000 C 
ATOM     28  C   UNL     1       2.657  -4.188  -1.415  0.00  0.00    +0.000 A 
ATOM     29  O   UNL     1       2.180  -3.096  -1.717  0.00  0.00    +0.000 OA
ATOM     30  C   UNL     1       3.425  -4.400  -0.200  0.00  0.00    +0.000 A 
ENDBRANCH  17  20
ENDBRANCH   2  16
TORSDOF 5
