REMARK  Name = 
REMARK  9 active torsions:
REMARK  status: ('A' for Active; 'I' for Inactive)
REMARK    1  A    between atoms: C_1  and  C_2
REMARK    2  A    between atoms: C_2  and  C_3
REMARK    3  A    between atoms: C_3  and  N_4
REMARK    4  A    between atoms: C_3  and  C_17
REMARK    5  A    between atoms: C_5  and  C_7
REMARK    6  A    between atoms: C_20  and  C_21
REMARK    7  A    between atoms: C_21  and  N_22
REMARK    8  A    between atoms: N_22  and  C_23
REMARK    9  A    between atoms: C_23  and  C_24
REMARK                            x       y       z     vdW  Elec       q    Type
REMARK                         _______ _______ _______ _____ _____    ______ ____
ROOT
ATOM      1  C   UNL     1       2.961   1.214  -0.514  0.00  0.00    +0.000 C 
ENDROOT
BRANCH   1   2
ATOM      2  C   UNL     1       4.477   1.230  -0.684  0.00  0.00    +0.000 A 
ATOM      3  C   UNL     1       5.166   2.450  -0.586  0.00  0.00    +0.000 A 
ATOM      4  C   UNL     1       6.565   2.488  -0.543  0.00  0.00    +0.000 A 
ATOM      5  C   UNL     1       7.315   1.306  -0.599  0.00  0.00    +0.000 A 
ATOM      6  C   UNL     1       6.636   0.102  -0.824  0.00  0.00    +0.000 A 
ATOM      7  C   UNL     1       5.235   0.068  -0.882  0.00  0.00    +0.000 A 
BRANCH   5   8
ATOM      8  C   UNL     1       8.812   1.331  -0.373  0.00  0.00    +0.000 C 
BRANCH   8   9
ATOM      9  N   UNL     1       9.120   1.882   0.951  0.00  0.00    +0.000 NA
ATOM     10  H   UNL     1       8.619   1.335   1.653  0.00  0.00    +0.000 HD
BRANCH   9  11
ATOM     11  C   UNL     1      10.550   1.861   1.244  0.00  0.00    +0.000 C 
BRANCH  11  12
ATOM     12  C   UNL     1      10.834   2.411   2.610  0.00  0.00    +0.000 A 
ATOM     13  C   UNL     1      11.451   1.672   3.601  0.00  0.00    +0.000 A 
ATOM     14  N   UNL     1      11.723   2.141   4.836  0.00  0.00    +0.000 NA
ATOM     15  C   UNL     1      11.356   3.410   5.068  0.00  0.00    +0.000 A 
ATOM     16  N   UNL     1      10.763   4.232   4.190  0.00  0.00    +0.000 NA
ATOM     17  C   UNL     1      10.514   3.705   2.973  0.00  0.00    +0.000 A 
ENDBRANCH  11  12
ENDBRANCH   9  11
ENDBRANCH   8   9
ENDBRANCH   5   8
ENDBRANCH   1   2
BRANCH   1  18
ATOM     18  N   UNL     1       2.289   1.409  -1.793  0.00  0.00    +0.000 N 
ATOM     19  C   UNL     1       0.986   1.851  -1.847  0.00  0.00    +0.000 C 
ATOM     20  O   UNL     1       0.402   2.231  -0.833  0.00  0.00    +0.000 OA
ATOM     21  H   UNL     1       2.744   1.042  -2.625  0.00  0.00    +0.000 HD
BRANCH  19  22
ATOM     22  C   UNL     1       0.296   1.852  -3.147  0.00  0.00    +0.000 A 
ATOM     23  C   UNL     1      -0.993   2.372  -3.219  0.00  0.00    +0.000 A 
ATOM     24  S   UNL     1      -1.682   2.314  -4.774  0.00  0.00    +0.000 S 
ATOM     25  C   UNL     1      -0.297   1.566  -5.413  0.00  0.00    +0.000 A 
ATOM     26  N   UNL     1      -0.243   1.221  -6.729  0.00  0.00    +0.000 NA
ATOM     27  C   UNL     1       0.853   0.642  -7.083  0.00  0.00    +0.000 A 
ATOM     28  N   UNL     1       1.904   0.381  -6.243  0.00  0.00    +0.000 N 
ATOM     29  C   UNL     1       1.896   0.712  -4.907  0.00  0.00    +0.000 A 
ATOM     30  O   UNL     1       2.849   0.454  -4.181  0.00  0.00    +0.000 OA
ATOM     31  C   UNL     1       0.683   1.368  -4.454  0.00  0.00    +0.000 A 
ATOM     32  H   UNL     1       2.734  -0.075  -6.589  0.00  0.00    +0.000 HD
ENDBRANCH  19  22
ENDBRANCH   1  18
BRANCH   1  34
ATOM     33  C   UNL     1       2.876  -0.233   1.631  0.00  0.00    +0.000 C 
ATOM     34  C   UNL     1       2.391  -0.040   0.199  0.00  0.00    +0.000 C 
ENDBRANCH   1  34
TORSDOF 8
