REMARK  Name = 
REMARK  5 active torsions:
REMARK  status: ('A' for Active; 'I' for Inactive)
REMARK    1  A    between atoms: N_1  and  C_2
REMARK    2  A    between atoms: C_2  and  C_3
REMARK    3  A    between atoms: C_6  and  C_7
REMARK    4  A    between atoms: C_7  and  N_8
REMARK    5  A    between atoms: N_8  and  C_9
REMARK                            x       y       z     vdW  Elec       q    Type
REMARK                         _______ _______ _______ _____ _____    ______ ____
ROOT
ATOM      1  C   UNL     1       3.231  -1.164   0.697  0.00  0.00    +0.000 A 
ATOM      2  C   UNL     1       2.325  -1.569   1.670  0.00  0.00    +0.000 A 
ATOM      3  N   UNL     1       2.493  -2.686   2.415  0.00  0.00    +0.000 NA
ATOM      4  C   UNL     1       3.628  -3.393   2.175  0.00  0.00    +0.000 A 
ATOM      5  C   UNL     1       4.529  -2.996   1.194  0.00  0.00    +0.000 A 
ATOM      6  N   UNL     1       4.359  -1.881   0.441  0.00  0.00    +0.000 NA
ENDROOT
BRANCH   1   7
ATOM      7  C   UNL     1       3.026   0.129  -0.050  0.00  0.00    +0.000 C 
BRANCH   7   8
ATOM      8  N   UNL     1       3.642   1.263   0.642  0.00  0.00    +0.000 NA
ATOM      9  H   UNL     1       3.564   2.091   0.053  0.00  0.00    +0.000 HD
ATOM     10  H   UNL     1       4.643   1.070   0.721  0.00  0.00    +0.000 HD
ENDBRANCH   7   8
ENDBRANCH   1   7
BRANCH   4  11
ATOM     11  C   UNL     1       3.898  -4.621   3.010  0.00  0.00    +0.000 C 
BRANCH  11  12
ATOM     12  N   UNL     1       3.287  -5.812   2.433  0.00  0.00    +0.000 N 
ATOM     13  H   UNL     1       3.074  -5.779   1.442  0.00  0.00    +0.000 HD
BRANCH  12  14
ATOM     14  C   UNL     1       3.492  -7.068   2.987  0.00  0.00    +0.000 A 
ATOM     15  C   UNL     1       2.940  -8.192   2.367  0.00  0.00    +0.000 A 
ATOM     16  C   UNL     1       3.069  -9.458   2.942  0.00  0.00    +0.000 A 
ATOM     17  C   UNL     1       3.740  -9.569   4.147  0.00  0.00    +0.000 A 
ATOM     18  N   UNL     1       4.271  -8.518   4.800  0.00  0.00    +0.000 NA
ATOM     19  C   UNL     1       4.118  -7.305   4.215  0.00  0.00    +0.000 A 
ENDBRANCH  12  14
ENDBRANCH  11  12
ENDBRANCH   4  11
TORSDOF 5
