REMARK  Name = 
REMARK  10 active torsions:
REMARK  status: ('A' for Active; 'I' for Inactive)
REMARK    1  A    between atoms: C_1  and  C_2
REMARK    2  A    between atoms: C_2  and  C_3
REMARK    3  A    between atoms: C_2  and  C_4
REMARK    4  A    between atoms: C_2  and  C_5
REMARK    5  A    between atoms: N_7  and  C_8
REMARK    6  A    between atoms: C_8  and  C_9
REMARK    7  A    between atoms: C_12  and  C_13
REMARK    8  A    between atoms: C_13  and  C_14
REMARK    9  A    between atoms: C_14  and  C_15
REMARK   10  A    between atoms: C_15  and  N_16
REMARK                            x       y       z     vdW  Elec       q    Type
REMARK                         _______ _______ _______ _____ _____    ______ ____
ROOT
ATOM      1  C   UNL     1       2.998   0.372   1.276  0.00  0.00    +0.000 A 
ATOM      2  C   UNL     1       3.088   1.648   1.808  0.00  0.00    +0.000 A 
ATOM      3  N   UNL     1       3.535   1.576   3.100  0.00  0.00    +0.000 N 
ATOM      4  C   UNL     1       3.763   0.262   3.444  0.00  0.00    +0.000 A 
ATOM      5  C   UNL     1       4.187  -0.311   4.641  0.00  0.00    +0.000 A 
ATOM      6  N   UNL     1       4.350  -1.647   4.726  0.00  0.00    +0.000 NA
ATOM      7  C   UNL     1       4.085  -2.400   3.642  0.00  0.00    +0.000 A 
ATOM      8  C   UNL     1       3.635  -1.906   2.427  0.00  0.00    +0.000 A 
ATOM      9  C   UNL     1       3.461  -0.515   2.318  0.00  0.00    +0.000 A 
ENDROOT
BRANCH   1  11
ATOM     10  C   UNL     1       2.058   1.278  -0.909  0.00  0.00    +0.000 C 
ATOM     11  C   UNL     1       2.493   0.014  -0.126  0.00  0.00    +0.000 C 
ATOM     12  C   UNL     1       1.260  -0.911  -0.054  0.00  0.00    +0.000 C 
ATOM     13  C   UNL     1       3.599  -0.675  -0.945  0.00  0.00    +0.000 C 
ENDBRANCH   1  11
BRANCH   3  14
ATOM     14  C   UNL     1       3.569   2.717   4.005  0.00  0.00    +0.000 C 
BRANCH  14  15
ATOM     15  C   UNL     1       4.894   3.422   4.049  0.00  0.00    +0.000 A 
ATOM     16  C   UNL     1       5.913   3.029   4.920  0.00  0.00    +0.000 A 
ATOM     17  C   UNL     1       7.042   3.830   5.075  0.00  0.00    +0.000 A 
ATOM     18  C   UNL     1       7.126   5.017   4.356  0.00  0.00    +0.000 A 
ATOM     19  N   UNL     1       6.198   5.372   3.435  0.00  0.00    +0.000 NA
ATOM     20  C   UNL     1       5.119   4.567   3.295  0.00  0.00    +0.000 A 
BRANCH  18  21
ATOM     21  C   UNL     1       8.218   6.014   4.646  0.00  0.00    +0.000 C 
BRANCH  21  22
ATOM     22  C   UNL     1       9.524   5.773   3.893  0.00  0.00    +0.000 C 
BRANCH  22  23
ATOM     23  C   UNL     1       9.371   5.899   2.379  0.00  0.00    +0.000 C 
BRANCH  23  24
ATOM     24  N   UNL     1      10.677   5.749   1.739  0.00  0.00    +0.000 NA
ATOM     25  H   UNL     1      11.291   6.507   2.034  0.00  0.00    +0.000 HD
ATOM     26  H   UNL     1      10.564   5.849   0.731  0.00  0.00    +0.000 HD
ENDBRANCH  23  24
ENDBRANCH  22  23
ENDBRANCH  21  22
ENDBRANCH  18  21
ENDBRANCH  14  15
ENDBRANCH   3  14
TORSDOF 7
