REMARK  Name = 
REMARK  4 active torsions:
REMARK  status: ('A' for Active; 'I' for Inactive)
REMARK    1  A    between atoms: C_2  and  C_4
REMARK    2  A    between atoms: N_8  and  C_9
REMARK    3  A    between atoms: C_9  and  C_10
REMARK    4  A    between atoms: C_15  and  C_16
REMARK                            x       y       z     vdW  Elec       q    Type
REMARK                         _______ _______ _______ _____ _____    ______ ____
ROOT
ATOM      1  C   UNL     1       4.024   0.533  -0.835  0.00  0.00    +0.000 A 
ATOM      2  C   UNL     1       2.782   0.844  -1.380  0.00  0.00    +0.000 A 
ATOM      3  C   UNL     1       2.681   1.970  -2.183  0.00  0.00    +0.000 A 
ATOM      4  C   UNL     1       3.806   2.769  -2.410  0.00  0.00    +0.000 A 
ATOM      5  N   UNL     1       3.674   3.720  -3.440  0.00  0.00    +0.000 N 
ATOM      6  N   UNL     1       4.977   2.546  -1.785  0.00  0.00    +0.000 NA
ATOM      7  C   UNL     1       5.063   1.433  -1.008  0.00  0.00    +0.000 A 
ATOM      8  H   UNL     1       3.567   3.211  -4.314  0.00  0.00    +0.000 HD
ENDROOT
BRANCH   1  10
ATOM      9  N   UNL     1       3.563  -1.827  -0.651  0.00  0.00    +0.000 N 
ATOM     10  C   UNL     1       4.265  -0.751  -0.170  0.00  0.00    +0.000 C 
ATOM     11  O   UNL     1       5.093  -0.855   0.725  0.00  0.00    +0.000 OA
ATOM     12  H   UNL     1       3.839  -2.743  -0.315  0.00  0.00    +0.000 HD
ATOM     13  H   UNL     1       3.080  -1.799  -1.538  0.00  0.00    +0.000 HD
ENDBRANCH   1  10
BRANCH   5  14
ATOM     14  C   UNL     1       4.455   4.963  -3.527  0.00  0.00    +0.000 C 
ATOM     15  C   UNL     1       4.643   5.858  -2.314  0.00  0.00    +0.000 C 
ATOM     16  C   UNL     1       3.624   6.238  -3.334  0.00  0.00    +0.000 C 
BRANCH  14  17
ATOM     17  C   UNL     1       5.501   5.071  -4.660  0.00  0.00    +0.000 A 
ATOM     18  N   UNL     1       6.805   5.183  -4.269  0.00  0.00    +0.000 NA
ATOM     19  C   UNL     1       7.722   5.646  -5.141  0.00  0.00    +0.000 A 
ATOM     20  C   UNL     1       7.418   6.022  -6.430  0.00  0.00    +0.000 A 
ATOM     21  C   UNL     1       6.120   5.814  -6.870  0.00  0.00    +0.000 A 
ATOM     22  C   UNL     1       5.146   5.292  -5.999  0.00  0.00    +0.000 A 
BRANCH  22  23
ATOM     23  C   UNL     1       3.761   5.080  -6.538  0.00  0.00    +0.000 C 
ATOM     24  F   UNL     1       2.915   4.357  -5.758  0.00  0.00    +0.000 F 
ATOM     25  F   UNL     1       3.120   6.252  -6.806  0.00  0.00    +0.000 F 
ATOM     26  F   UNL     1       3.785   4.401  -7.725  0.00  0.00    +0.000 F 
ENDBRANCH  22  23
ENDBRANCH  14  17
ENDBRANCH   5  14
TORSDOF 4
