REMARK  Name = 
REMARK  6 active torsions:
REMARK  status: ('A' for Active; 'I' for Inactive)
REMARK    1  A    between atoms: C_2  and  C_20
REMARK    2  A    between atoms: N_3  and  C_4
REMARK    3  A    between atoms: C_4  and  C_5
REMARK    4  A    between atoms: N_8  and  C_9
REMARK    5  A    between atoms: C_9  and  C_10
REMARK    6  A    between atoms: C_10  and  N_11
REMARK                            x       y       z     vdW  Elec       q    Type
REMARK                         _______ _______ _______ _____ _____    ______ ____
ROOT
ATOM      1  C   UNL     1       2.179  -0.984   2.488  0.00  0.00    +0.000 C 
ENDROOT
BRANCH   1   2
ATOM      2  C   UNL     1       3.223  -1.496   3.490  0.00  0.00    +0.000 C 
ATOM      3  C   UNL     1       4.543  -0.711   3.499  0.00  0.00    +0.000 C 
ATOM      4  C   UNL     1       5.460  -0.997   2.304  0.00  0.00    +0.000 C 
ATOM      5  N   UNL     1       5.688  -2.431   2.080  0.00  0.00    +0.000 NA
ATOM      6  C   UNL     1       4.419  -3.166   1.974  0.00  0.00    +0.000 C 
ATOM      7  C   UNL     1       3.535  -2.972   3.212  0.00  0.00    +0.000 C 
BRANCH   5   8
ATOM      8  C   UNL     1       6.517  -2.684   0.875  0.00  0.00    +0.000 C 
BRANCH   8   9
ATOM      9  C   UNL     1       7.965  -2.135   0.928  0.00  0.00    +0.000 C 
BRANCH   9  10
ATOM     10  N   UNL     1       8.668  -2.444  -0.314  0.00  0.00    +0.000 N 
ATOM     11  C   UNL     1       9.961  -1.938  -0.377  0.00  0.00    +0.000 A 
ATOM     12  N   UNL     1      10.710  -1.847   0.731  0.00  0.00    +0.000 NA
ATOM     13  C   UNL     1      11.953  -1.355   0.596  0.00  0.00    +0.000 A 
ATOM     14  C   UNL     1      12.470  -0.939  -0.607  0.00  0.00    +0.000 A 
ATOM     15  C   UNL     1      11.625  -1.063  -1.677  0.00  0.00    +0.000 A 
ATOM     16  N   UNL     1      10.373  -1.546  -1.591  0.00  0.00    +0.000 NA
ATOM     17  H   UNL     1       8.220  -2.136  -1.169  0.00  0.00    +0.000 HD
ENDBRANCH   9  10
ENDBRANCH   8   9
ENDBRANCH   5   8
ENDBRANCH   1   2
BRANCH   1  20
ATOM     18  O   UNL     1       0.369   0.257   4.411  0.00  0.00    +0.000 OA
ATOM     19  C   UNL     1       0.922   0.912   3.536  0.00  0.00    +0.000 C 
ATOM     20  N   UNL     1       1.833   0.407   2.633  0.00  0.00    +0.000 N 
ATOM     21  H   UNL     1       2.077   0.991   1.850  0.00  0.00    +0.000 HD
BRANCH  19  22
ATOM     22  C   UNL     1       0.546   2.285   3.199  0.00  0.00    +0.000 A 
ATOM     23  C   UNL     1      -0.758   2.752   3.229  0.00  0.00    +0.000 A 
ATOM     24  S   UNL     1      -0.941   4.180   2.288  0.00  0.00    +0.000 S 
ATOM     25  C   UNL     1       0.723   4.215   1.913  0.00  0.00    +0.000 A 
ATOM     26  N   UNL     1       1.254   5.042   0.973  0.00  0.00    +0.000 NA
ATOM     27  C   UNL     1       2.534   4.919   0.822  0.00  0.00    +0.000 A 
ATOM     28  N   UNL     1       3.346   4.105   1.575  0.00  0.00    +0.000 N 
ATOM     29  C   UNL     1       2.860   3.320   2.590  0.00  0.00    +0.000 A 
ATOM     30  O   UNL     1       3.603   2.713   3.349  0.00  0.00    +0.000 OA
ATOM     31  C   UNL     1       1.415   3.283   2.653  0.00  0.00    +0.000 A 
ATOM     32  H   UNL     1       4.348   4.131   1.477  0.00  0.00    +0.000 HD
ENDBRANCH  19  22
ENDBRANCH   1  20
TORSDOF 6
