REMARK  Name = 
REMARK  10 active torsions:
REMARK  status: ('A' for Active; 'I' for Inactive)
REMARK    1  A    between atoms: C_1  and  O_2
REMARK    2  A    between atoms: O_2  and  C_3
REMARK    3  A    between atoms: C_3  and  C_4
REMARK    4  A    between atoms: C_4  and  N_5
REMARK    5  A    between atoms: N_5  and  C_6
REMARK    6  A    between atoms: C_6  and  C_7
REMARK    7  A    between atoms: C_10  and  O_11
REMARK    8  A    between atoms: O_11  and  C_12
REMARK    9  A    between atoms: C_12  and  C_13
REMARK   10  A    between atoms: C_16  and  C_17
REMARK                            x       y       z     vdW  Elec       q    Type
REMARK                         _______ _______ _______ _____ _____    ______ ____
ROOT
ATOM      1  C   UNL     1       6.972  -2.906  -3.048  0.00  0.00    +0.000 A 
ATOM      2  C   UNL     1       7.569  -2.489  -4.237  0.00  0.00    +0.000 A 
ATOM      3  C   UNL     1       7.861  -3.441  -5.212  0.00  0.00    +0.000 A 
ATOM      4  C   UNL     1       7.544  -4.774  -4.982  0.00  0.00    +0.000 A 
ATOM      5  C   UNL     1       7.024  -5.108  -3.738  0.00  0.00    +0.000 A 
ATOM      6  N   UNL     1       6.725  -4.211  -2.774  0.00  0.00    +0.000 NA
ENDROOT
BRANCH   1   7
ATOM      7  C   UNL     1       6.456  -1.894  -2.047  0.00  0.00    +0.000 C 
BRANCH   7   8
ATOM      8  N   UNL     1       5.438  -0.975  -2.589  0.00  0.00    +0.000 NA
ATOM      9  H   UNL     1       5.156  -0.347  -1.838  0.00  0.00    +0.000 HD
BRANCH   8  10
ATOM     10  C   UNL     1       4.246  -1.701  -3.061  0.00  0.00    +0.000 C 
BRANCH  10  11
ATOM     11  C   UNL     1       3.210  -0.728  -3.636  0.00  0.00    +0.000 C 
BRANCH  11  13
ATOM     12  C   UNL     1       1.097  -0.603  -4.662  0.00  0.00    +0.000 C 
ATOM     13  O   UNL     1       2.076  -1.465  -4.098  0.00  0.00    +0.000 OA
ENDBRANCH  11  13
ENDBRANCH  10  11
ENDBRANCH   8  10
ENDBRANCH   7   8
ENDBRANCH   1   7
BRANCH   4  14
ATOM     14  O   UNL     1       7.757  -5.642  -6.016  0.00  0.00    +0.000 OA
BRANCH  14  15
ATOM     15  C   UNL     1       6.945  -6.819  -5.977  0.00  0.00    +0.000 C 
BRANCH  15  16
ATOM     16  C   UNL     1       6.868  -7.411  -7.361  0.00  0.00    +0.000 A 
ATOM     17  C   UNL     1       8.023  -7.887  -7.994  0.00  0.00    +0.000 A 
ATOM     18  C   UNL     1       7.951  -8.425  -9.280  0.00  0.00    +0.000 A 
ATOM     19  C   UNL     1       6.721  -8.505  -9.943  0.00  0.00    +0.000 A 
ATOM     20  C   UNL     1       5.563  -8.028  -9.317  0.00  0.00    +0.000 A 
ATOM     21  C   UNL     1       5.639  -7.486  -8.032  0.00  0.00    +0.000 A 
BRANCH  19  22
ATOM     22  C   UNL     1       6.697  -9.065 -11.318  0.00  0.00    +0.000 C 
ATOM     23  N   UNL     1       5.519  -9.606 -11.755  0.00  0.00    +0.000 N 
ATOM     24  O   UNL     1       7.695  -9.079 -12.027  0.00  0.00    +0.000 OA
ATOM     25  H   UNL     1       4.759  -9.833 -11.134  0.00  0.00    +0.000 HD
ATOM     26  H   UNL     1       5.551 -10.073 -12.651  0.00  0.00    +0.000 HD
ENDBRANCH  19  22
ENDBRANCH  15  16
ENDBRANCH  14  15
ENDBRANCH   4  14
TORSDOF 9
