REMARK  Name = 
REMARK  6 active torsions:
REMARK  status: ('A' for Active; 'I' for Inactive)
REMARK    1  A    between atoms: C_2  and  C_3
REMARK    2  A    between atoms: C_7  and  N_8
REMARK    3  A    between atoms: N_8  and  C_9
REMARK    4  A    between atoms: C_9  and  C_10
REMARK    5  A    between atoms: C_14  and  C_15
REMARK    6  A    between atoms: C_19  and  C_20
REMARK                            x       y       z     vdW  Elec       q    Type
REMARK                         _______ _______ _______ _____ _____    ______ ____
ROOT
ATOM      1  C   UNL     1      -3.065   4.197   0.239  0.00  0.00    +0.000 A 
ATOM      2  C   UNL     1      -3.843   4.557  -0.868  0.00  0.00    +0.000 A 
ATOM      3  C   UNL     1      -5.219   4.731  -0.744  0.00  0.00    +0.000 A 
ATOM      4  C   UNL     1      -5.839   4.530   0.491  0.00  0.00    +0.000 A 
ATOM      5  C   UNL     1      -5.096   4.208   1.638  0.00  0.00    +0.000 A 
ATOM      6  C   UNL     1      -3.705   4.119   1.492  0.00  0.00    +0.000 A 
ENDROOT
BRANCH   5   7
ATOM      7  C   UNL     1      -5.744   3.857   2.921  0.00  0.00    +0.000 A 
ATOM      8  C   UNL     1      -5.176   4.182   4.166  0.00  0.00    +0.000 A 
ATOM      9  C   UNL     1      -5.786   3.802   5.369  0.00  0.00    +0.000 A 
ATOM     10  C   UNL     1      -6.987   3.101   5.353  0.00  0.00    +0.000 A 
ATOM     11  C   UNL     1      -7.568   2.761   4.128  0.00  0.00    +0.000 A 
ATOM     12  C   UNL     1      -6.941   3.120   2.932  0.00  0.00    +0.000 A 
BRANCH  11  13
ATOM     13  C   UNL     1      -8.809   2.049   4.088  0.00  0.00    +0.000 C 
ATOM     14  N   UNL     1      -9.822   1.480   4.042  0.00  0.00    +0.000 NA
ENDBRANCH  11  13
ENDBRANCH   5   7
BRANCH   1  15
ATOM     15  C   UNL     1      -1.606   3.768   0.092  0.00  0.00    +0.000 C 
ATOM     16  C   UNL     1      -1.188   2.564   0.942  0.00  0.00    +0.000 C 
ATOM     17  C   UNL     1      -1.334   2.412  -0.532  0.00  0.00    +0.000 C 
BRANCH  15  18
ATOM     18  N   UNL     1      -0.648   4.895   0.024  0.00  0.00    +0.000 N 
ATOM     19  H   UNL     1      -0.808   5.574   0.767  0.00  0.00    +0.000 HD
BRANCH  18  24
ATOM     20  C   UNL     1       0.294   5.582  -3.538  0.00  0.00    +0.000 A 
ATOM     21  C   UNL     1       0.600   6.926  -3.408  0.00  0.00    +0.000 A 
ATOM     22  N   UNL     1       0.484   7.608  -2.248  0.00  0.00    +0.000 NA
ATOM     23  C   UNL     1       0.053   6.901  -1.174  0.00  0.00    +0.000 A 
ATOM     24  C   UNL     1      -0.304   5.546  -1.184  0.00  0.00    +0.000 A 
ATOM     25  C   UNL     1      -0.167   4.891  -2.410  0.00  0.00    +0.000 A 
BRANCH  20  27
ATOM     26  N   UNL     1       0.612   4.383  -5.810  0.00  0.00    +0.000 NA
ATOM     27  C   UNL     1       0.469   4.919  -4.792  0.00  0.00    +0.000 C 
ENDBRANCH  20  27
ENDBRANCH  18  24
ENDBRANCH  15  18
ENDBRANCH   1  15
TORSDOF 6
