REMARK  Name = 
REMARK  6 active torsions:
REMARK  status: ('A' for Active; 'I' for Inactive)
REMARK    1  A    between atoms: N_1  and  C_2
REMARK    2  A    between atoms: C_2  and  C_3
REMARK    3  A    between atoms: C_6  and  O_7
REMARK    4  A    between atoms: O_7  and  C_8
REMARK    5  A    between atoms: C_8  and  C_9
REMARK    6  A    between atoms: C_9  and  C_12
REMARK                            x       y       z     vdW  Elec       q    Type
REMARK                         _______ _______ _______ _____ _____    ______ ____
ROOT
ATOM      1  O   UNL     1       4.117   1.024  -5.204  0.00  0.00    +0.000 OA
ENDROOT
BRANCH   1   5
ATOM      2  C   UNL     1       2.980   0.844  -1.246  0.00  0.00    +0.000 A 
ATOM      3  C   UNL     1       2.774  -0.259  -2.079  0.00  0.00    +0.000 A 
ATOM      4  C   UNL     1       3.169  -0.196  -3.416  0.00  0.00    +0.000 A 
ATOM      5  C   UNL     1       3.739   0.980  -3.877  0.00  0.00    +0.000 A 
ATOM      6  N   UNL     1       3.965   2.058  -3.099  0.00  0.00    +0.000 NA
ATOM      7  C   UNL     1       3.589   1.962  -1.806  0.00  0.00    +0.000 A 
BRANCH   2   8
ATOM      8  C   UNL     1       2.586   0.839   0.204  0.00  0.00    +0.000 C 
BRANCH   8   9
ATOM      9  N   UNL     1       1.627   1.896   0.498  0.00  0.00    +0.000 NA
ATOM     10  H   UNL     1       1.338   1.828   1.472  0.00  0.00    +0.000 HD
ATOM     11  H   UNL     1       0.786   1.750  -0.061  0.00  0.00    +0.000 HD
ENDBRANCH   8   9
ENDBRANCH   2   8
ENDBRANCH   1   5
BRANCH   1  12
ATOM     12  C   UNL     1       4.192   2.380  -5.684  0.00  0.00    +0.000 C 
BRANCH  12  13
ATOM     13  C   UNL     1       4.697   2.418  -7.133  0.00  0.00    +0.000 C 
ATOM     14  F   UNL     1       5.969   1.919  -7.165  0.00  0.00    +0.000 F 
ATOM     15  F   UNL     1       3.951   1.554  -7.885  0.00  0.00    +0.000 F 
BRANCH  13  16
ATOM     16  C   UNL     1       4.637   3.834  -7.682  0.00  0.00    +0.000 A 
ATOM     17  C   UNL     1       5.710   4.722  -7.502  0.00  0.00    +0.000 A 
ATOM     18  C   UNL     1       5.652   6.018  -8.019  0.00  0.00    +0.000 A 
ATOM     19  C   UNL     1       4.522   6.442  -8.715  0.00  0.00    +0.000 A 
ATOM     20  C   UNL     1       3.444   5.576  -8.890  0.00  0.00    +0.000 A 
ATOM     21  C   UNL     1       3.500   4.279  -8.375  0.00  0.00    +0.000 A 
ENDBRANCH  13  16
ENDBRANCH  12  13
ENDBRANCH   1  12
TORSDOF 6
