REMARK  Name = 
REMARK  6 active torsions:
REMARK  status: ('A' for Active; 'I' for Inactive)
REMARK    1  A    between atoms: C_1  and  C_2
REMARK    2  A    between atoms: C_7  and  C_8
REMARK    3  A    between atoms: N_10  and  C_11
REMARK    4  A    between atoms: C_11  and  C_12
REMARK    5  A    between atoms: C_15  and  C_16
REMARK    6  A    between atoms: C_16  and  C_17
REMARK                            x       y       z     vdW  Elec       q    Type
REMARK                         _______ _______ _______ _____ _____    ______ ____
ROOT
ATOM      1  C   UNL     1       7.817   0.830   0.079  0.00  0.00    +0.000 C 
ATOM      2  O   UNL     1       8.979   0.428   0.072  0.00  0.00    +0.000 OA
ATOM      3  N   UNL     1       7.530   2.170   0.090  0.00  0.00    +0.000 N 
ATOM      4  H   UNL     1       6.570   2.501   0.080  0.00  0.00    +0.000 HD
ENDROOT
BRANCH   1  11
ATOM      5  C   UNL     1       1.020  -0.071   0.141  0.00  0.00    +0.000 C 
ATOM      6  C   UNL     1       2.520  -0.099   0.120  0.00  0.00    +0.000 A 
ATOM      7  N   UNL     1       3.175  -1.215   0.109  0.00  0.00    +0.000 NA
ATOM      8  C   UNL     1       4.529  -1.080   0.093  0.00  0.00    +0.000 A 
ATOM      9  S   UNL     1       5.538  -2.449   0.080  0.00  0.00    +0.000 S 
ATOM     10  C   UNL     1       6.941  -1.481   0.070  0.00  0.00    +0.000 A 
ATOM     11  C   UNL     1       6.686  -0.114   0.078  0.00  0.00    +0.000 A 
ATOM     12  C   UNL     1       5.253   0.101   0.086  0.00  0.00    +0.000 A 
ATOM     13  C   UNL     1       4.474   1.323   0.092  0.00  0.00    +0.000 A 
ATOM     14  O   UNL     1       4.953   2.452   0.076  0.00  0.00    +0.000 OA
ATOM     15  N   UNL     1       3.113   1.140   0.114  0.00  0.00    +0.000 N 
ATOM     16  H   UNL     1       2.560   1.983   0.119  0.00  0.00    +0.000 HD
ENDBRANCH   1  11
BRANCH   3  17
ATOM     17  C   UNL     1       8.573   3.166   0.093  0.00  0.00    +0.000 C 
BRANCH  17  18
ATOM     18  C   UNL     1       8.012   4.564   0.108  0.00  0.00    +0.000 A 
ATOM     19  C   UNL     1       7.740   5.216   1.318  0.00  0.00    +0.000 A 
ATOM     20  C   UNL     1       7.236   6.521   1.329  0.00  0.00    +0.000 A 
ATOM     21  C   UNL     1       6.979   7.197   0.129  0.00  0.00    +0.000 A 
ATOM     22  C   UNL     1       7.228   6.535  -1.081  0.00  0.00    +0.000 A 
ATOM     23  C   UNL     1       7.732   5.231  -1.092  0.00  0.00    +0.000 A 
BRANCH  21  24
ATOM     24  C   UNL     1       6.496   8.631   0.129  0.00  0.00    +0.000 C 
BRANCH  24  25
ATOM     25  C   UNL     1       7.628   9.630   0.085  0.00  0.00    +0.000 A 
ATOM     26  C   UNL     1       8.169  10.048  -1.135  0.00  0.00    +0.000 A 
ATOM     27  C   UNL     1       9.257  10.907  -1.123  0.00  0.00    +0.000 A 
ATOM     28  N   UNL     1       9.829  11.381   0.004  0.00  0.00    +0.000 NA
ATOM     29  C   UNL     1       9.290  10.972   1.171  0.00  0.00    +0.000 A 
ATOM     30  C   UNL     1       8.205  10.113   1.264  0.00  0.00    +0.000 A 
ENDBRANCH  24  25
ENDBRANCH  21  24
ENDBRANCH  17  18
ENDBRANCH   3  17
TORSDOF 5
