REMARK  Name = 
REMARK  7 active torsions:
REMARK  status: ('A' for Active; 'I' for Inactive)
REMARK    1  A    between atoms: C_1  and  C_2
REMARK    2  A    between atoms: C_2  and  N_3
REMARK    3  A    between atoms: C_2  and  C_16
REMARK    4  A    between atoms: C_4  and  C_6
REMARK    5  A    between atoms: C_19  and  C_20
REMARK    6  A    between atoms: C_20  and  N_21
REMARK    7  A    between atoms: C_22  and  C_24
REMARK                            x       y       z     vdW  Elec       q    Type
REMARK                         _______ _______ _______ _____ _____    ______ ____
ROOT
ATOM      1  C   UNL     1      12.201  -4.209   1.540  0.00  0.00    +0.000 C 
ATOM      2  C   UNL     1      11.177  -5.305   1.849  0.00  0.00    +0.000 C 
ENDROOT
BRANCH   2   3
ATOM      3  C   UNL     1      10.491  -4.990   3.177  0.00  0.00    +0.000 A 
ATOM      4  C   UNL     1       9.111  -4.751   3.239  0.00  0.00    +0.000 A 
ATOM      5  C   UNL     1       8.471  -4.559   4.474  0.00  0.00    +0.000 A 
ATOM      6  C   UNL     1       9.198  -4.590   5.675  0.00  0.00    +0.000 A 
ATOM      7  C   UNL     1      10.580  -4.796   5.607  0.00  0.00    +0.000 A 
ATOM      8  C   UNL     1      11.218  -4.976   4.376  0.00  0.00    +0.000 A 
BRANCH   6   9
ATOM      9  C   UNL     1       8.530  -4.422   7.020  0.00  0.00    +0.000 C 
BRANCH   9  10
ATOM     10  N   UNL     1       8.121  -5.681   7.606  0.00  0.00    +0.000 N 
ATOM     11  C   UNL     1       7.503  -5.733   8.844  0.00  0.00    +0.000 C 
ATOM     12  O   UNL     1       7.287  -4.741   9.530  0.00  0.00    +0.000 OA
ATOM     13  H   UNL     1       8.358  -6.547   7.139  0.00  0.00    +0.000 HD
BRANCH  11  14
ATOM     14  C   UNL     1       7.107  -7.177   9.243  0.00  0.00    +0.000 C 
ATOM     15  C   UNL     1       6.432  -7.275  10.598  0.00  0.00    +0.000 C 
ATOM     16  C   UNL     1       4.993  -6.897  10.302  0.00  0.00    +0.000 C 
ATOM     17  C   UNL     1       4.775  -7.306   8.852  0.00  0.00    +0.000 C 
ATOM     18  N   UNL     1       6.082  -7.704   8.312  0.00  0.00    +0.000 NA
ATOM     19  H   UNL     1       6.205  -7.305   7.382  0.00  0.00    +0.000 HD
ENDBRANCH  11  14
ENDBRANCH   9  10
ENDBRANCH   6   9
ENDBRANCH   2   3
BRANCH   2  20
ATOM     20  N   UNL     1      11.787  -6.627   1.919  0.00  0.00    +0.000 N 
ATOM     21  C   UNL     1      12.463  -7.212   0.876  0.00  0.00    +0.000 C 
ATOM     22  O   UNL     1      12.620  -6.665  -0.212  0.00  0.00    +0.000 OA
ATOM     23  H   UNL     1      11.370  -7.255   2.601  0.00  0.00    +0.000 HD
BRANCH  21  24
ATOM     24  C   UNL     1      13.047  -8.530   1.149  0.00  0.00    +0.000 A 
ATOM     25  C   UNL     1      14.199  -8.937   0.488  0.00  0.00    +0.000 A 
ATOM     26  S   UNL     1      14.707 -10.511   0.914  0.00  0.00    +0.000 S 
ATOM     27  C   UNL     1      13.392 -10.709   1.976  0.00  0.00    +0.000 A 
ATOM     28  N   UNL     1      13.194 -11.878   2.645  0.00  0.00    +0.000 NA
ATOM     29  C   UNL     1      12.141 -11.890   3.391  0.00  0.00    +0.000 A 
ATOM     30  N   UNL     1      11.277 -10.841   3.549  0.00  0.00    +0.000 N 
ATOM     31  C   UNL     1      11.469  -9.620   2.941  0.00  0.00    +0.000 A 
ATOM     32  O   UNL     1      10.737  -8.672   3.186  0.00  0.00    +0.000 OA
ATOM     33  C   UNL     1      12.604  -9.573   2.045  0.00  0.00    +0.000 A 
ATOM     34  H   UNL     1      10.489 -10.899   4.176  0.00  0.00    +0.000 HD
ENDBRANCH  21  24
ENDBRANCH   2  20
TORSDOF 6
