REMARK  Name = 
REMARK  8 active torsions:
REMARK  status: ('A' for Active; 'I' for Inactive)
REMARK    1  A    between atoms: N_1  and  C_2
REMARK    2  A    between atoms: C_2  and  N_3
REMARK    3  A    between atoms: C_2  and  C_25
REMARK    4  A    between atoms: N_3  and  C_4
REMARK    5  A    between atoms: C_4  and  C_5
REMARK    6  A    between atoms: C_8  and  C_9
REMARK    7  A    between atoms: C_9  and  N_10
REMARK    8  A    between atoms: C_11  and  C_13
REMARK                            x       y       z     vdW  Elec       q    Type
REMARK                         _______ _______ _______ _____ _____    ______ ____
ROOT
ATOM      1  C   UNL     1       3.017  -3.521  -1.385  0.00  0.00    +0.000 C 
ATOM      2  C   UNL     1       2.375  -4.833  -0.904  0.00  0.00    +0.000 C 
ATOM      3  C   UNL     1       2.889  -6.044  -1.681  0.00  0.00    +0.000 C 
ATOM      4  C   UNL     1       4.423  -6.165  -1.632  0.00  0.00    +0.000 C 
ATOM      5  C   UNL     1       5.076  -4.860  -2.112  0.00  0.00    +0.000 C 
ATOM      6  C   UNL     1       4.555  -3.634  -1.359  0.00  0.00    +0.000 C 
ENDROOT
BRANCH   1   7
ATOM      7  C   UNL     1       2.535  -3.088  -2.788  0.00  0.00    +0.000 C 
BRANCH   7   8
ATOM      8  N   UNL     1       1.128  -2.698  -2.777  0.00  0.00    +0.000 NA
ATOM      9  H   UNL     1       0.544  -3.453  -2.406  0.00  0.00    +0.000 HD
BRANCH   8  10
ATOM     10  C   UNL     1       0.553  -2.374  -4.076  0.00  0.00    +0.000 C 
BRANCH  10  11
ATOM     11  C   UNL     1      -0.975  -2.180  -3.972  0.00  0.00    +0.000 A 
ATOM     12  C   UNL     1      -1.617  -1.229  -4.770  0.00  0.00    +0.000 A 
ATOM     13  C   UNL     1      -2.977  -0.995  -4.599  0.00  0.00    +0.000 A 
ATOM     14  C   UNL     1      -3.678  -1.733  -3.659  0.00  0.00    +0.000 A 
ATOM     15  C   UNL     1      -2.990  -2.700  -2.942  0.00  0.00    +0.000 A 
ATOM     16  N   UNL     1      -1.667  -2.952  -3.082  0.00  0.00    +0.000 NA
ENDBRANCH  10  11
BRANCH  10  17
ATOM     17  N   UNL     1       1.216  -1.143  -4.467  0.00  0.00    +0.000 NA
ATOM     18  H   UNL     1       2.192  -1.352  -4.641  0.00  0.00    +0.000 HD
ATOM     19  H   UNL     1       1.209  -0.584  -3.613  0.00  0.00    +0.000 HD
ENDBRANCH  10  17
ENDBRANCH   8  10
ENDBRANCH   7   8
ENDBRANCH   1   7
BRANCH   4  20
ATOM     20  C   UNL     1       4.941  -6.537  -0.232  0.00  0.00    +0.000 C 
BRANCH  20  21
ATOM     21  N   UNL     1       4.399  -7.799   0.211  0.00  0.00    +0.000 N 
ATOM     22  C   UNL     1       4.058  -8.038   1.517  0.00  0.00    +0.000 C 
ATOM     23  O   UNL     1       4.161  -7.183   2.393  0.00  0.00    +0.000 OA
ATOM     24  H   UNL     1       4.478  -8.581  -0.432  0.00  0.00    +0.000 HD
BRANCH  22  25
ATOM     25  C   UNL     1       3.505  -9.363   1.807  0.00  0.00    +0.000 A 
ATOM     26  C   UNL     1       2.699  -9.538   2.924  0.00  0.00    +0.000 A 
ATOM     27  S   UNL     1       2.128 -11.132   3.111  0.00  0.00    +0.000 S 
ATOM     28  C   UNL     1       2.972 -11.654   1.729  0.00  0.00    +0.000 A 
ATOM     29  N   UNL     1       2.939 -12.958   1.341  0.00  0.00    +0.000 NA
ATOM     30  C   UNL     1       3.651 -13.222   0.299  0.00  0.00    +0.000 A 
ATOM     31  N   UNL     1       4.380 -12.299  -0.407  0.00  0.00    +0.000 N 
ATOM     32  C   UNL     1       4.395 -10.963  -0.087  0.00  0.00    +0.000 A 
ATOM     33  O   UNL     1       4.978 -10.148  -0.798  0.00  0.00    +0.000 OA
ATOM     34  C   UNL     1       3.653 -10.619   1.111  0.00  0.00    +0.000 A 
ATOM     35  H   UNL     1       4.893 -12.568  -1.232  0.00  0.00    +0.000 HD
ENDBRANCH  22  25
ENDBRANCH  20  21
ENDBRANCH   4  20
TORSDOF 8
