REMARK  Name = 
REMARK  9 active torsions:
REMARK  status: ('A' for Active; 'I' for Inactive)
REMARK    1  A    between atoms: C_1  and  C_2
REMARK    2  A    between atoms: C_4  and  C_5
REMARK    3  A    between atoms: C_5  and  N_6
REMARK    4  A    between atoms: N_6  and  C_7
REMARK    5  A    between atoms: C_7  and  C_8
REMARK    6  A    between atoms: C_11  and  C_12
REMARK    7  A    between atoms: C_12  and  N_13
REMARK    8  A    between atoms: C_14  and  C_16
REMARK    9  A    between atoms: C_21  and  C_22
REMARK                            x       y       z     vdW  Elec       q    Type
REMARK                         _______ _______ _______ _____ _____    ______ ____
ROOT
ATOM      1  C   UNL     1      13.109   1.034   0.230  0.00  0.00    +0.000 C 
ENDROOT
BRANCH   1   5
ATOM      2  C   UNL     1       9.411  -1.091   0.058  0.00  0.00    +0.000 A 
ATOM      3  C   UNL     1       9.398   0.306   0.028  0.00  0.00    +0.000 A 
ATOM      4  C   UNL     1      10.598   1.010   0.065  0.00  0.00    +0.000 A 
ATOM      5  C   UNL     1      11.793   0.299   0.139  0.00  0.00    +0.000 A 
ATOM      6  N   UNL     1      11.835  -1.056   0.137  0.00  0.00    +0.000 NA
ATOM      7  C   UNL     1      10.653  -1.715   0.095  0.00  0.00    +0.000 A 
BRANCH   2   8
ATOM      8  C   UNL     1       8.136  -1.884   0.098  0.00  0.00    +0.000 C 
BRANCH   8   9
ATOM      9  N   UNL     1       8.014  -2.737   1.283  0.00  0.00    +0.000 NA
ATOM     10  H   UNL     1       7.142  -3.261   1.216  0.00  0.00    +0.000 HD
BRANCH   9  11
ATOM     11  C   UNL     1       7.982  -1.963   2.529  0.00  0.00    +0.000 C 
BRANCH  11  15
ATOM     12  C   UNL     1       9.235  -5.495   5.979  0.00  0.00    +0.000 C 
ATOM     13  C   UNL     1       8.483  -4.425   5.270  0.00  0.00    +0.000 C 
ATOM     14  C   UNL     1       8.936  -3.861   3.990  0.00  0.00    +0.000 C 
ATOM     15  C   UNL     1       7.939  -2.868   3.705  0.00  0.00    +0.000 C 
ATOM     16  C   UNL     1       7.064  -2.935   4.718  0.00  0.00    +0.000 C 
ATOM     17  N   UNL     1       7.368  -3.880   5.687  0.00  0.00    +0.000 NA
ENDBRANCH  11  15
ENDBRANCH   9  11
ENDBRANCH   8   9
ENDBRANCH   2   8
ENDBRANCH   1   5
BRANCH   1  18
ATOM     18  N   UNL     1      13.689   1.293  -1.068  0.00  0.00    +0.000 N 
ATOM     19  C   UNL     1      13.483   2.470  -1.734  0.00  0.00    +0.000 C 
ATOM     20  O   UNL     1      12.803   3.377  -1.260  0.00  0.00    +0.000 OA
ATOM     21  H   UNL     1      14.048   0.482  -1.564  0.00  0.00    +0.000 HD
BRANCH  19  22
ATOM     22  C   UNL     1      14.179   2.630  -3.017  0.00  0.00    +0.000 A 
ATOM     23  C   UNL     1      14.464   3.906  -3.484  0.00  0.00    +0.000 A 
ATOM     24  S   UNL     1      15.300   3.922  -4.969  0.00  0.00    +0.000 S 
ATOM     25  C   UNL     1      15.276   2.223  -5.061  0.00  0.00    +0.000 A 
ATOM     26  N   UNL     1      15.818   1.576  -6.127  0.00  0.00    +0.000 NA
ATOM     27  C   UNL     1      15.703   0.287  -6.094  0.00  0.00    +0.000 A 
ATOM     28  C   UNL     1      16.246  -0.565  -7.204  0.00  0.00    +0.000 C 
ATOM     29  N   UNL     1      15.095  -0.405  -5.072  0.00  0.00    +0.000 N 
ATOM     30  C   UNL     1      14.594   0.204  -3.946  0.00  0.00    +0.000 A 
ATOM     31  O   UNL     1      14.163  -0.453  -3.005  0.00  0.00    +0.000 OA
ATOM     32  C   UNL     1      14.663   1.651  -3.961  0.00  0.00    +0.000 A 
ATOM     33  H   UNL     1      15.058  -1.414  -5.077  0.00  0.00    +0.000 HD
ENDBRANCH  19  22
ENDBRANCH   1  18
TORSDOF 7
