REMARK  Name = 
REMARK  5 active torsions:
REMARK  status: ('A' for Active; 'I' for Inactive)
REMARK    1  A    between atoms: C_1  and  C_2
REMARK    2  A    between atoms: C_2  and  C_3
REMARK    3  A    between atoms: C_2  and  C_14
REMARK    4  A    between atoms: C_3  and  N_4
REMARK    5  A    between atoms: C_8  and  C_9
REMARK                            x       y       z     vdW  Elec       q    Type
REMARK                         _______ _______ _______ _____ _____    ______ ____
ROOT
ATOM      1  N   UNL     1       2.830  -1.090  -2.294  0.00  0.00    +0.000 N 
ATOM      2  C   UNL     1       3.423  -1.079  -3.546  0.00  0.00    +0.000 A 
ATOM      3  N   UNL     1       4.603  -0.465  -3.722  0.00  0.00    +0.000 NA
ATOM      4  C   UNL     1       5.122  -0.470  -4.964  0.00  0.00    +0.000 A 
ATOM      5  C   UNL     1       4.521  -1.080  -6.038  0.00  0.00    +0.000 A 
ATOM      6  C   UNL     1       3.314  -1.679  -5.763  0.00  0.00    +0.000 A 
ATOM      7  N   UNL     1       2.748  -1.691  -4.533  0.00  0.00    +0.000 NA
ATOM      8  H   UNL     1       1.838  -1.239  -2.441  0.00  0.00    +0.000 HD
ENDROOT
BRANCH   5   9
ATOM      9  C   UNL     1       5.149  -1.019  -7.363  0.00  0.00    +0.000 C 
ATOM     10  N   UNL     1       4.821  -1.977  -8.279  0.00  0.00    +0.000 N 
ATOM     11  O   UNL     1       5.968  -0.149  -7.629  0.00  0.00    +0.000 OA
ATOM     12  H   UNL     1       4.350  -2.841  -8.047  0.00  0.00    +0.000 HD
ATOM     13  H   UNL     1       5.350  -1.958  -9.144  0.00  0.00    +0.000 HD
ENDBRANCH   5   9
BRANCH   1  14
ATOM     14  C   UNL     1       3.156   0.068  -1.487  0.00  0.00    +0.000 C 
BRANCH  14  16
ATOM     15  C   UNL     1       2.898  -1.076   0.798  0.00  0.00    +0.000 C 
ATOM     16  C   UNL     1       2.410  -0.066  -0.192  0.00  0.00    +0.000 C 
BRANCH  16  17
ATOM     17  C   UNL     1       1.018   0.401  -0.149  0.00  0.00    +0.000 A 
ATOM     18  C   UNL     1       0.705   1.738  -0.418  0.00  0.00    +0.000 A 
ATOM     19  C   UNL     1      -0.628   2.155  -0.472  0.00  0.00    +0.000 A 
ATOM     20  C   UNL     1      -1.654   1.238  -0.260  0.00  0.00    +0.000 A 
ATOM     21  C   UNL     1      -1.351  -0.090   0.031  0.00  0.00    +0.000 A 
ATOM     22  C   UNL     1      -0.020  -0.504   0.097  0.00  0.00    +0.000 A 
ENDBRANCH  16  17
ENDBRANCH  14  16
ENDBRANCH   1  14
TORSDOF 4
