REMARK  Name = 
REMARK  4 active torsions:
REMARK  status: ('A' for Active; 'I' for Inactive)
REMARK    1  A    between atoms: C_2  and  C_4
REMARK    2  A    between atoms: N_8  and  C_9
REMARK    3  A    between atoms: C_9  and  C_10
REMARK    4  A    between atoms: C_15  and  C_16
REMARK                            x       y       z     vdW  Elec       q    Type
REMARK                         _______ _______ _______ _____ _____    ______ ____
ROOT
ATOM      1  C   UNL     1       3.594   1.509   3.158  0.00  0.00    +0.000 A 
ATOM      2  C   UNL     1       2.841   0.449   3.644  0.00  0.00    +0.000 A 
ATOM      3  C   UNL     1       3.463  -0.787   3.861  0.00  0.00    +0.000 A 
ATOM      4  C   UNL     1       4.820  -0.928   3.615  0.00  0.00    +0.000 A 
ATOM      5  N   UNL     1       5.501  -2.139   3.764  0.00  0.00    +0.000 N 
ATOM      6  N   UNL     1       5.561   0.092   3.131  0.00  0.00    +0.000 NA
ATOM      7  C   UNL     1       4.938   1.279   2.902  0.00  0.00    +0.000 A 
ATOM      8  H   UNL     1       6.478  -1.927   3.557  0.00  0.00    +0.000 HD
ENDROOT
BRANCH   1  10
ATOM      9  N   UNL     1       1.888   3.199   3.532  0.00  0.00    +0.000 N 
ATOM     10  C   UNL     1       3.019   2.835   2.851  0.00  0.00    +0.000 C 
ATOM     11  O   UNL     1       3.540   3.588   2.041  0.00  0.00    +0.000 OA
ATOM     12  H   UNL     1       1.548   4.139   3.371  0.00  0.00    +0.000 HD
ATOM     13  H   UNL     1       1.574   2.723   4.366  0.00  0.00    +0.000 HD
ENDBRANCH   1  10
BRANCH   5  14
ATOM     14  C   UNL     1       5.275  -3.105   4.859  0.00  0.00    +0.000 C 
ATOM     15  C   UNL     1       5.305  -4.566   4.389  0.00  0.00    +0.000 C 
ATOM     16  C   UNL     1       4.051  -3.994   4.944  0.00  0.00    +0.000 C 
BRANCH  14  17
ATOM     17  C   UNL     1       6.080  -2.763   6.127  0.00  0.00    +0.000 A 
ATOM     18  C   UNL     1       7.406  -3.250   6.231  0.00  0.00    +0.000 A 
ATOM     19  C   UNL     1       8.268  -2.880   7.265  0.00  0.00    +0.000 A 
ATOM     20  C   UNL     1       7.840  -1.981   8.227  0.00  0.00    +0.000 A 
ATOM     21  C   UNL     1       6.533  -1.507   8.180  0.00  0.00    +0.000 A 
ATOM     22  C   UNL     1       5.632  -1.911   7.165  0.00  0.00    +0.000 A 
BRANCH  22  23
ATOM     23  C   UNL     1       4.229  -1.364   7.279  0.00  0.00    +0.000 C 
ATOM     24  F   UNL     1       3.293  -1.931   6.476  0.00  0.00    +0.000 F 
ATOM     25  F   UNL     1       3.731  -1.526   8.545  0.00  0.00    +0.000 F 
ATOM     26  F   UNL     1       4.164  -0.023   7.043  0.00  0.00    +0.000 F 
ENDBRANCH  22  23
ENDBRANCH  14  17
ENDBRANCH   5  14
TORSDOF 4
