REMARK  Name = 
REMARK  6 active torsions:
REMARK  status: ('A' for Active; 'I' for Inactive)
REMARK    1  A    between atoms: C_2  and  C_25
REMARK    2  A    between atoms: N_3  and  C_4
REMARK    3  A    between atoms: C_4  and  C_5
REMARK    4  A    between atoms: C_8  and  C_9
REMARK    5  A    between atoms: C_9  and  N_10
REMARK    6  A    between atoms: C_11  and  C_13
REMARK                            x       y       z     vdW  Elec       q    Type
REMARK                         _______ _______ _______ _____ _____    ______ ____
ROOT
ATOM      1  C   UNL     1       3.255  -3.015   2.144  0.00  0.00    +0.000 A 
ATOM      2  C   UNL     1       4.331  -2.491   2.859  0.00  0.00    +0.000 A 
ATOM      3  C   UNL     1       5.190  -3.360   3.533  0.00  0.00    +0.000 A 
ATOM      4  C   UNL     1       4.972  -4.736   3.468  0.00  0.00    +0.000 A 
ATOM      5  C   UNL     1       3.866  -5.168   2.744  0.00  0.00    +0.000 A 
ATOM      6  N   UNL     1       3.015  -4.349   2.080  0.00  0.00    +0.000 NA
ENDROOT
BRANCH   1   7
ATOM      7  C   UNL     1       2.302  -2.100   1.407  0.00  0.00    +0.000 C 
BRANCH   7  10
ATOM      8  O   UNL     1       3.960   0.084   0.747  0.00  0.00    +0.000 OA
ATOM      9  C   UNL     1       3.571  -0.662  -0.147  0.00  0.00    +0.000 C 
ATOM     10  N   UNL     1       2.756  -1.746   0.078  0.00  0.00    +0.000 N 
ATOM     11  H   UNL     1       2.537  -2.347  -0.710  0.00  0.00    +0.000 HD
BRANCH   9  12
ATOM     12  C   UNL     1       3.968  -0.420  -1.571  0.00  0.00    +0.000 A 
ATOM     13  C   UNL     1       4.830   0.634  -1.859  0.00  0.00    +0.000 A 
ATOM     14  C   UNL     1       5.176   0.867  -3.185  0.00  0.00    +0.000 A 
ATOM     15  C   UNL     1       4.650   0.046  -4.176  0.00  0.00    +0.000 A 
ATOM     16  C   UNL     1       3.797  -0.983  -3.799  0.00  0.00    +0.000 A 
ATOM     17  N   UNL     1       3.439  -1.243  -2.520  0.00  0.00    +0.000 NA
ENDBRANCH   9  12
ENDBRANCH   7  10
ENDBRANCH   1   7
BRANCH   4  18
ATOM     18  C   UNL     1       5.862  -5.717   4.173  0.00  0.00    +0.000 C 
BRANCH  18  19
ATOM     19  N   UNL     1       5.396  -5.990   5.509  0.00  0.00    +0.000 N 
ATOM     20  C   UNL     1       6.102  -6.802   6.360  0.00  0.00    +0.000 C 
ATOM     21  O   UNL     1       7.189  -7.282   6.047  0.00  0.00    +0.000 OA
ATOM     22  H   UNL     1       4.421  -5.791   5.710  0.00  0.00    +0.000 HD
BRANCH  20  23
ATOM     23  C   UNL     1       5.519  -7.027   7.689  0.00  0.00    +0.000 A 
ATOM     24  C   UNL     1       6.335  -7.410   8.745  0.00  0.00    +0.000 A 
ATOM     25  S   UNL     1       5.505  -7.583  10.225  0.00  0.00    +0.000 S 
ATOM     26  C   UNL     1       4.015  -7.205   9.497  0.00  0.00    +0.000 A 
ATOM     27  N   UNL     1       2.863  -7.201  10.221  0.00  0.00    +0.000 NA
ATOM     28  C   UNL     1       1.803  -6.928   9.536  0.00  0.00    +0.000 A 
ATOM     29  N   UNL     1       1.792  -6.653   8.193  0.00  0.00    +0.000 N 
ATOM     30  C   UNL     1       2.933  -6.615   7.429  0.00  0.00    +0.000 A 
ATOM     31  O   UNL     1       2.895  -6.319   6.239  0.00  0.00    +0.000 OA
ATOM     32  C   UNL     1       4.152  -6.929   8.148  0.00  0.00    +0.000 A 
ATOM     33  H   UNL     1       0.929  -6.437   7.716  0.00  0.00    +0.000 HD
ENDBRANCH  20  23
ENDBRANCH  18  19
ENDBRANCH   4  18
TORSDOF 6
