REMARK  Name = 
REMARK  6 active torsions:
REMARK  status: ('A' for Active; 'I' for Inactive)
REMARK    1  A    between atoms: C_2  and  C_25
REMARK    2  A    between atoms: N_3  and  C_4
REMARK    3  A    between atoms: C_4  and  C_5
REMARK    4  A    between atoms: C_8  and  C_9
REMARK    5  A    between atoms: C_9  and  N_10
REMARK    6  A    between atoms: C_11  and  C_13
REMARK                            x       y       z     vdW  Elec       q    Type
REMARK                         _______ _______ _______ _____ _____    ______ ____
ROOT
ATOM      1  C   UNL     1       3.252   0.239  -3.809  0.00  0.00    +0.000 C 
ATOM      2  C   UNL     1       4.148  -1.008  -3.736  0.00  0.00    +0.000 C 
ATOM      3  C   UNL     1       5.313  -0.932  -4.724  0.00  0.00    +0.000 C 
ATOM      4  C   UNL     1       6.183   0.323  -4.538  0.00  0.00    +0.000 C 
ATOM      5  C   UNL     1       5.288   1.571  -4.615  0.00  0.00    +0.000 C 
ATOM      6  C   UNL     1       4.100   1.515  -3.649  0.00  0.00    +0.000 C 
ENDROOT
BRANCH   1   7
ATOM      7  C   UNL     1       2.441   0.273  -5.120  0.00  0.00    +0.000 C 
BRANCH   7  10
ATOM      8  O   UNL     1      -0.201   0.196  -4.178  0.00  0.00    +0.000 OA
ATOM      9  C   UNL     1       0.253  -0.789  -4.754  0.00  0.00    +0.000 C 
ATOM     10  N   UNL     1       1.538  -0.851  -5.243  0.00  0.00    +0.000 N 
ATOM     11  H   UNL     1       1.844  -1.733  -5.638  0.00  0.00    +0.000 HD
BRANCH   9  12
ATOM     12  C   UNL     1      -0.580  -2.011  -4.966  0.00  0.00    +0.000 A 
ATOM     13  C   UNL     1      -1.902  -1.986  -4.545  0.00  0.00    +0.000 A 
ATOM     14  C   UNL     1      -2.677  -3.119  -4.743  0.00  0.00    +0.000 A 
ATOM     15  C   UNL     1      -2.104  -4.234  -5.346  0.00  0.00    +0.000 A 
ATOM     16  C   UNL     1      -0.773  -4.168  -5.740  0.00  0.00    +0.000 A 
ATOM     17  N   UNL     1       0.014  -3.081  -5.570  0.00  0.00    +0.000 NA
ENDBRANCH   9  12
ENDBRANCH   7  10
ENDBRANCH   1   7
BRANCH   4  18
ATOM     18  C   UNL     1       7.026   0.329  -3.248  0.00  0.00    +0.000 C 
BRANCH  18  19
ATOM     19  N   UNL     1       7.938  -0.792  -3.162  0.00  0.00    +0.000 N 
ATOM     20  C   UNL     1       9.245  -0.743  -3.580  0.00  0.00    +0.000 C 
ATOM     21  O   UNL     1       9.736   0.253  -4.094  0.00  0.00    +0.000 OA
ATOM     22  H   UNL     1       7.539  -1.687  -2.900  0.00  0.00    +0.000 HD
BRANCH  20  23
ATOM     23  C   UNL     1      10.052  -1.943  -3.303  0.00  0.00    +0.000 A 
ATOM     24  C   UNL     1      11.428  -1.830  -3.165  0.00  0.00    +0.000 A 
ATOM     25  S   UNL     1      12.204  -3.307  -2.807  0.00  0.00    +0.000 S 
ATOM     26  C   UNL     1      10.731  -4.157  -2.859  0.00  0.00    +0.000 A 
ATOM     27  N   UNL     1      10.691  -5.501  -2.648  0.00  0.00    +0.000 NA
ATOM     28  C   UNL     1       9.510  -6.019  -2.725  0.00  0.00    +0.000 A 
ATOM     29  N   UNL     1       8.366  -5.314  -2.991  0.00  0.00    +0.000 N 
ATOM     30  C   UNL     1       8.356  -3.954  -3.180  0.00  0.00    +0.000 A 
ATOM     31  O   UNL     1       7.303  -3.349  -3.344  0.00  0.00    +0.000 OA
ATOM     32  C   UNL     1       9.660  -3.323  -3.123  0.00  0.00    +0.000 A 
ATOM     33  H   UNL     1       7.467  -5.773  -3.015  0.00  0.00    +0.000 HD
ENDBRANCH  20  23
ENDBRANCH  18  19
ENDBRANCH   4  18
TORSDOF 6
