REMARK  Name = 
REMARK  5 active torsions:
REMARK  status: ('A' for Active; 'I' for Inactive)
REMARK    1  A    between atoms: C_2  and  C_18
REMARK    2  A    between atoms: N_3  and  C_4
REMARK    3  A    between atoms: C_4  and  C_5
REMARK    4  A    between atoms: C_8  and  C_9
REMARK    5  A    between atoms: C_9  and  C_10
REMARK                            x       y       z     vdW  Elec       q    Type
REMARK                         _______ _______ _______ _____ _____    ______ ____
ROOT
ATOM      1  O   UNL     1       0.954   0.733  -0.476  0.00  0.00    +0.000 OA
ATOM      2  C   UNL     1       2.156   0.714  -0.260  0.00  0.00    +0.000 C 
ATOM      3  N   UNL     1       2.766   1.336   0.807  0.00  0.00    +0.000 N 
ATOM      4  H   UNL     1       3.728   1.092   0.991  0.00  0.00    +0.000 HD
ENDROOT
BRANCH   2   5
ATOM      5  C   UNL     1       3.093  -0.169  -0.946  0.00  0.00    +0.000 A 
ATOM      6  C   UNL     1       2.778  -1.473  -1.284  0.00  0.00    +0.000 A 
ATOM      7  S   UNL     1       4.195  -2.432  -1.454  0.00  0.00    +0.000 S 
ATOM      8  C   UNL     1       5.208  -1.076  -1.237  0.00  0.00    +0.000 A 
ATOM      9  N   UNL     1       6.554  -1.178  -1.096  0.00  0.00    +0.000 NA
ATOM     10  C   UNL     1       7.167  -0.039  -1.007  0.00  0.00    +0.000 A 
ATOM     11  N   UNL     1       6.563   1.188  -1.096  0.00  0.00    +0.000 N 
ATOM     12  C   UNL     1       5.201   1.344  -1.238  0.00  0.00    +0.000 A 
ATOM     13  O   UNL     1       4.677   2.439  -1.367  0.00  0.00    +0.000 OA
ATOM     14  C   UNL     1       4.479   0.090  -1.207  0.00  0.00    +0.000 A 
ATOM     15  H   UNL     1       7.107   2.038  -1.111  0.00  0.00    +0.000 HD
ENDBRANCH   2   5
BRANCH   3  16
ATOM     16  C   UNL     1       2.019   1.820   1.944  0.00  0.00    +0.000 C 
BRANCH  16  17
ATOM     17  C   UNL     1       2.958   2.414   2.939  0.00  0.00    +0.000 A 
ATOM     18  C   UNL     1       3.305   3.748   2.928  0.00  0.00    +0.000 A 
ATOM     19  N   UNL     1       4.195   4.301   3.779  0.00  0.00    +0.000 NA
ATOM     20  C   UNL     1       4.768   3.473   4.675  0.00  0.00    +0.000 A 
ATOM     21  N   UNL     1       4.523   2.149   4.754  0.00  0.00    +0.000 NA
ATOM     22  C   UNL     1       3.620   1.654   3.882  0.00  0.00    +0.000 A 
BRANCH  20  23
ATOM     23  C   UNL     1       5.729   4.070   5.672  0.00  0.00    +0.000 C 
BRANCH  23  24
ATOM     24  C   UNL     1       5.056   4.533   6.927  0.00  0.00    +0.000 A 
ATOM     25  C   UNL     1       4.878   3.710   8.021  0.00  0.00    +0.000 A 
ATOM     26  N   UNL     1       4.248   4.089   9.151  0.00  0.00    +0.000 NA
ATOM     27  C   UNL     1       3.773   5.343   9.158  0.00  0.00    +0.000 A 
ATOM     28  N   UNL     1       3.878   6.233   8.159  0.00  0.00    +0.000 NA
ATOM     29  C   UNL     1       4.517   5.799   7.055  0.00  0.00    +0.000 A 
ENDBRANCH  23  24
ENDBRANCH  20  23
ENDBRANCH  16  17
ENDBRANCH   3  16
TORSDOF 5
