REMARK  Name = 
REMARK  6 active torsions:
REMARK  status: ('A' for Active; 'I' for Inactive)
REMARK    1  A    between atoms: C_2  and  C_4
REMARK    2  A    between atoms: C_7  and  S_8
REMARK    3  A    between atoms: S_8  and  C_9
REMARK    4  A    between atoms: C_9  and  C_10
REMARK    5  A    between atoms: C_10  and  C_13
REMARK    6  A    between atoms: C_17  and  C_18
REMARK                            x       y       z     vdW  Elec       q    Type
REMARK                         _______ _______ _______ _____ _____    ______ ____
ROOT
ATOM      1  C   UNL     1       5.014   6.187  -4.827  0.00  0.00    +0.000 C 
ATOM      2  F   UNL     1       6.361   6.277  -4.610  0.00  0.00    +0.000 F 
ATOM      3  F   UNL     1       4.883   5.691  -6.094  0.00  0.00    +0.000 F 
ENDROOT
BRANCH   1   4
ATOM      4  C   UNL     1       4.343   7.545  -4.697  0.00  0.00    +0.000 A 
ATOM      5  C   UNL     1       4.823   8.500  -3.794  0.00  0.00    +0.000 A 
ATOM      6  C   UNL     1       4.214   9.750  -3.708  0.00  0.00    +0.000 A 
ATOM      7  C   UNL     1       3.129  10.061  -4.531  0.00  0.00    +0.000 A 
ATOM      8  C   UNL     1       2.632   9.141  -5.472  0.00  0.00    +0.000 A 
ATOM      9  C   UNL     1       3.245   7.874  -5.516  0.00  0.00    +0.000 A 
BRANCH   8  10
ATOM     10  C   UNL     1       1.564   9.511  -6.433  0.00  0.00    +0.000 A 
ATOM     11  C   UNL     1       1.504  10.809  -6.982  0.00  0.00    +0.000 A 
ATOM     12  C   UNL     1       0.553  11.152  -7.947  0.00  0.00    +0.000 A 
ATOM     13  C   UNL     1      -0.351  10.197  -8.384  0.00  0.00    +0.000 A 
ATOM     14  F   UNL     1      -1.245  10.516  -9.329  0.00  0.00    +0.000 F 
ATOM     15  C   UNL     1      -0.334   8.913  -7.859  0.00  0.00    +0.000 A 
ATOM     16  C   UNL     1       0.611   8.576  -6.884  0.00  0.00    +0.000 A 
ENDBRANCH   8  10
ENDBRANCH   1   4
BRANCH   1  17
ATOM     17  C   UNL     1       4.419   5.181  -3.834  0.00  0.00    +0.000 C 
BRANCH  17  18
ATOM     18  S   UNL     1       5.135   3.492  -4.008  0.00  0.00    +0.000 S 
BRANCH  18  22
ATOM     19  C   UNL     1       2.879   1.377  -0.693  0.00  0.00    +0.000 A 
ATOM     20  C   UNL     1       3.791   0.650  -1.456  0.00  0.00    +0.000 A 
ATOM     21  C   UNL     1       4.482   1.294  -2.488  0.00  0.00    +0.000 A 
ATOM     22  C   UNL     1       4.240   2.645  -2.722  0.00  0.00    +0.000 A 
ATOM     23  N   UNL     1       3.346   3.358  -2.003  0.00  0.00    +0.000 NA
ATOM     24  C   UNL     1       2.679   2.710  -1.016  0.00  0.00    +0.000 A 
BRANCH  19  26
ATOM     25  N   UNL     1       2.661  -0.252   1.099  0.00  0.00    +0.000 N 
ATOM     26  C   UNL     1       2.111   0.808   0.429  0.00  0.00    +0.000 C 
ATOM     27  O   UNL     1       1.040   1.283   0.778  0.00  0.00    +0.000 OA
ATOM     28  H   UNL     1       2.177  -0.546   1.938  0.00  0.00    +0.000 HD
ATOM     29  H   UNL     1       3.636  -0.506   1.013  0.00  0.00    +0.000 HD
ENDBRANCH  19  26
ENDBRANCH  18  22
ENDBRANCH  17  18
ENDBRANCH   1  17
TORSDOF 6
