REMARK  Name = 
REMARK  4 active torsions:
REMARK  status: ('A' for Active; 'I' for Inactive)
REMARK    1  A    between atoms: C_2  and  C_4
REMARK    2  A    between atoms: N_8  and  C_9
REMARK    3  A    between atoms: C_9  and  C_10
REMARK    4  A    between atoms: C_14  and  C_15
REMARK                            x       y       z     vdW  Elec       q    Type
REMARK                         _______ _______ _______ _____ _____    ______ ____
ROOT
ATOM      1  C   UNL     1       5.522  -4.669   3.405  0.00  0.00    +0.000 C 
ATOM      2  C   UNL     1       5.365  -6.034   2.719  0.00  0.00    +0.000 C 
ATOM      3  C   UNL     1       4.200  -5.416   3.412  0.00  0.00    +0.000 C 
ENDROOT
BRANCH   1   8
ATOM      4  C   UNL     1       3.864   0.190   2.489  0.00  0.00    +0.000 A 
ATOM      5  C   UNL     1       3.195  -0.887   3.063  0.00  0.00    +0.000 A 
ATOM      6  C   UNL     1       3.828  -2.130   3.128  0.00  0.00    +0.000 A 
ATOM      7  C   UNL     1       5.115  -2.279   2.625  0.00  0.00    +0.000 A 
ATOM      8  N   UNL     1       5.762  -3.516   2.531  0.00  0.00    +0.000 N 
ATOM      9  N   UNL     1       5.786  -1.233   2.097  0.00  0.00    +0.000 NA
ATOM     10  C   UNL     1       5.150  -0.031   2.027  0.00  0.00    +0.000 A 
ATOM     11  H   UNL     1       6.722  -3.324   2.252  0.00  0.00    +0.000 HD
BRANCH   4  13
ATOM     12  N   UNL     1       2.196   1.844   3.118  0.00  0.00    +0.000 N 
ATOM     13  C   UNL     1       3.232   1.510   2.285  0.00  0.00    +0.000 C 
ATOM     14  O   UNL     1       3.617   2.278   1.414  0.00  0.00    +0.000 OA
ATOM     15  H   UNL     1       1.791   2.764   2.993  0.00  0.00    +0.000 HD
ATOM     16  H   UNL     1       2.004   1.359   3.981  0.00  0.00    +0.000 HD
ENDBRANCH   4  13
ENDBRANCH   1   8
BRANCH   1  17
ATOM     17  C   UNL     1       6.380  -4.676   4.665  0.00  0.00    +0.000 A 
ATOM     18  C   UNL     1       6.016  -3.990   5.826  0.00  0.00    +0.000 A 
ATOM     19  C   UNL     1       6.780  -4.100   6.991  0.00  0.00    +0.000 A 
ATOM     20  C   UNL     1       7.901  -4.931   7.016  0.00  0.00    +0.000 A 
ATOM     21  C   UNL     1       8.297  -5.655   5.885  0.00  0.00    +0.000 A 
ATOM     22  C   UNL     1       7.557  -5.450   4.712  0.00  0.00    +0.000 A 
BRANCH  21  23
ATOM     23  C   UNL     1       9.333  -6.715   5.930  0.00  0.00    +0.000 A 
ATOM     24  C   UNL     1       9.471  -7.524   7.076  0.00  0.00    +0.000 A 
ATOM     25  C   UNL     1      10.314  -8.636   7.085  0.00  0.00    +0.000 A 
ATOM     26  C   UNL     1      11.030  -8.960   5.943  0.00  0.00    +0.000 A 
ATOM     27  F   UNL     1      11.802 -10.054   5.937  0.00  0.00    +0.000 F 
ATOM     28  C   UNL     1      10.942  -8.175   4.803  0.00  0.00    +0.000 A 
ATOM     29  C   UNL     1      10.110  -7.051   4.802  0.00  0.00    +0.000 A 
ENDBRANCH  21  23
ENDBRANCH   1  17
TORSDOF 4
