REMARK  Name = 
REMARK  5 active torsions:
REMARK  status: ('A' for Active; 'I' for Inactive)
REMARK    1  A    between atoms: C_2  and  C_3
REMARK    2  A    between atoms: C_6  and  N_7
REMARK    3  A    between atoms: N_7  and  C_8
REMARK    4  A    between atoms: C_8  and  C_9
REMARK    5  A    between atoms: C_14  and  C_15
REMARK                            x       y       z     vdW  Elec       q    Type
REMARK                         _______ _______ _______ _____ _____    ______ ____
ROOT
ATOM      1  C   UNL     1      10.139  -0.816  -0.906  0.00  0.00    +0.000 A 
ATOM      2  C   UNL     1      11.031  -1.869  -1.135  0.00  0.00    +0.000 A 
ATOM      3  C   UNL     1      12.347  -1.600  -1.477  0.00  0.00    +0.000 A 
ATOM      4  F   UNL     1      13.191  -2.616  -1.699  0.00  0.00    +0.000 F 
ATOM      5  C   UNL     1      12.805  -0.292  -1.605  0.00  0.00    +0.000 A 
ATOM      6  C   UNL     1      11.949   0.797  -1.375  0.00  0.00    +0.000 A 
ATOM      7  C   UNL     1      10.612   0.504  -1.022  0.00  0.00    +0.000 A 
ENDROOT
BRANCH   6   8
ATOM      8  C   UNL     1      12.430   2.197  -1.488  0.00  0.00    +0.000 A 
ATOM      9  C   UNL     1      13.757   2.551  -1.168  0.00  0.00    +0.000 A 
ATOM     10  C   UNL     1      14.204   3.877  -1.241  0.00  0.00    +0.000 A 
ATOM     11  C   UNL     1      13.327   4.884  -1.626  0.00  0.00    +0.000 A 
ATOM     12  C   UNL     1      12.022   4.553  -1.956  0.00  0.00    +0.000 A 
ATOM     13  F   UNL     1      11.170   5.517  -2.328  0.00  0.00    +0.000 F 
ATOM     14  C   UNL     1      11.576   3.234  -1.903  0.00  0.00    +0.000 A 
ENDBRANCH   6   8
BRANCH   1  15
ATOM     15  C   UNL     1       8.687  -1.105  -0.597  0.00  0.00    +0.000 C 
BRANCH  15  16
ATOM     16  N   UNL     1       8.603  -1.943   0.584  0.00  0.00    +0.000 N 
ATOM     17  H   UNL     1       8.830  -1.465   1.453  0.00  0.00    +0.000 HD
BRANCH  16  21
ATOM     18  C   UNL     1       5.456  -4.459   1.337  0.00  0.00    +0.000 A 
ATOM     19  C   UNL     1       6.101  -3.752   2.338  0.00  0.00    +0.000 A 
ATOM     20  N   UNL     1       7.124  -2.889   2.087  0.00  0.00    +0.000 NA
ATOM     21  C   UNL     1       7.507  -2.754   0.801  0.00  0.00    +0.000 A 
ATOM     22  C   UNL     1       6.855  -3.489  -0.193  0.00  0.00    +0.000 A 
ATOM     23  N   UNL     1       5.817  -4.338   0.039  0.00  0.00    +0.000 NA
BRANCH  18  25
ATOM     24  N   UNL     1       3.503  -6.066   1.918  0.00  0.00    +0.000 NA
ATOM     25  C   UNL     1       4.377  -5.354   1.637  0.00  0.00    +0.000 C 
ENDBRANCH  18  25
ENDBRANCH  16  21
ENDBRANCH  15  16
ENDBRANCH   1  15
TORSDOF 5
