REMARK  Name = 
REMARK  7 active torsions:
REMARK  status: ('A' for Active; 'I' for Inactive)
REMARK    1  A    between atoms: C_2  and  C_3
REMARK    2  A    between atoms: C_3  and  N_4
REMARK    3  A    between atoms: C_3  and  C_22
REMARK    4  A    between atoms: C_5  and  C_7
REMARK    5  A    between atoms: C_10  and  C_11
REMARK    6  A    between atoms: C_11  and  N_12
REMARK    7  A    between atoms: C_13  and  C_15
REMARK                            x       y       z     vdW  Elec       q    Type
REMARK                         _______ _______ _______ _____ _____    ______ ____
ROOT
ATOM      1  N   UNL     1       2.031   0.444  -7.644  0.00  0.00    +0.000 N 
ATOM      2  C   UNL     1       1.818  -0.321  -8.760  0.00  0.00    +0.000 C 
ATOM      3  O   UNL     1       1.275  -1.423  -8.675  0.00  0.00    +0.000 OA
ATOM      4  H   UNL     1       2.244   1.434  -7.718  0.00  0.00    +0.000 HD
ENDROOT
BRANCH   2   5
ATOM      5  C   UNL     1       2.385   0.187 -10.094  0.00  0.00    +0.000 C 
ATOM      6  C   UNL     1       1.533  -0.347 -11.258  0.00  0.00    +0.000 C 
ATOM      7  C   UNL     1       0.163   0.334 -11.313  0.00  0.00    +0.000 C 
ATOM      8  C   UNL     1       0.285   1.865 -11.414  0.00  0.00    +0.000 C 
ATOM      9  C   UNL     1       1.197   2.421 -10.310  0.00  0.00    +0.000 C 
ATOM     10  C   UNL     1       2.541   1.702 -10.242  0.00  0.00    +0.000 C 
BRANCH   8  11
ATOM     11  C   UNL     1      -1.088   2.552 -11.330  0.00  0.00    +0.000 C 
BRANCH  11  12
ATOM     12  N   UNL     1      -1.980   2.146 -12.392  0.00  0.00    +0.000 N 
ATOM     13  C   UNL     1      -2.034   2.800 -13.599  0.00  0.00    +0.000 C 
ATOM     14  O   UNL     1      -1.352   3.788 -13.852  0.00  0.00    +0.000 OA
ATOM     15  H   UNL     1      -2.524   1.306 -12.260  0.00  0.00    +0.000 HD
BRANCH  13  16
ATOM     16  C   UNL     1      -2.958   2.241 -14.548  0.00  0.00    +0.000 A 
ATOM     17  C   UNL     1      -3.806   1.150 -14.517  0.00  0.00    +0.000 A 
ATOM     18  C   UNL     1      -4.438   1.139 -15.774  0.00  0.00    +0.000 A 
ATOM     19  N   UNL     1      -4.038   2.146 -16.551  0.00  0.00    +0.000 NA
ATOM     20  N   UNL     1      -3.152   2.804 -15.782  0.00  0.00    +0.000 N 
ATOM     21  H   UNL     1      -2.707   3.641 -16.147  0.00  0.00    +0.000 HD
ENDBRANCH  13  16
ENDBRANCH  11  12
ENDBRANCH   8  11
ENDBRANCH   2   5
BRANCH   1  22
ATOM     22  C   UNL     1       1.530  -0.002  -6.353  0.00  0.00    +0.000 C 
BRANCH  22  23
ATOM     23  C   UNL     1       0.095   0.462  -6.203  0.00  0.00    +0.000 A 
ATOM     24  C   UNL     1      -0.966  -0.412  -6.015  0.00  0.00    +0.000 A 
ATOM     25  S   UNL     1      -2.482   0.371  -5.934  0.00  0.00    +0.000 S 
ATOM     26  C   UNL     1      -1.771   1.903  -6.139  0.00  0.00    +0.000 A 
ATOM     27  N   UNL     1      -2.523   3.035  -6.179  0.00  0.00    +0.000 NA
ATOM     28  C   UNL     1      -1.838   4.124  -6.300  0.00  0.00    +0.000 A 
ATOM     29  N   UNL     1      -0.469   4.184  -6.402  0.00  0.00    +0.000 N 
ATOM     30  C   UNL     1       0.320   3.060  -6.473  0.00  0.00    +0.000 A 
ATOM     31  O   UNL     1       1.514   3.105  -6.752  0.00  0.00    +0.000 OA
ATOM     32  C   UNL     1      -0.399   1.817  -6.267  0.00  0.00    +0.000 A 
ATOM     33  H   UNL     1      -0.005   5.072  -6.528  0.00  0.00    +0.000 HD
ENDBRANCH  22  23
BRANCH  22  35
ATOM     34  N   UNL     1       3.068   0.757  -4.346  0.00  0.00    +0.000 NA
ATOM     35  C   UNL     1       2.383   0.443  -5.227  0.00  0.00    +0.000 C 
ENDBRANCH  22  35
ENDBRANCH   1  22
TORSDOF 7
