REMARK  Name = 
REMARK  7 active torsions:
REMARK  status: ('A' for Active; 'I' for Inactive)
REMARK    1  A    between atoms: C_2  and  C_3
REMARK    2  A    between atoms: C_7  and  N_8
REMARK    3  A    between atoms: N_8  and  C_9
REMARK    4  A    between atoms: C_9  and  C_10
REMARK    5  A    between atoms: C_14  and  C_15
REMARK    6  A    between atoms: C_19  and  O_20
REMARK    7  A    between atoms: O_20  and  C_21
REMARK                            x       y       z     vdW  Elec       q    Type
REMARK                         _______ _______ _______ _____ _____    ______ ____
ROOT
ATOM      1  C   UNL     1      -3.072   4.178   0.256  0.00  0.00    +0.000 A 
ATOM      2  C   UNL     1      -3.852   4.548  -0.847  0.00  0.00    +0.000 A 
ATOM      3  C   UNL     1      -5.228   4.731  -0.721  0.00  0.00    +0.000 A 
ATOM      4  C   UNL     1      -5.850   4.530   0.513  0.00  0.00    +0.000 A 
ATOM      5  C   UNL     1      -5.108   4.193   1.656  0.00  0.00    +0.000 A 
ATOM      6  C   UNL     1      -3.715   4.086   1.509  0.00  0.00    +0.000 A 
ENDROOT
BRANCH   5   7
ATOM      7  C   UNL     1      -5.761   3.836   2.931  0.00  0.00    +0.000 A 
ATOM      8  C   UNL     1      -6.896   3.018   2.945  0.00  0.00    +0.000 A 
ATOM      9  N   UNL     1      -7.548   2.609   4.057  0.00  0.00    +0.000 NA
ATOM     10  C   UNL     1      -7.035   3.019   5.235  0.00  0.00    +0.000 A 
ATOM     11  C   UNL     1      -5.890   3.795   5.360  0.00  0.00    +0.000 A 
ATOM     12  C   UNL     1      -5.260   4.223   4.188  0.00  0.00    +0.000 A 
BRANCH  11  13
ATOM     13  O   UNL     1      -5.511   4.093   6.635  0.00  0.00    +0.000 OA
BRANCH  13  14
ATOM     14  C   UNL     1      -4.121   4.285   6.833  0.00  0.00    +0.000 C 
ATOM     15  F   UNL     1      -3.813   5.571   6.537  0.00  0.00    +0.000 F 
ATOM     16  F   UNL     1      -3.878   4.118   8.158  0.00  0.00    +0.000 F 
ENDBRANCH  13  14
ENDBRANCH  11  13
ENDBRANCH   5   7
BRANCH   1  17
ATOM     17  C   UNL     1      -1.605   3.772   0.098  0.00  0.00    +0.000 C 
ATOM     18  C   UNL     1      -1.159   2.565   0.926  0.00  0.00    +0.000 C 
ATOM     19  C   UNL     1      -1.312   2.431  -0.549  0.00  0.00    +0.000 C 
BRANCH  17  20
ATOM     20  N   UNL     1      -0.663   4.913   0.040  0.00  0.00    +0.000 N 
ATOM     21  H   UNL     1      -0.817   5.577   0.798  0.00  0.00    +0.000 HD
BRANCH  20  26
ATOM     22  C   UNL     1       0.265   5.662  -3.514  0.00  0.00    +0.000 A 
ATOM     23  C   UNL     1       0.575   7.007  -3.360  0.00  0.00    +0.000 A 
ATOM     24  N   UNL     1       0.469   7.663  -2.187  0.00  0.00    +0.000 NA
ATOM     25  C   UNL     1       0.041   6.936  -1.123  0.00  0.00    +0.000 A 
ATOM     26  C   UNL     1      -0.322   5.585  -1.158  0.00  0.00    +0.000 A 
ATOM     27  C   UNL     1      -0.194   4.954  -2.396  0.00  0.00    +0.000 A 
BRANCH  22  29
ATOM     28  N   UNL     1       0.580   4.502  -5.809  0.00  0.00    +0.000 NA
ATOM     29  C   UNL     1       0.437   5.026  -4.780  0.00  0.00    +0.000 C 
ENDBRANCH  22  29
ENDBRANCH  20  26
ENDBRANCH  17  20
ENDBRANCH   1  17
TORSDOF 7
