REMARK  Name = 
REMARK  6 active torsions:
REMARK  status: ('A' for Active; 'I' for Inactive)
REMARK    1  A    between atoms: C_1  and  C_2
REMARK    2  A    between atoms: C_2  and  C_3
REMARK    3  A    between atoms: C_2  and  O_4
REMARK    4  A    between atoms: C_2  and  C_14
REMARK    5  A    between atoms: O_4  and  C_5
REMARK    6  A    between atoms: C_8  and  C_9
REMARK                            x       y       z     vdW  Elec       q    Type
REMARK                         _______ _______ _______ _____ _____    ______ ____
ROOT
ATOM      1  C   UNL     1       1.872  -2.189   0.814  0.00  0.00    +0.000 A 
ATOM      2  C   UNL     1       1.074  -1.860   1.905  0.00  0.00    +0.000 A 
ATOM      3  C   UNL     1       0.201  -2.798   2.451  0.00  0.00    +0.000 A 
ATOM      4  C   UNL     1       0.192  -4.076   1.916  0.00  0.00    +0.000 A 
ATOM      5  N   UNL     1       1.010  -4.476   0.900  0.00  0.00    +0.000 NA
ATOM      6  C   UNL     1       1.830  -3.516   0.387  0.00  0.00    +0.000 A 
ENDROOT
BRANCH   4   7
ATOM      7  C   UNL     1      -0.776  -5.078   2.468  0.00  0.00    +0.000 C 
ATOM      8  N   UNL     1      -0.728  -6.324   1.905  0.00  0.00    +0.000 N 
ATOM      9  O   UNL     1      -1.569  -4.806   3.359  0.00  0.00    +0.000 OA
ATOM     10  H   UNL     1      -0.067  -6.515   1.160  0.00  0.00    +0.000 HD
ATOM     11  H   UNL     1      -1.370  -7.037   2.222  0.00  0.00    +0.000 HD
ENDBRANCH   4   7
BRANCH   1  12
ATOM     12  O   UNL     1       2.695  -1.338   0.136  0.00  0.00    +0.000 OA
BRANCH  12  14
ATOM     13  C   UNL     1       0.834   0.321  -0.190  0.00  0.00    +0.000 C 
ATOM     14  C   UNL     1       2.355   0.062  -0.041  0.00  0.00    +0.000 C 
ATOM     15  C   UNL     1       2.918   0.878   1.140  0.00  0.00    +0.000 C 
BRANCH  14  16
ATOM     16  C   UNL     1       3.037   0.550  -1.386  0.00  0.00    +0.000 C 
ATOM     17  C   UNL     1       2.542  -0.248  -2.616  0.00  0.00    +0.000 C 
ATOM     18  C   UNL     1       3.139   0.276  -3.921  0.00  0.00    +0.000 C 
ATOM     19  C   UNL     1       4.660   0.281  -3.881  0.00  0.00    +0.000 C 
ATOM     20  C   UNL     1       5.171   1.064  -2.680  0.00  0.00    +0.000 C 
ATOM     21  C   UNL     1       4.582   0.541  -1.368  0.00  0.00    +0.000 C 
ENDBRANCH  14  16
ENDBRANCH  12  14
ENDBRANCH   1  12
TORSDOF 4
