REMARK  Name = 
REMARK  5 active torsions:
REMARK  status: ('A' for Active; 'I' for Inactive)
REMARK    1  A    between atoms: C_2  and  C_4
REMARK    2  A    between atoms: C_7  and  O_8
REMARK    3  A    between atoms: O_8  and  C_9
REMARK    4  A    between atoms: C_9  and  C_10
REMARK    5  A    between atoms: C_15  and  C_16
REMARK                            x       y       z     vdW  Elec       q    Type
REMARK                         _______ _______ _______ _____ _____    ______ ____
ROOT
ATOM      1  C   UNL     1       4.989  -3.449  -4.715  0.00  0.00    +0.000 C 
ENDROOT
BRANCH   1   2
ATOM      2  C   UNL     1       5.858  -4.509  -5.348  0.00  0.00    +0.000 A 
ATOM      3  C   UNL     1       6.993  -4.154  -6.080  0.00  0.00    +0.000 A 
ATOM      4  C   UNL     1       7.751  -5.143  -6.689  0.00  0.00    +0.000 A 
ATOM      5  F   UNL     1       8.833  -4.798  -7.400  0.00  0.00    +0.000 F 
ATOM      6  C   UNL     1       7.405  -6.487  -6.584  0.00  0.00    +0.000 A 
ATOM      7  C   UNL     1       6.265  -6.886  -5.864  0.00  0.00    +0.000 A 
ATOM      8  C   UNL     1       5.504  -5.868  -5.254  0.00  0.00    +0.000 A 
BRANCH   7   9
ATOM      9  C   UNL     1       5.875  -8.309  -5.759  0.00  0.00    +0.000 A 
ATOM     10  C   UNL     1       6.123  -9.233  -6.785  0.00  0.00    +0.000 A 
ATOM     11  C   UNL     1       5.743 -10.569  -6.652  0.00  0.00    +0.000 A 
ATOM     12  C   UNL     1       5.106 -10.958  -5.488  0.00  0.00    +0.000 A 
ATOM     13  N   UNL     1       4.838 -10.117  -4.472  0.00  0.00    +0.000 NA
ATOM     14  C   UNL     1       5.231  -8.827  -4.631  0.00  0.00    +0.000 A 
ENDBRANCH   7   9
ENDBRANCH   1   2
BRANCH   1  15
ATOM     15  O   UNL     1       4.927  -3.659  -3.301  0.00  0.00    +0.000 OA
BRANCH  15  19
ATOM     16  C   UNL     1       2.639  -0.812  -1.395  0.00  0.00    +0.000 A 
ATOM     17  C   UNL     1       3.265  -1.810  -0.644  0.00  0.00    +0.000 A 
ATOM     18  C   UNL     1       4.033  -2.776  -1.299  0.00  0.00    +0.000 A 
ATOM     19  C   UNL     1       4.146  -2.704  -2.680  0.00  0.00    +0.000 A 
ATOM     20  N   UNL     1       3.538  -1.759  -3.429  0.00  0.00    +0.000 NA
ATOM     21  C   UNL     1       2.791  -0.842  -2.774  0.00  0.00    +0.000 A 
BRANCH  16  23
ATOM     22  N   UNL     1       2.112   0.654   0.467  0.00  0.00    +0.000 N 
ATOM     23  C   UNL     1       1.816   0.263  -0.809  0.00  0.00    +0.000 C 
ATOM     24  O   UNL     1       0.939   0.819  -1.454  0.00  0.00    +0.000 OA
ATOM     25  H   UNL     1       1.624   1.475   0.803  0.00  0.00    +0.000 HD
ATOM     26  H   UNL     1       2.978   0.407   0.925  0.00  0.00    +0.000 HD
ENDBRANCH  16  23
ENDBRANCH  15  19
ENDBRANCH   1  15
TORSDOF 5
