REMARK  Name = 
REMARK  8 active torsions:
REMARK  status: ('A' for Active; 'I' for Inactive)
REMARK    1  A    between atoms: C_1  and  C_2
REMARK    2  A    between atoms: C_2  and  N_3
REMARK    3  A    between atoms: C_2  and  C_19
REMARK    4  A    between atoms: N_3  and  C_4
REMARK    5  A    between atoms: C_7  and  C_8
REMARK    6  A    between atoms: C_8  and  O_9
REMARK    7  A    between atoms: C_8  and  C_10
REMARK    8  A    between atoms: C_10  and  C_11
REMARK                            x       y       z     vdW  Elec       q    Type
REMARK                         _______ _______ _______ _____ _____    ______ ____
ROOT
ATOM      1  C   UNL     1       0.301   0.172   1.172  0.00  0.00    +0.000 A 
ATOM      2  C   UNL     1       0.966   0.509   2.354  0.00  0.00    +0.000 A 
ATOM      3  C   UNL     1       0.254   0.851   3.506  0.00  0.00    +0.000 A 
ATOM      4  C   UNL     1      -1.146   0.871   3.502  0.00  0.00    +0.000 A 
ATOM      5  C   UNL     1      -1.804   0.653   2.285  0.00  0.00    +0.000 A 
ATOM      6  C   UNL     1      -1.086   0.315   1.136  0.00  0.00    +0.000 A 
ENDROOT
BRANCH   1   7
ATOM      7  N   UNL     1       0.938  -0.267   0.012  0.00  0.00    +0.000 N 
ATOM      8  H   UNL     1       0.931   0.444  -0.712  0.00  0.00    +0.000 HD
BRANCH   7  10
ATOM      9  C   UNL     1       2.248  -2.016  -1.013  0.00  0.00    +0.000 C 
ATOM     10  C   UNL     1       2.209  -0.991   0.127  0.00  0.00    +0.000 C 
BRANCH  10  11
ATOM     11  C   UNL     1       3.467  -0.144   0.122  0.00  0.00    +0.000 A 
ATOM     12  C   UNL     1       3.618   1.054  -0.559  0.00  0.00    +0.000 A 
ATOM     13  S   UNL     1       5.162   1.756  -0.352  0.00  0.00    +0.000 S 
ATOM     14  C   UNL     1       5.673   0.483   0.657  0.00  0.00    +0.000 A 
ATOM     15  N   UNL     1       6.922   0.465   1.192  0.00  0.00    +0.000 NA
ATOM     16  C   UNL     1       7.160  -0.557   1.948  0.00  0.00    +0.000 A 
ATOM     17  N   UNL     1       6.262  -1.561   2.217  0.00  0.00    +0.000 N 
ATOM     18  C   UNL     1       4.993  -1.596   1.684  0.00  0.00    +0.000 A 
ATOM     19  O   UNL     1       4.222  -2.520   1.921  0.00  0.00    +0.000 OA
ATOM     20  C   UNL     1       4.680  -0.461   0.835  0.00  0.00    +0.000 A 
ATOM     21  H   UNL     1       6.513  -2.334   2.817  0.00  0.00    +0.000 HD
ENDBRANCH  10  11
ENDBRANCH   7  10
ENDBRANCH   1   7
BRANCH   4  22
ATOM     22  C   UNL     1      -1.889   1.133   4.797  0.00  0.00    +0.000 C 
BRANCH  22  23
ATOM     23  O   UNL     1      -2.058   2.542   4.912  0.00  0.00    +0.000 OA
ATOM     24  H   UNL     1      -2.755   2.800   4.283  0.00  0.00    +0.000 HD
ENDBRANCH  22  23
BRANCH  22  25
ATOM     25  C   UNL     1      -3.223   0.371   4.895  0.00  0.00    +0.000 C 
BRANCH  25  26
ATOM     26  C   UNL     1      -3.958   0.581   6.191  0.00  0.00    +0.000 A 
ATOM     27  C   UNL     1      -3.412   0.191   7.410  0.00  0.00    +0.000 A 
ATOM     28  C   UNL     1      -4.148   0.405   8.572  0.00  0.00    +0.000 A 
ATOM     29  C   UNL     1      -5.407   0.987   8.484  0.00  0.00    +0.000 A 
ATOM     30  C   UNL     1      -5.882   1.332   7.233  0.00  0.00    +0.000 A 
ATOM     31  N   UNL     1      -5.190   1.140   6.091  0.00  0.00    +0.000 NA
ENDBRANCH  25  26
ENDBRANCH  22  25
ENDBRANCH   4  22
TORSDOF 7
