REMARK  Name = 
REMARK  7 active torsions:
REMARK  status: ('A' for Active; 'I' for Inactive)
REMARK    1  A    between atoms: C_2  and  C_21
REMARK    2  A    between atoms: N_3  and  C_4
REMARK    3  A    between atoms: C_4  and  C_5
REMARK    4  A    between atoms: C_8  and  C_9
REMARK    5  A    between atoms: C_9  and  O_10
REMARK    6  A    between atoms: C_9  and  C_11
REMARK    7  A    between atoms: C_11  and  N_12
REMARK                            x       y       z     vdW  Elec       q    Type
REMARK                         _______ _______ _______ _____ _____    ______ ____
ROOT
ATOM      1  C   UNL     1       3.294  -3.493  -1.018  0.00  0.00    +0.000 A 
ATOM      2  C   UNL     1       2.884  -4.807  -0.838  0.00  0.00    +0.000 A 
ATOM      3  N   UNL     1       3.692  -5.869  -1.079  0.00  0.00    +0.000 NA
ATOM      4  C   UNL     1       4.946  -5.588  -1.519  0.00  0.00    +0.000 A 
ATOM      5  C   UNL     1       5.366  -4.269  -1.661  0.00  0.00    +0.000 A 
ATOM      6  N   UNL     1       4.560  -3.204  -1.420  0.00  0.00    +0.000 NA
ENDROOT
BRANCH   1   7
ATOM      7  C   UNL     1       2.337  -2.356  -0.774  0.00  0.00    +0.000 C 
BRANCH   7  10
ATOM      8  O   UNL     1       0.587  -3.281   1.216  0.00  0.00    +0.000 OA
ATOM      9  C   UNL     1       1.454  -2.472   1.529  0.00  0.00    +0.000 C 
ATOM     10  N   UNL     1       2.314  -1.933   0.607  0.00  0.00    +0.000 N 
ATOM     11  H   UNL     1       3.136  -1.430   0.924  0.00  0.00    +0.000 HD
BRANCH   9  12
ATOM     12  C   UNL     1       1.602  -1.995   2.910  0.00  0.00    +0.000 A 
ATOM     13  C   UNL     1       0.518  -2.018   3.777  0.00  0.00    +0.000 A 
ATOM     14  S   UNL     1       0.877  -1.417   5.333  0.00  0.00    +0.000 S 
ATOM     15  C   UNL     1       2.504  -1.147   4.915  0.00  0.00    +0.000 A 
ATOM     16  N   UNL     1       3.394  -0.662   5.823  0.00  0.00    +0.000 NA
ATOM     17  C   UNL     1       4.602  -0.554   5.382  0.00  0.00    +0.000 A 
ATOM     18  N   UNL     1       5.002  -0.876   4.110  0.00  0.00    +0.000 N 
ATOM     19  C   UNL     1       4.125  -1.294   3.141  0.00  0.00    +0.000 A 
ATOM     20  O   UNL     1       4.488  -1.450   1.979  0.00  0.00    +0.000 OA
ATOM     21  C   UNL     1       2.762  -1.483   3.599  0.00  0.00    +0.000 A 
ATOM     22  H   UNL     1       5.957  -0.739   3.815  0.00  0.00    +0.000 HD
ENDBRANCH   9  12
ENDBRANCH   7  10
ENDBRANCH   1   7
BRANCH   4  23
ATOM     23  C   UNL     1       5.891  -6.729  -1.842  0.00  0.00    +0.000 C 
BRANCH  23  24
ATOM     24  O   UNL     1       7.027  -6.678  -0.959  0.00  0.00    +0.000 OA
ATOM     25  H   UNL     1       6.668  -6.762  -0.057  0.00  0.00    +0.000 HD
ENDBRANCH  23  24
BRANCH  23  26
ATOM     26  C   UNL     1       5.210  -8.114  -1.721  0.00  0.00    +0.000 C 
BRANCH  26  27
ATOM     27  N   UNL     1       6.151  -9.191  -2.075  0.00  0.00    +0.000 N 
ATOM     28  C   UNL     1       5.613 -10.480  -1.895  0.00  0.00    +0.000 A 
ATOM     29  C   UNL     1       6.414 -11.581  -2.180  0.00  0.00    +0.000 A 
ATOM     30  C   UNL     1       5.894 -12.868  -2.030  0.00  0.00    +0.000 A 
ATOM     31  C   UNL     1       4.584 -13.023  -1.603  0.00  0.00    +0.000 A 
ATOM     32  C   UNL     1       3.849 -11.881  -1.351  0.00  0.00    +0.000 A 
ATOM     33  N   UNL     1       4.334 -10.628  -1.494  0.00  0.00    +0.000 NA
ATOM     34  H   UNL     1       7.019  -9.110  -1.549  0.00  0.00    +0.000 HD
ENDBRANCH  26  27
ENDBRANCH  23  26
ENDBRANCH   4  23
TORSDOF 7
