REMARK  Name = 
REMARK  9 active torsions:
REMARK  status: ('A' for Active; 'I' for Inactive)
REMARK    1  A    between atoms: C_1  and  O_2
REMARK    2  A    between atoms: O_2  and  C_3
REMARK    3  A    between atoms: C_10  and  C_11
REMARK    4  A    between atoms: N_13  and  C_14
REMARK    5  A    between atoms: C_14  and  C_15
REMARK    6  A    between atoms: C_18  and  N_19
REMARK    7  A    between atoms: N_19  and  C_20
REMARK    8  A    between atoms: C_20  and  C_21
REMARK    9  A    between atoms: C_21  and  N_22
REMARK                            x       y       z     vdW  Elec       q    Type
REMARK                         _______ _______ _______ _____ _____    ______ ____
ROOT
ATOM      1  C   UNL     1       2.764   1.331   3.093  0.00  0.00    +0.000 C 
ENDROOT
BRANCH   1   2
ATOM      2  C   UNL     1       1.700   2.280   2.592  0.00  0.00    +0.000 A 
ATOM      3  C   UNL     1       0.424   1.812   2.269  0.00  0.00    +0.000 A 
ATOM      4  C   UNL     1      -0.558   2.681   1.770  0.00  0.00    +0.000 A 
ATOM      5  C   UNL     1      -0.315   4.053   1.621  0.00  0.00    +0.000 A 
ATOM      6  C   UNL     1       0.964   4.514   1.945  0.00  0.00    +0.000 A 
ATOM      7  C   UNL     1       1.958   3.645   2.425  0.00  0.00    +0.000 A 
BRANCH   5   8
ATOM      8  N   UNL     1      -1.279   4.979   1.171  0.00  0.00    +0.000 N 
ATOM      9  H   UNL     1      -1.179   5.223   0.185  0.00  0.00    +0.000 HD
BRANCH   8  10
ATOM     10  C   UNL     1      -2.667   4.684   1.548  0.00  0.00    +0.000 C 
BRANCH  10  11
ATOM     11  C   UNL     1      -3.692   5.739   1.049  0.00  0.00    +0.000 C 
BRANCH  11  12
ATOM     12  N   UNL     1      -3.742   5.888  -0.428  0.00  0.00    +0.000 NA
ATOM     13  C   UNL     1      -4.139   4.620  -1.067  0.00  0.00    +0.000 C 
ATOM     14  C   UNL     1      -4.134   4.727  -2.591  0.00  0.00    +0.000 C 
ATOM     15  C   UNL     1      -5.014   5.871  -3.075  0.00  0.00    +0.000 C 
ATOM     16  C   UNL     1      -4.629   7.161  -2.367  0.00  0.00    +0.000 C 
ATOM     17  C   UNL     1      -4.638   6.980  -0.847  0.00  0.00    +0.000 C 
ENDBRANCH  11  12
ENDBRANCH  10  11
ENDBRANCH   8  10
ENDBRANCH   5   8
ENDBRANCH   1   2
BRANCH   1  20
ATOM     18  C   UNL     1       4.553  -0.143   2.256  0.00  0.00    +0.000 C 
ATOM     19  O   UNL     1       4.846  -0.484   3.389  0.00  0.00    +0.000 OA
ATOM     20  N   UNL     1       3.534   0.749   2.015  0.00  0.00    +0.000 N 
ATOM     21  H   UNL     1       3.387   1.113   1.086  0.00  0.00    +0.000 HD
BRANCH  18  29
ATOM     22  C   UNL     1       4.226   0.311  -1.139  0.00  0.00    +0.000 A 
ATOM     23  N   UNL     1       4.315   0.316  -2.481  0.00  0.00    +0.000 NA
ATOM     24  C   UNL     1       5.254  -0.433  -3.054  0.00  0.00    +0.000 A 
ATOM     25  N   UNL     1       6.136  -1.211  -2.434  0.00  0.00    +0.000 NA
ATOM     26  C   UNL     1       6.017  -1.182  -1.095  0.00  0.00    +0.000 A 
ATOM     27  S   UNL     1       7.062  -2.116  -0.140  0.00  0.00    +0.000 S 
ATOM     28  C   UNL     1       6.320  -1.573   1.292  0.00  0.00    +0.000 A 
ATOM     29  C   UNL     1       5.279  -0.674   1.082  0.00  0.00    +0.000 A 
ATOM     30  C   UNL     1       5.100  -0.449  -0.349  0.00  0.00    +0.000 A 
BRANCH  22  32
ATOM     31  C   UNL     1       2.168   1.291  -1.462  0.00  0.00    +0.000 C 
ATOM     32  O   UNL     1       3.272   1.128  -0.574  0.00  0.00    +0.000 OA
ENDBRANCH  22  32
ENDBRANCH  18  29
ENDBRANCH   1  20
TORSDOF 8
