REMARK  Name = 
REMARK  8 active torsions:
REMARK  status: ('A' for Active; 'I' for Inactive)
REMARK    1  A    between atoms: C_1  and  C_2
REMARK    2  A    between atoms: C_2  and  N_3
REMARK    3  A    between atoms: N_3  and  C_4
REMARK    4  A    between atoms: C_4  and  C_5
REMARK    5  A    between atoms: C_8  and  C_9
REMARK    6  A    between atoms: C_9  and  O_10
REMARK    7  A    between atoms: O_10  and  C_11
REMARK    8  A    between atoms: C_19  and  C_21
REMARK                            x       y       z     vdW  Elec       q    Type
REMARK                         _______ _______ _______ _____ _____    ______ ____
ROOT
ATOM      1  N   UNL     1       2.953   1.259   0.311  0.00  0.00    +0.000 N 
ATOM      2  C   UNL     1       4.198   1.431  -0.321  0.00  0.00    +0.000 C 
ATOM      3  O   UNL     1       4.959   0.483  -0.507  0.00  0.00    +0.000 OA
ENDROOT
BRANCH   2   4
ATOM      4  C   UNL     1       4.629   2.769  -0.726  0.00  0.00    +0.000 A 
ATOM      5  C   UNL     1       4.626   3.881   0.100  0.00  0.00    +0.000 A 
ATOM      6  S   UNL     1       5.313   5.266  -0.627  0.00  0.00    +0.000 S 
ATOM      7  C   UNL     1       5.746   4.386  -2.018  0.00  0.00    +0.000 A 
ATOM      8  N   UNL     1       6.471   4.959  -3.016  0.00  0.00    +0.000 NA
ATOM      9  C   UNL     1       6.788   4.146  -3.970  0.00  0.00    +0.000 A 
ATOM     10  N   UNL     1       6.413   2.827  -4.036  0.00  0.00    +0.000 N 
ATOM     11  C   UNL     1       5.567   2.243  -3.117  0.00  0.00    +0.000 A 
ATOM     12  O   UNL     1       5.063   1.146  -3.327  0.00  0.00    +0.000 OA
ATOM     13  C   UNL     1       5.291   3.084  -1.966  0.00  0.00    +0.000 A 
ATOM     14  H   UNL     1       6.637   2.266  -4.843  0.00  0.00    +0.000 HD
ENDBRANCH   2   4
BRANCH   1  16
ATOM     15  C   UNL     1       2.235  -1.049  -0.311  0.00  0.00    +0.000 C 
ATOM     16  C   UNL     1       2.677  -0.101   0.798  0.00  0.00    +0.000 C 
ENDBRANCH   1  16
BRANCH   1  17
ATOM     17  C   UNL     1       1.999   2.359   0.558  0.00  0.00    +0.000 C 
BRANCH  17  18
ATOM     18  C   UNL     1       0.588   1.954   0.899  0.00  0.00    +0.000 A 
ATOM     19  C   UNL     1       0.195   1.817   2.240  0.00  0.00    +0.000 A 
ATOM     20  C   UNL     1      -1.005   1.183   2.558  0.00  0.00    +0.000 A 
ATOM     21  C   UNL     1      -1.825   0.694   1.539  0.00  0.00    +0.000 A 
ATOM     22  C   UNL     1      -1.518   0.990   0.205  0.00  0.00    +0.000 A 
ATOM     23  C   UNL     1      -0.312   1.611  -0.114  0.00  0.00    +0.000 A 
BRANCH  21  24
ATOM     24  C   UNL     1      -2.944  -0.264   1.857  0.00  0.00    +0.000 C 
BRANCH  24  25
ATOM     25  O   UNL     1      -4.168   0.421   2.104  0.00  0.00    +0.000 OA
BRANCH  25  26
ATOM     26  C   UNL     1      -5.231  -0.389   2.408  0.00  0.00    +0.000 A 
ATOM     27  C   UNL     1      -5.212  -1.783   2.459  0.00  0.00    +0.000 A 
ATOM     28  C   UNL     1      -6.385  -2.445   2.787  0.00  0.00    +0.000 A 
ATOM     29  N   UNL     1      -7.547  -1.820   3.061  0.00  0.00    +0.000 NA
ATOM     30  C   UNL     1      -7.541  -0.473   3.003  0.00  0.00    +0.000 A 
ATOM     31  C   UNL     1      -6.419   0.278   2.683  0.00  0.00    +0.000 A 
ENDBRANCH  25  26
ENDBRANCH  24  25
ENDBRANCH  21  24
ENDBRANCH  17  18
ENDBRANCH   1  17
TORSDOF 7
