REMARK  Name = 
REMARK  8 active torsions:
REMARK  status: ('A' for Active; 'I' for Inactive)
REMARK    1  A    between atoms: C_2  and  C_4
REMARK    2  A    between atoms: C_7  and  N_8
REMARK    3  A    between atoms: N_8  and  C_9
REMARK    4  A    between atoms: C_9  and  C_10
REMARK    5  A    between atoms: C_10  and  C_11
REMARK    6  A    between atoms: C_15  and  C_16
REMARK    7  A    between atoms: C_21  and  C_22
REMARK    8  A    between atoms: C_22  and  O_23
REMARK                            x       y       z     vdW  Elec       q    Type
REMARK                         _______ _______ _______ _____ _____    ______ ____
ROOT
ATOM      1  C   UNL     1       6.024  -6.457  -3.145  0.00  0.00    +0.000 C 
ENDROOT
BRANCH   1   2
ATOM      2  C   UNL     1       5.681  -7.390  -4.281  0.00  0.00    +0.000 A 
ATOM      3  C   UNL     1       6.235  -8.672  -4.326  0.00  0.00    +0.000 A 
ATOM      4  C   UNL     1       5.977  -9.506  -5.408  0.00  0.00    +0.000 A 
ATOM      5  C   UNL     1       5.125  -9.081  -6.430  0.00  0.00    +0.000 A 
ATOM      6  C   UNL     1       4.438  -7.858  -6.352  0.00  0.00    +0.000 A 
ATOM      7  C   UNL     1       4.777  -7.001  -5.287  0.00  0.00    +0.000 A 
BRANCH   6   8
ATOM      8  C   UNL     1       3.370  -7.486  -7.316  0.00  0.00    +0.000 A 
ATOM      9  N   UNL     1       3.380  -6.174  -7.681  0.00  0.00    +0.000 NA
ATOM     10  C   UNL     1       2.425  -5.735  -8.533  0.00  0.00    +0.000 A 
ATOM     11  C   UNL     1       1.443  -6.542  -9.067  0.00  0.00    +0.000 A 
ATOM     12  C   UNL     1       1.428  -7.877  -8.692  0.00  0.00    +0.000 A 
ATOM     13  C   UNL     1       2.375  -8.374  -7.776  0.00  0.00    +0.000 A 
BRANCH  13  14
ATOM     14  C   UNL     1       2.306  -9.820  -7.364  0.00  0.00    +0.000 C 
BRANCH  14  15
ATOM     15  O   UNL     1       0.972 -10.319  -7.378  0.00  0.00    +0.000 OA
ATOM     16  H   UNL     1       0.524  -9.911  -6.618  0.00  0.00    +0.000 HD
ENDBRANCH  14  15
ENDBRANCH  13  14
ENDBRANCH   6   8
ENDBRANCH   1   2
BRANCH   1  17
ATOM     17  C   UNL     1       5.032  -6.581  -1.985  0.00  0.00    +0.000 C 
BRANCH  17  18
ATOM     18  N   UNL     1       5.390  -5.659  -0.910  0.00  0.00    +0.000 N 
ATOM     19  H   UNL     1       6.385  -5.575  -0.724  0.00  0.00    +0.000 HD
BRANCH  18  23
ATOM     20  C   UNL     1       3.043  -5.245   2.578  0.00  0.00    +0.000 A 
ATOM     21  C   UNL     1       2.657  -6.162   1.599  0.00  0.00    +0.000 A 
ATOM     22  C   UNL     1       3.435  -6.320   0.442  0.00  0.00    +0.000 A 
ATOM     23  C   UNL     1       4.620  -5.601   0.256  0.00  0.00    +0.000 A 
ATOM     24  C   UNL     1       4.978  -4.669   1.241  0.00  0.00    +0.000 A 
ATOM     25  C   UNL     1       4.198  -4.486   2.390  0.00  0.00    +0.000 A 
BRANCH  20  27
ATOM     26  N   UNL     1       1.467  -6.069   4.243  0.00  0.00    +0.000 N 
ATOM     27  C   UNL     1       2.229  -5.022   3.802  0.00  0.00    +0.000 C 
ATOM     28  O   UNL     1       2.260  -3.964   4.416  0.00  0.00    +0.000 OA
ATOM     29  H   UNL     1       0.999  -5.939   5.131  0.00  0.00    +0.000 HD
ATOM     30  H   UNL     1       1.610  -7.016   3.922  0.00  0.00    +0.000 HD
ENDBRANCH  20  27
ENDBRANCH  18  23
ENDBRANCH  17  18
ENDBRANCH   1  17
TORSDOF 8
