REMARK  Name = 
REMARK  7 active torsions:
REMARK  status: ('A' for Active; 'I' for Inactive)
REMARK    1  A    between atoms: N_1  and  C_2
REMARK    2  A    between atoms: C_2  and  N_3
REMARK    3  A    between atoms: C_2  and  C_16
REMARK    4  A    between atoms: C_4  and  C_6
REMARK    5  A    between atoms: C_19  and  C_20
REMARK    6  A    between atoms: C_20  and  N_21
REMARK    7  A    between atoms: C_22  and  C_24
REMARK                            x       y       z     vdW  Elec       q    Type
REMARK                         _______ _______ _______ _____ _____    ______ ____
ROOT
ATOM      1  C   UNL     1       2.490  -0.101   0.120  0.00  0.00    +0.000 C 
ENDROOT
BRANCH   1   2
ATOM      2  C   UNL     1       3.012  -1.006  -0.981  0.00  0.00    +0.000 A 
ATOM      3  C   UNL     1       3.816  -0.487  -2.009  0.00  0.00    +0.000 A 
ATOM      4  C   UNL     1       4.226  -1.297  -3.076  0.00  0.00    +0.000 A 
ATOM      5  C   UNL     1       3.832  -2.639  -3.147  0.00  0.00    +0.000 A 
ATOM      6  C   UNL     1       3.070  -3.173  -2.101  0.00  0.00    +0.000 A 
ATOM      7  C   UNL     1       2.666  -2.367  -1.034  0.00  0.00    +0.000 A 
BRANCH   5   8
ATOM      8  C   UNL     1       4.201  -3.496  -4.328  0.00  0.00    +0.000 C 
BRANCH   8   9
ATOM      9  N   UNL     1       5.422  -4.232  -4.101  0.00  0.00    +0.000 N 
ATOM     10  C   UNL     1       5.961  -5.020  -5.088  0.00  0.00    +0.000 C 
ATOM     11  O   UNL     1       5.426  -5.153  -6.187  0.00  0.00    +0.000 OA
ATOM     12  H   UNL     1       5.826  -4.222  -3.170  0.00  0.00    +0.000 HD
BRANCH  10  13
ATOM     13  C   UNL     1       7.216  -5.811  -4.734  0.00  0.00    +0.000 C 
ATOM     14  C   UNL     1       6.882  -7.113  -4.045  0.00  0.00    +0.000 C 
ATOM     15  C   UNL     1       6.803  -6.718  -2.585  0.00  0.00    +0.000 C 
ATOM     16  O   UNL     1       7.600  -5.533  -2.421  0.00  0.00    +0.000 OA
ATOM     17  C   UNL     1       8.103  -5.136  -3.711  0.00  0.00    +0.000 C 
ENDBRANCH  10  13
ENDBRANCH   8   9
ENDBRANCH   5   8
ENDBRANCH   1   2
BRANCH   1  18
ATOM     18  N   UNL     1       2.848  -0.588   1.422  0.00  0.00    +0.000 N 
ATOM     19  C   UNL     1       2.531   0.101   2.569  0.00  0.00    +0.000 C 
ATOM     20  O   UNL     1       1.806   1.093   2.557  0.00  0.00    +0.000 OA
ATOM     21  H   UNL     1       3.690  -1.155   1.447  0.00  0.00    +0.000 HD
BRANCH  19  22
ATOM     22  C   UNL     1       3.000  -0.470   3.835  0.00  0.00    +0.000 A 
ATOM     23  C   UNL     1       2.264  -0.258   4.993  0.00  0.00    +0.000 A 
ATOM     24  S   UNL     1       2.935  -0.996   6.376  0.00  0.00    +0.000 S 
ATOM     25  C   UNL     1       4.257  -1.588   5.483  0.00  0.00    +0.000 A 
ATOM     26  N   UNL     1       5.252  -2.289   6.088  0.00  0.00    +0.000 NA
ATOM     27  C   UNL     1       6.207  -2.649   5.296  0.00  0.00    +0.000 A 
ATOM     28  N   UNL     1       6.248  -2.385   3.950  0.00  0.00    +0.000 N 
ATOM     29  C   UNL     1       5.246  -1.712   3.290  0.00  0.00    +0.000 A 
ATOM     30  O   UNL     1       5.271  -1.537   2.075  0.00  0.00    +0.000 OA
ATOM     31  C   UNL     1       4.168  -1.258   4.143  0.00  0.00    +0.000 A 
ATOM     32  H   UNL     1       7.018  -2.713   3.385  0.00  0.00    +0.000 HD
ENDBRANCH  19  22
ENDBRANCH   1  18
BRANCH   1  33
ATOM     33  N   UNL     1       1.041  -0.054   0.077  0.00  0.00    +0.000 NA
ATOM     34  H   UNL     1       0.757   0.606   0.806  0.00  0.00    +0.000 HD
ATOM     35  H   UNL     1       0.695  -0.954   0.394  0.00  0.00    +0.000 HD
ENDBRANCH   1  33
TORSDOF 7
