REMARK  Name = 
REMARK  5 active torsions:
REMARK  status: ('A' for Active; 'I' for Inactive)
REMARK    1  A    between atoms: C_1  and  C_2
REMARK    2  A    between atoms: C_2  and  C_3
REMARK    3  A    between atoms: C_2  and  C_14
REMARK    4  A    between atoms: C_3  and  N_4
REMARK    5  A    between atoms: C_9  and  C_10
REMARK                            x       y       z     vdW  Elec       q    Type
REMARK                         _______ _______ _______ _____ _____    ______ ____
ROOT
ATOM      1  N   UNL     1       2.837  -2.377  -0.708  0.00  0.00    +0.000 N 
ATOM      2  C   UNL     1       3.409  -3.344  -1.528  0.00  0.00    +0.000 A 
ATOM      3  N   UNL     1       2.743  -4.503  -1.648  0.00  0.00    +0.000 NA
ATOM      4  C   UNL     1       3.326  -5.489  -2.362  0.00  0.00    +0.000 A 
ATOM      5  C   UNL     1       4.552  -5.363  -2.955  0.00  0.00    +0.000 A 
ATOM      6  C   UNL     1       5.139  -4.136  -2.790  0.00  0.00    +0.000 A 
ATOM      7  N   UNL     1       4.586  -3.105  -2.107  0.00  0.00    +0.000 NA
ATOM      8  H   UNL     1       1.887  -2.677  -0.533  0.00  0.00    +0.000 HD
ENDROOT
BRANCH   6   9
ATOM      9  C   UNL     1       6.503  -3.887  -3.344  0.00  0.00    +0.000 C 
ATOM     10  N   UNL     1       7.000  -2.626  -3.152  0.00  0.00    +0.000 N 
ATOM     11  O   UNL     1       7.149  -4.757  -3.918  0.00  0.00    +0.000 OA
ATOM     12  H   UNL     1       6.473  -1.963  -2.596  0.00  0.00    +0.000 HD
ATOM     13  H   UNL     1       7.954  -2.428  -3.417  0.00  0.00    +0.000 HD
ENDBRANCH   6   9
BRANCH   1  14
ATOM     14  C   UNL     1       3.003  -1.029  -1.203  0.00  0.00    +0.000 C 
BRANCH  14  16
ATOM     15  C   UNL     1       0.863  -0.155  -0.038  0.00  0.00    +0.000 C 
ATOM     16  C   UNL     1       2.342  -0.042  -0.273  0.00  0.00    +0.000 C 
BRANCH  16  17
ATOM     17  C   UNL     1       2.983   1.340  -0.215  0.00  0.00    +0.000 C 
ATOM     18  C   UNL     1       2.742   2.085   1.110  0.00  0.00    +0.000 C 
ATOM     19  C   UNL     1       3.426   3.454   1.112  0.00  0.00    +0.000 C 
ATOM     20  C   UNL     1       2.984   4.303  -0.077  0.00  0.00    +0.000 C 
ATOM     21  C   UNL     1       3.216   3.575  -1.397  0.00  0.00    +0.000 C 
ATOM     22  C   UNL     1       2.538   2.207  -1.408  0.00  0.00    +0.000 C 
ENDBRANCH  16  17
ENDBRANCH  14  16
ENDBRANCH   1  14
TORSDOF 4
