REMARK  Name = 
REMARK  7 active torsions:
REMARK  status: ('A' for Active; 'I' for Inactive)
REMARK    1  A    between atoms: C_1  and  C_2
REMARK    2  A    between atoms: C_2  and  N_3
REMARK    3  A    between atoms: C_2  and  C_16
REMARK    4  A    between atoms: C_4  and  C_6
REMARK    5  A    between atoms: C_19  and  C_20
REMARK    6  A    between atoms: C_20  and  N_21
REMARK    7  A    between atoms: C_22  and  C_24
REMARK                            x       y       z     vdW  Elec       q    Type
REMARK                         _______ _______ _______ _____ _____    ______ ____
ROOT
ATOM      1  C   UNL     1       3.670  -0.700  -0.813  0.00  0.00    +0.000 C 
ATOM      2  C   UNL     1       2.480   0.004  -0.151  0.00  0.00    +0.000 C 
ENDROOT
BRANCH   2   3
ATOM      3  C   UNL     1       2.882   0.559   1.212  0.00  0.00    +0.000 A 
ATOM      4  C   UNL     1       2.852   1.937   1.464  0.00  0.00    +0.000 A 
ATOM      5  C   UNL     1       3.182   2.439   2.729  0.00  0.00    +0.000 A 
ATOM      6  C   UNL     1       3.556   1.577   3.769  0.00  0.00    +0.000 A 
ATOM      7  C   UNL     1       3.574   0.199   3.525  0.00  0.00    +0.000 A 
ATOM      8  C   UNL     1       3.248  -0.302   2.261  0.00  0.00    +0.000 A 
BRANCH   6   9
ATOM      9  C   UNL     1       3.890   2.114   5.137  0.00  0.00    +0.000 C 
BRANCH   9  10
ATOM     10  N   UNL     1       2.715   2.177   5.976  0.00  0.00    +0.000 N 
ATOM     11  C   UNL     1       2.799   2.603   7.283  0.00  0.00    +0.000 C 
ATOM     12  O   UNL     1       3.850   2.945   7.817  0.00  0.00    +0.000 OA
ATOM     13  H   UNL     1       1.813   2.131   5.522  0.00  0.00    +0.000 HD
BRANCH  11  14
ATOM     14  C   UNL     1       1.515   2.659   8.035  0.00  0.00    +0.000 A 
ATOM     15  C   UNL     1       0.464   1.776   7.750  0.00  0.00    +0.000 A 
ATOM     16  C   UNL     1      -0.730   1.850   8.471  0.00  0.00    +0.000 A 
ATOM     17  C   UNL     1      -0.877   2.798   9.483  0.00  0.00    +0.000 A 
ATOM     18  C   UNL     1       0.172   3.666   9.786  0.00  0.00    +0.000 A 
ATOM     19  C   UNL     1       1.369   3.594   9.069  0.00  0.00    +0.000 A 
ENDBRANCH  11  14
ENDBRANCH   9  10
ENDBRANCH   6   9
ENDBRANCH   2   3
BRANCH   2  20
ATOM     20  N   UNL     1       1.336  -0.876   0.030  0.00  0.00    +0.000 N 
ATOM     21  C   UNL     1       0.677  -1.508  -0.992  0.00  0.00    +0.000 C 
ATOM     22  O   UNL     1       1.023  -1.428  -2.165  0.00  0.00    +0.000 OA
ATOM     23  H   UNL     1       0.818  -0.726   0.890  0.00  0.00    +0.000 HD
BRANCH  21  24
ATOM     24  C   UNL     1      -0.437  -2.372  -0.581  0.00  0.00    +0.000 A 
ATOM     25  C   UNL     1      -0.770  -3.485  -1.340  0.00  0.00    +0.000 A 
ATOM     26  S   UNL     1      -2.045  -4.405  -0.676  0.00  0.00    +0.000 S 
ATOM     27  C   UNL     1      -2.229  -3.318   0.621  0.00  0.00    +0.000 A 
ATOM     28  N   UNL     1      -3.183  -3.513   1.570  0.00  0.00    +0.000 NA
ATOM     29  C   UNL     1      -3.232  -2.591   2.474  0.00  0.00    +0.000 A 
ATOM     30  N   UNL     1      -2.408  -1.495   2.518  0.00  0.00    +0.000 N 
ATOM     31  C   UNL     1      -1.410  -1.278   1.602  0.00  0.00    +0.000 A 
ATOM     32  O   UNL     1      -0.653  -0.317   1.701  0.00  0.00    +0.000 OA
ATOM     33  C   UNL     1      -1.321  -2.277   0.556  0.00  0.00    +0.000 A 
ATOM     34  H   UNL     1      -2.494  -0.813   3.255  0.00  0.00    +0.000 HD
ENDBRANCH  21  24
ENDBRANCH   2  20
TORSDOF 6
