REMARK  Name = 
REMARK  4 active torsions:
REMARK  status: ('A' for Active; 'I' for Inactive)
REMARK    1  A    between atoms: C_4  and  C_5
REMARK    2  A    between atoms: C_5  and  N_6
REMARK    3  A    between atoms: N_6  and  C_7
REMARK    4  A    between atoms: C_14  and  C_15
REMARK                            x       y       z     vdW  Elec       q    Type
REMARK                         _______ _______ _______ _____ _____    ______ ____
ROOT
ATOM      1 CL   UNL     1      -2.210   0.006  -0.031  0.00  0.00    +0.000 Cl
ATOM      2  C   UNL     1      -0.488  -0.006  -0.037  0.00  0.00    +0.000 A 
ATOM      3  C   UNL     1       0.208   1.191  -0.063  0.00  0.00    +0.000 A 
ATOM      4  C   UNL     1       1.594   1.139  -0.053  0.00  0.00    +0.000 A 
ATOM      5  N   UNL     1       2.271  -0.042  -0.041  0.00  0.00    +0.000 NA
ATOM      6  C   UNL     1       1.576  -1.209  -0.021  0.00  0.00    +0.000 A 
ATOM      7  C   UNL     1       0.187  -1.219  -0.014  0.00  0.00    +0.000 A 
ENDROOT
BRANCH   6   8
ATOM      8  C   UNL     1       2.377  -2.444  -0.043  0.00  0.00    +0.000 A 
ATOM      9  C   UNL     1       1.946  -3.644   0.547  0.00  0.00    +0.000 A 
ATOM     10  C   UNL     1       2.710  -4.806   0.439  0.00  0.00    +0.000 A 
ATOM     11  C   UNL     1       3.906  -4.743  -0.251  0.00  0.00    +0.000 A 
ATOM     12  N   UNL     1       4.382  -3.614  -0.811  0.00  0.00    +0.000 NA
ATOM     13  C   UNL     1       3.614  -2.498  -0.688  0.00  0.00    +0.000 A 
ENDBRANCH   6   8
BRANCH   4  14
ATOM     14  C   UNL     1       2.410   2.421  -0.058  0.00  0.00    +0.000 C 
BRANCH  14  15
ATOM     15  N   UNL     1       2.658   2.890  -1.420  0.00  0.00    +0.000 N 
ATOM     16  H   UNL     1       1.839   2.838  -2.020  0.00  0.00    +0.000 HD
BRANCH  15  17
ATOM     17  C   UNL     1       3.416   4.047  -1.625  0.00  0.00    +0.000 A 
ATOM     18  C   UNL     1       4.385   4.511  -0.732  0.00  0.00    +0.000 A 
ATOM     19  C   UNL     1       5.167   5.626  -1.041  0.00  0.00    +0.000 A 
ATOM     20  C   UNL     1       4.974   6.250  -2.260  0.00  0.00    +0.000 A 
ATOM     21  N   UNL     1       4.079   5.829  -3.173  0.00  0.00    +0.000 NA
ATOM     22  C   UNL     1       3.347   4.735  -2.841  0.00  0.00    +0.000 A 
ENDBRANCH  15  17
ENDBRANCH  14  15
ENDBRANCH   4  14
TORSDOF 4
