REMARK  Name = 
REMARK  7 active torsions:
REMARK  status: ('A' for Active; 'I' for Inactive)
REMARK    1  A    between atoms: C_1  and  C_2
REMARK    2  A    between atoms: C_2  and  N_3
REMARK    3  A    between atoms: C_2  and  C_16
REMARK    4  A    between atoms: C_4  and  C_6
REMARK    5  A    between atoms: C_19  and  C_20
REMARK    6  A    between atoms: C_20  and  N_21
REMARK    7  A    between atoms: C_22  and  C_24
REMARK                            x       y       z     vdW  Elec       q    Type
REMARK                         _______ _______ _______ _____ _____    ______ ____
ROOT
ATOM      1  C   UNL     1       1.507  -0.706  -1.023  0.00  0.00    +0.000 C 
ATOM      2  C   UNL     1       2.542   0.011  -0.144  0.00  0.00    +0.000 C 
ENDROOT
BRANCH   2   3
ATOM      3  C   UNL     1       2.915  -0.759   1.114  0.00  0.00    +0.000 A 
ATOM      4  C   UNL     1       3.296  -0.095   2.290  0.00  0.00    +0.000 A 
ATOM      5  C   UNL     1       3.579  -0.810   3.464  0.00  0.00    +0.000 A 
ATOM      6  C   UNL     1       3.496  -2.211   3.495  0.00  0.00    +0.000 A 
ATOM      7  C   UNL     1       3.158  -2.874   2.307  0.00  0.00    +0.000 A 
ATOM      8  C   UNL     1       2.888  -2.159   1.135  0.00  0.00    +0.000 A 
BRANCH   6   9
ATOM      9  C   UNL     1       3.773  -3.013   4.744  0.00  0.00    +0.000 C 
BRANCH   9  10
ATOM     10  N   UNL     1       2.611  -3.265   5.565  0.00  0.00    +0.000 N 
ATOM     11  C   UNL     1       2.686  -3.981   6.745  0.00  0.00    +0.000 C 
ATOM     12  O   UNL     1       3.750  -4.460   7.149  0.00  0.00    +0.000 OA
ATOM     13  H   UNL     1       1.691  -2.919   5.310  0.00  0.00    +0.000 HD
BRANCH  11  14
ATOM     14  C   UNL     1       1.409  -4.083   7.449  0.00  0.00    +0.000 A 
ATOM     15  N   UNL     1       0.280  -3.567   6.987  0.00  0.00    +0.000 NA
ATOM     16  C   UNL     1      -0.736  -3.821   7.891  0.00  0.00    +0.000 A 
ATOM     17  C   UNL     1      -0.356  -4.460   9.051  0.00  0.00    +0.000 A 
ATOM     18  S   UNL     1       1.310  -4.850   8.980  0.00  0.00    +0.000 S 
ENDBRANCH  11  14
ENDBRANCH   9  10
ENDBRANCH   6   9
ENDBRANCH   2   3
BRANCH   2  19
ATOM     19  N   UNL     1       3.742   0.272  -0.915  0.00  0.00    +0.000 N 
ATOM     20  C   UNL     1       3.882   1.340  -1.748  0.00  0.00    +0.000 C 
ATOM     21  O   UNL     1       3.013   2.211  -1.877  0.00  0.00    +0.000 OA
ATOM     22  H   UNL     1       4.469  -0.430  -0.874  0.00  0.00    +0.000 HD
BRANCH  20  23
ATOM     23  C   UNL     1       5.171   1.448  -2.431  0.00  0.00    +0.000 A 
ATOM     24  C   UNL     1       5.691   2.694  -2.748  0.00  0.00    +0.000 A 
ATOM     25  S   UNL     1       7.188   2.617  -3.561  0.00  0.00    +0.000 S 
ATOM     26  C   UNL     1       7.175   0.916  -3.540  0.00  0.00    +0.000 A 
ATOM     27  N   UNL     1       8.176   0.202  -4.123  0.00  0.00    +0.000 NA
ATOM     28  C   UNL     1       8.018  -1.079  -4.071  0.00  0.00    +0.000 A 
ATOM     29  N   UNL     1       6.956  -1.713  -3.480  0.00  0.00    +0.000 N 
ATOM     30  C   UNL     1       5.948  -1.037  -2.829  0.00  0.00    +0.000 A 
ATOM     31  O   UNL     1       5.072  -1.636  -2.224  0.00  0.00    +0.000 OA
ATOM     32  C   UNL     1       6.061   0.411  -2.896  0.00  0.00    +0.000 A 
ATOM     33  H   UNL     1       6.911  -2.720  -3.442  0.00  0.00    +0.000 HD
ENDBRANCH  20  23
ENDBRANCH   2  19
TORSDOF 6
