REMARK  Name = 
REMARK  9 active torsions:
REMARK  status: ('A' for Active; 'I' for Inactive)
REMARK    1  A    between atoms: C_1  and  O_2
REMARK    2  A    between atoms: O_2  and  C_3
REMARK    3  A    between atoms: C_10  and  C_11
REMARK    4  A    between atoms: N_13  and  C_14
REMARK    5  A    between atoms: C_14  and  C_15
REMARK    6  A    between atoms: C_18  and  C_19
REMARK    7  A    between atoms: C_19  and  N_20
REMARK    8  A    between atoms: N_20  and  C_21
REMARK    9  A    between atoms: C_21  and  C_22
REMARK                            x       y       z     vdW  Elec       q    Type
REMARK                         _______ _______ _______ _____ _____    ______ ____
ROOT
ATOM      1  C   UNL     1       2.839   1.711  -3.007  0.00  0.00    +0.000 C 
ENDROOT
BRANCH   1   2
ATOM      2  C   UNL     1       1.694   0.761  -3.265  0.00  0.00    +0.000 A 
ATOM      3  C   UNL     1       1.917  -0.618  -3.352  0.00  0.00    +0.000 A 
ATOM      4  C   UNL     1       0.856  -1.499  -3.597  0.00  0.00    +0.000 A 
ATOM      5  C   UNL     1      -0.459  -1.027  -3.754  0.00  0.00    +0.000 A 
ATOM      6  C   UNL     1      -0.671   0.357  -3.700  0.00  0.00    +0.000 A 
ATOM      7  C   UNL     1       0.392   1.241  -3.464  0.00  0.00    +0.000 A 
BRANCH   5   8
ATOM      8  C   UNL     1      -1.627  -1.965  -4.024  0.00  0.00    +0.000 C 
BRANCH   8   9
ATOM      9  N   UNL     1      -1.423  -3.265  -3.391  0.00  0.00    +0.000 NA
ATOM     10  H   UNL     1      -1.302  -3.120  -2.390  0.00  0.00    +0.000 HD
BRANCH   9  11
ATOM     11  C   UNL     1      -2.494  -4.233  -3.620  0.00  0.00    +0.000 C 
BRANCH  11  12
ATOM     12  C   UNL     1      -2.116  -5.553  -2.906  0.00  0.00    +0.000 C 
ATOM     13  C   UNL     1      -0.808  -6.145  -3.466  0.00  0.00    +0.000 C 
ATOM     14  C   UNL     1      -0.432  -7.449  -2.770  0.00  0.00    +0.000 C 
ATOM     15  C   UNL     1      -1.560  -8.471  -2.843  0.00  0.00    +0.000 C 
ATOM     16  C   UNL     1      -2.863  -7.900  -2.294  0.00  0.00    +0.000 C 
ATOM     17  C   UNL     1      -3.247  -6.593  -2.991  0.00  0.00    +0.000 C 
ENDBRANCH  11  12
ENDBRANCH   9  11
ENDBRANCH   8   9
ENDBRANCH   5   8
ENDBRANCH   1   2
BRANCH   1  20
ATOM     18  C   UNL     1       4.557   2.933  -4.300  0.00  0.00    +0.000 C 
ATOM     19  O   UNL     1       5.069   3.393  -3.287  0.00  0.00    +0.000 OA
ATOM     20  N   UNL     1       3.465   2.109  -4.241  0.00  0.00    +0.000 N 
ATOM     21  H   UNL     1       3.006   1.825  -5.096  0.00  0.00    +0.000 HD
BRANCH  18  29
ATOM     22  C   UNL     1       3.668   1.923  -7.470  0.00  0.00    +0.000 A 
ATOM     23  N   UNL     1       3.551   1.676  -8.790  0.00  0.00    +0.000 NA
ATOM     24  C   UNL     1       4.429   2.247  -9.615  0.00  0.00    +0.000 A 
ATOM     25  N   UNL     1       5.428   3.059  -9.282  0.00  0.00    +0.000 NA
ATOM     26  C   UNL     1       5.504   3.285  -7.960  0.00  0.00    +0.000 A 
ATOM     27  S   UNL     1       6.715   4.311  -7.355  0.00  0.00    +0.000 S 
ATOM     28  C   UNL     1       6.181   4.081  -5.756  0.00  0.00    +0.000 A 
ATOM     29  C   UNL     1       5.087   3.232  -5.645  0.00  0.00    +0.000 A 
ATOM     30  C   UNL     1       4.675   2.766  -6.970  0.00  0.00    +0.000 A 
BRANCH  22  32
ATOM     31  C   UNL     1       2.170   0.162  -7.161  0.00  0.00    +0.000 C 
ATOM     32  O   UNL     1       2.726   1.365  -6.633  0.00  0.00    +0.000 OA
ENDBRANCH  22  32
ENDBRANCH  18  29
ENDBRANCH   1  20
TORSDOF 8
