REMARK  Name = 
REMARK  5 active torsions:
REMARK  status: ('A' for Active; 'I' for Inactive)
REMARK    1  A    between atoms: N_1  and  C_2
REMARK    2  A    between atoms: C_2  and  C_3
REMARK    3  A    between atoms: C_6  and  O_7
REMARK    4  A    between atoms: O_7  and  C_8
REMARK    5  A    between atoms: C_8  and  C_9
REMARK                            x       y       z     vdW  Elec       q    Type
REMARK                         _______ _______ _______ _____ _____    ______ ____
ROOT
ATOM      1  C   UNL     1       2.817  -1.127  -0.964  0.00  0.00    +0.000 A 
ATOM      2  C   UNL     1       3.755  -0.908  -1.984  0.00  0.00    +0.000 A 
ATOM      3  C   UNL     1       4.184  -1.963  -2.792  0.00  0.00    +0.000 A 
ATOM      4  C   UNL     1       3.692  -3.252  -2.587  0.00  0.00    +0.000 A 
ATOM      5  C   UNL     1       2.722  -3.466  -1.606  0.00  0.00    +0.000 A 
ATOM      6  C   UNL     1       2.298  -2.415  -0.792  0.00  0.00    +0.000 A 
ENDROOT
BRANCH   1   7
ATOM      7  C   UNL     1       2.384  -0.007  -0.053  0.00  0.00    +0.000 C 
BRANCH   7   8
ATOM      8  N   UNL     1       1.728   1.063  -0.791  0.00  0.00    +0.000 NA
ATOM      9  H   UNL     1       1.350   1.739  -0.131  0.00  0.00    +0.000 HD
ATOM     10  H   UNL     1       0.931   0.673  -1.293  0.00  0.00    +0.000 HD
ENDBRANCH   7   8
ENDBRANCH   1   7
BRANCH   4  11
ATOM     11  O   UNL     1       4.221  -4.227  -3.391  0.00  0.00    +0.000 OA
BRANCH  11  12
ATOM     12  C   UNL     1       4.110  -5.554  -2.873  0.00  0.00    +0.000 C 
BRANCH  12  13
ATOM     13  C   UNL     1       5.115  -6.444  -3.553  0.00  0.00    +0.000 A 
ATOM     14  C   UNL     1       6.146  -7.040  -2.822  0.00  0.00    +0.000 A 
ATOM     15  C   UNL     1       7.036  -7.869  -3.484  0.00  0.00    +0.000 A 
ATOM     16  N   UNL     1       6.969  -8.139  -4.804  0.00  0.00    +0.000 NA
ATOM     17  C   UNL     1       5.971  -7.545  -5.495  0.00  0.00    +0.000 A 
ATOM     18  C   UNL     1       5.031  -6.702  -4.923  0.00  0.00    +0.000 A 
ENDBRANCH  12  13
ENDBRANCH  11  12
ENDBRANCH   4  11
TORSDOF 5
