REMARK  Name = 
REMARK  4 active torsions:
REMARK  status: ('A' for Active; 'I' for Inactive)
REMARK    1  A    between atoms: C_2  and  C_4
REMARK    2  A    between atoms: N_8  and  C_9
REMARK    3  A    between atoms: C_9  and  C_10
REMARK    4  A    between atoms: C_10  and  C_13
REMARK                            x       y       z     vdW  Elec       q    Type
REMARK                         _______ _______ _______ _____ _____    ______ ____
ROOT
ATOM      1  C   UNL     1       5.999  -6.246  -3.387  0.00  0.00    +0.000 C 
ATOM      2  F   UNL     1       6.558  -5.007  -3.536  0.00  0.00    +0.000 F 
ATOM      3  F   UNL     1       6.894  -6.948  -2.624  0.00  0.00    +0.000 F 
ENDROOT
BRANCH   1   4
ATOM      4  C   UNL     1       5.772  -6.924  -4.719  0.00  0.00    +0.000 A 
ATOM      5  C   UNL     1       5.442  -6.223  -5.874  0.00  0.00    +0.000 A 
ATOM      6  C   UNL     1       5.280  -6.942  -7.050  0.00  0.00    +0.000 A 
ATOM      7  N   UNL     1       5.437  -8.284  -7.155  0.00  0.00    +0.000 NA
ATOM      8  C   UNL     1       5.794  -8.961  -6.046  0.00  0.00    +0.000 A 
ATOM      9  N   UNL     1       6.031 -10.337  -6.075  0.00  0.00    +0.000 N 
ATOM     10  C   UNL     1       5.545 -11.074  -7.254  0.00  0.00    +0.000 C 
ATOM     11  C   UNL     1       5.671 -12.582  -6.945  0.00  0.00    +0.000 C 
ATOM     12  O   UNL     1       7.024 -12.955  -6.614  0.00  0.00    +0.000 OA
ATOM     13  C   UNL     1       7.504 -12.190  -5.495  0.00  0.00    +0.000 C 
ATOM     14  C   UNL     1       7.438 -10.685  -5.786  0.00  0.00    +0.000 C 
ATOM     15  C   UNL     1       5.928  -8.308  -4.819  0.00  0.00    +0.000 A 
ENDBRANCH   1   4
BRANCH   1  16
ATOM     16  C   UNL     1       4.681  -6.092  -2.584  0.00  0.00    +0.000 C 
BRANCH  16  21
ATOM     17  C   UNL     1       1.916  -4.706   1.486  0.00  0.00    +0.000 A 
ATOM     18  C   UNL     1       1.689  -5.734   0.578  0.00  0.00    +0.000 A 
ATOM     19  C   UNL     1       2.675  -6.035  -0.364  0.00  0.00    +0.000 A 
ATOM     20  C   UNL     1       3.852  -5.295  -0.391  0.00  0.00    +0.000 A 
ATOM     21  N   UNL     1       4.911  -5.594  -1.223  0.00  0.00    +0.000 N 
ATOM     22  N   UNL     1       4.062  -4.274   0.460  0.00  0.00    +0.000 NA
ATOM     23  C   UNL     1       3.095  -3.992   1.373  0.00  0.00    +0.000 A 
ATOM     24  H   UNL     1       5.607  -4.852  -1.137  0.00  0.00    +0.000 HD
BRANCH  17  26
ATOM     25  N   UNL     1       0.137  -5.356   3.008  0.00  0.00    +0.000 N 
ATOM     26  C   UNL     1       0.953  -4.356   2.554  0.00  0.00    +0.000 C 
ATOM     27  O   UNL     1       0.917  -3.236   3.038  0.00  0.00    +0.000 OA
ATOM     28  H   UNL     1      -0.430  -5.135   3.818  0.00  0.00    +0.000 HD
ATOM     29  H   UNL     1       0.317  -6.331   2.821  0.00  0.00    +0.000 HD
ENDBRANCH  17  26
ENDBRANCH  16  21
ENDBRANCH   1  16
TORSDOF 4
