REMARK  Name = 
REMARK  8 active torsions:
REMARK  status: ('A' for Active; 'I' for Inactive)
REMARK    1  A    between atoms: N_1  and  C_2
REMARK    2  A    between atoms: C_2  and  C_3
REMARK    3  A    between atoms: C_2  and  C_27
REMARK    4  A    between atoms: C_3  and  N_4
REMARK    5  A    between atoms: C_5  and  C_7
REMARK    6  A    between atoms: C_10  and  C_11
REMARK    7  A    between atoms: C_11  and  N_12
REMARK    8  A    between atoms: C_13  and  C_15
REMARK                            x       y       z     vdW  Elec       q    Type
REMARK                         _______ _______ _______ _____ _____    ______ ____
ROOT
ATOM      1  C   UNL     1      -1.366  -1.575  -2.528  0.00  0.00    +0.000 A 
ATOM      2  C   UNL     1      -0.819  -2.814  -2.879  0.00  0.00    +0.000 A 
ATOM      3  C   UNL     1      -1.271  -3.479  -4.026  0.00  0.00    +0.000 A 
ATOM      4  C   UNL     1      -2.262  -2.910  -4.840  0.00  0.00    +0.000 A 
ATOM      5  C   UNL     1      -2.834  -1.689  -4.456  0.00  0.00    +0.000 A 
ATOM      6  C   UNL     1      -2.390  -1.026  -3.309  0.00  0.00    +0.000 A 
ENDROOT
BRANCH   1   8
ATOM      7  N   UNL     1       0.382  -1.007  -0.916  0.00  0.00    +0.000 N 
ATOM      8  C   UNL     1      -0.930  -0.837  -1.309  0.00  0.00    +0.000 C 
ATOM      9  O   UNL     1      -1.714  -0.098  -0.726  0.00  0.00    +0.000 OA
ATOM     10  H   UNL     1       1.061  -1.332  -1.595  0.00  0.00    +0.000 HD
BRANCH   7  11
ATOM     11  C   UNL     1       0.907  -0.227   0.197  0.00  0.00    +0.000 C 
BRANCH  11  12
ATOM     12  C   UNL     1       2.380  -0.571   0.523  0.00  0.00    +0.000 C 
BRANCH  12  13
ATOM     13  C   UNL     1       2.908   0.273   1.633  0.00  0.00    +0.000 A 
ATOM     14  C   UNL     1       2.992   1.640   1.812  0.00  0.00    +0.000 A 
ATOM     15  C   UNL     1       3.570   1.807   3.083  0.00  0.00    +0.000 A 
ATOM     16  N   UNL     1       3.840   0.641   3.671  0.00  0.00    +0.000 NA
ATOM     17  N   UNL     1       3.422  -0.273   2.781  0.00  0.00    +0.000 N 
ATOM     18  H   UNL     1       3.521  -1.253   3.023  0.00  0.00    +0.000 HD
ENDBRANCH  12  13
BRANCH  12  19
ATOM     19  N   UNL     1       3.231  -0.406  -0.663  0.00  0.00    +0.000 NA
ATOM     20  H   UNL     1       4.203  -0.563  -0.394  0.00  0.00    +0.000 HD
ATOM     21  H   UNL     1       3.191   0.570  -0.958  0.00  0.00    +0.000 HD
ENDBRANCH  12  19
ENDBRANCH  11  12
ENDBRANCH   7  11
ENDBRANCH   1   8
BRANCH   4  22
ATOM     22  C   UNL     1      -2.735  -3.607  -6.091  0.00  0.00    +0.000 C 
BRANCH  22  23
ATOM     23  N   UNL     1      -3.855  -4.470  -5.827  0.00  0.00    +0.000 N 
ATOM     24  C   UNL     1      -4.390  -5.252  -6.822  0.00  0.00    +0.000 C 
ATOM     25  O   UNL     1      -3.906  -5.286  -7.951  0.00  0.00    +0.000 OA
ATOM     26  H   UNL     1      -4.407  -4.276  -4.998  0.00  0.00    +0.000 HD
BRANCH  24  27
ATOM     27  C   UNL     1      -5.533  -6.097  -6.454  0.00  0.00    +0.000 A 
ATOM     28  C   UNL     1      -5.819  -7.230  -7.206  0.00  0.00    +0.000 A 
ATOM     29  S   UNL     1      -7.138  -8.131  -6.608  0.00  0.00    +0.000 S 
ATOM     30  C   UNL     1      -7.410  -7.009  -5.358  0.00  0.00    +0.000 A 
ATOM     31  N   UNL     1      -8.431  -7.178  -4.475  0.00  0.00    +0.000 NA
ATOM     32  C   UNL     1      -8.541  -6.235  -3.602  0.00  0.00    +0.000 A 
ATOM     33  N   UNL     1      -7.721  -5.138  -3.526  0.00  0.00    +0.000 N 
ATOM     34  C   UNL     1      -6.660  -4.941  -4.378  0.00  0.00    +0.000 A 
ATOM     35  O   UNL     1      -5.920  -3.969  -4.261  0.00  0.00    +0.000 OA
ATOM     36  C   UNL     1      -6.496  -5.970  -5.387  0.00  0.00    +0.000 A 
ATOM     37  H   UNL     1      -7.857  -4.437  -2.814  0.00  0.00    +0.000 HD
ENDBRANCH  24  27
ENDBRANCH  22  23
ENDBRANCH   4  22
TORSDOF 8
