REMARK  Name = 
REMARK  8 active torsions:
REMARK  status: ('A' for Active; 'I' for Inactive)
REMARK    1  A    between atoms: C_1  and  O_2
REMARK    2  A    between atoms: O_2  and  C_3
REMARK    3  A    between atoms: C_5  and  C_6
REMARK    4  A    between atoms: C_11  and  N_12
REMARK    5  A    between atoms: N_12  and  C_13
REMARK    6  A    between atoms: C_13  and  C_14
REMARK    7  A    between atoms: C_19  and  S_20
REMARK    8  A    between atoms: S_20  and  C_21
REMARK                            x       y       z     vdW  Elec       q    Type
REMARK                         _______ _______ _______ _____ _____    ______ ____
ROOT
ATOM      1  C   UNL     1       3.314   0.904   0.894  0.00  0.00    +0.000 A 
ATOM      2  N   UNL     1       4.264   1.524   0.150  0.00  0.00    +0.000 NA
ATOM      3  C   UNL     1       4.654   2.748   0.595  0.00  0.00    +0.000 A 
ATOM      4  C   UNL     1       4.130   3.367   1.718  0.00  0.00    +0.000 A 
ATOM      5  C   UNL     1       3.139   2.705   2.439  0.00  0.00    +0.000 A 
ATOM      6  C   UNL     1       2.717   1.431   2.060  0.00  0.00    +0.000 A 
ENDROOT
BRANCH   3   7
ATOM      7  C   UNL     1       5.714   3.440  -0.196  0.00  0.00    +0.000 C 
ATOM      8  N   UNL     1       6.149   2.773  -1.308  0.00  0.00    +0.000 N 
ATOM      9  O   UNL     1       6.174   4.532   0.118  0.00  0.00    +0.000 OA
ATOM     10  H   UNL     1       5.727   1.887  -1.558  0.00  0.00    +0.000 HD
ATOM     11  H   UNL     1       6.856   3.193  -1.896  0.00  0.00    +0.000 HD
ENDBRANCH   3   7
BRANCH   1  13
ATOM     12  C   UNL     1       3.864  -1.028  -0.299  0.00  0.00    +0.000 C 
ATOM     13  O   UNL     1       2.895  -0.363   0.507  0.00  0.00    +0.000 OA
ENDBRANCH   1  13
BRANCH   6  14
ATOM     14  N   UNL     1       1.690   0.749   2.723  0.00  0.00    +0.000 N 
ATOM     15  H   UNL     1       1.644  -0.221   2.409  0.00  0.00    +0.000 HD
BRANCH  14  16
ATOM     16  C   UNL     1       1.508   0.900   4.165  0.00  0.00    +0.000 C 
BRANCH  16  17
ATOM     17  C   UNL     1       0.105   1.382   4.485  0.00  0.00    +0.000 A 
ATOM     18  C   UNL     1      -0.970   0.571   4.055  0.00  0.00    +0.000 A 
ATOM     19  C   UNL     1      -2.290   0.873   4.383  0.00  0.00    +0.000 A 
ATOM     20  C   UNL     1      -2.566   1.990   5.157  0.00  0.00    +0.000 A 
ATOM     21  C   UNL     1      -1.523   2.813   5.583  0.00  0.00    +0.000 A 
ATOM     22  C   UNL     1      -0.186   2.540   5.238  0.00  0.00    +0.000 A 
BRANCH  22  23
ATOM     23  S   UNL     1       1.078   3.629   5.903  0.00  0.00    +0.000 S 
ATOM     24  C   UNL     1       0.515   5.255   5.304  0.00  0.00    +0.000 C 
ENDBRANCH  22  23
ENDBRANCH  16  17
ENDBRANCH  14  16
ENDBRANCH   6  14
TORSDOF 6
