REMARK  Name = 
REMARK  5 active torsions:
REMARK  status: ('A' for Active; 'I' for Inactive)
REMARK    1  A    between atoms: C_2  and  C_4
REMARK    2  A    between atoms: C_7  and  N_8
REMARK    3  A    between atoms: N_8  and  C_9
REMARK    4  A    between atoms: C_9  and  C_10
REMARK    5  A    between atoms: C_13  and  C_14
REMARK                            x       y       z     vdW  Elec       q    Type
REMARK                         _______ _______ _______ _____ _____    ______ ____
ROOT
ATOM      1  N   UNL     1       5.497  -2.273  -4.287  0.00  0.00    +0.000 N 
ATOM      2  H   UNL     1       5.337  -3.159  -3.816  0.00  0.00    +0.000 HD
ENDROOT
BRANCH   1   6
ATOM      3  C   UNL     1       4.841   1.004  -1.906  0.00  0.00    +0.000 A 
ATOM      4  C   UNL     1       4.222   0.892  -3.139  0.00  0.00    +0.000 A 
ATOM      5  N   UNL     1       4.377  -0.198  -3.937  0.00  0.00    +0.000 NA
ATOM      6  C   UNL     1       5.167  -1.188  -3.471  0.00  0.00    +0.000 A 
ATOM      7  C   UNL     1       5.760  -1.065  -2.206  0.00  0.00    +0.000 A 
ATOM      8  N   UNL     1       5.622   0.016  -1.392  0.00  0.00    +0.000 NA
BRANCH   3  10
ATOM      9  N   UNL     1       5.421   2.331   0.037  0.00  0.00    +0.000 N 
ATOM     10  C   UNL     1       4.707   2.266  -1.129  0.00  0.00    +0.000 C 
ATOM     11  O   UNL     1       4.018   3.202  -1.516  0.00  0.00    +0.000 OA
ATOM     12  H   UNL     1       5.411   3.184   0.576  0.00  0.00    +0.000 HD
ATOM     13  H   UNL     1       6.024   1.562   0.306  0.00  0.00    +0.000 HD
ENDBRANCH   3  10
ENDBRANCH   1   6
BRANCH   1  14
ATOM     14  C   UNL     1       4.917  -2.269  -5.632  0.00  0.00    +0.000 C 
BRANCH  14  15
ATOM     15  C   UNL     1       5.839  -2.999  -6.594  0.00  0.00    +0.000 A 
ATOM     16  C   UNL     1       7.134  -2.523  -6.802  0.00  0.00    +0.000 A 
ATOM     17  C   UNL     1       7.957  -3.169  -7.721  0.00  0.00    +0.000 A 
ATOM     18  C   UNL     1       7.470  -4.273  -8.422  0.00  0.00    +0.000 A 
ATOM     19  C   UNL     1       6.172  -4.685  -8.149  0.00  0.00    +0.000 A 
ATOM     20  N   UNL     1       5.353  -4.081  -7.255  0.00  0.00    +0.000 NA
BRANCH  18  21
ATOM     21  C   UNL     1       8.284  -5.009  -9.439  0.00  0.00    +0.000 C 
ATOM     22  F   UNL     1       9.535  -4.496  -9.609  0.00  0.00    +0.000 F 
ATOM     23  F   UNL     1       8.461  -6.320  -9.118  0.00  0.00    +0.000 F 
ATOM     24  F   UNL     1       7.709  -5.001 -10.673  0.00  0.00    +0.000 F 
ENDBRANCH  18  21
ENDBRANCH  14  15
ENDBRANCH   1  14
TORSDOF 5
