REMARK  Name = 
REMARK  10 active torsions:
REMARK  status: ('A' for Active; 'I' for Inactive)
REMARK    1  A    between atoms: C_1  and  C_2
REMARK    2  A    between atoms: C_2  and  N_3
REMARK    3  A    between atoms: C_2  and  C_21
REMARK    4  A    between atoms: N_3  and  C_4
REMARK    5  A    between atoms: C_4  and  C_5
REMARK    6  A    between atoms: C_8  and  C_9
REMARK    7  A    between atoms: C_9  and  C_10
REMARK    8  A    between atoms: C_10  and  C_11
REMARK    9  A    between atoms: C_11  and  O_12
REMARK   10  A    between atoms: C_11  and  C_13
REMARK                            x       y       z     vdW  Elec       q    Type
REMARK                         _______ _______ _______ _____ _____    ______ ____
ROOT
ATOM      1  C   UNL     1      -1.022   0.502  -1.175  0.00  0.00    +0.000 A 
ATOM      2  C   UNL     1      -1.722  -0.640  -0.762  0.00  0.00    +0.000 A 
ATOM      3  C   UNL     1      -3.117  -0.642  -0.721  0.00  0.00    +0.000 A 
ATOM      4  C   UNL     1      -3.843   0.502  -1.077  0.00  0.00    +0.000 A 
ATOM      5  C   UNL     1      -3.143   1.648  -1.474  0.00  0.00    +0.000 A 
ATOM      6  C   UNL     1      -1.746   1.648  -1.523  0.00  0.00    +0.000 A 
ENDROOT
BRANCH   1   7
ATOM      7  C   UNL     1       0.487   0.485  -1.247  0.00  0.00    +0.000 C 
BRANCH   7   8
ATOM      8  N   UNL     1       0.945  -0.532  -2.192  0.00  0.00    +0.000 NA
ATOM      9  H   UNL     1       0.470  -0.373  -3.081  0.00  0.00    +0.000 HD
BRANCH   8  11
ATOM     10  C   UNL     1       3.236  -0.636  -1.165  0.00  0.00    +0.000 C 
ATOM     11  C   UNL     1       2.390  -0.502  -2.440  0.00  0.00    +0.000 C 
BRANCH  11  12
ATOM     12  C   UNL     1       2.696  -1.645  -3.394  0.00  0.00    +0.000 A 
ATOM     13  C   UNL     1       2.307  -2.961  -3.186  0.00  0.00    +0.000 A 
ATOM     14  S   UNL     1       2.887  -4.037  -4.376  0.00  0.00    +0.000 S 
ATOM     15  C   UNL     1       3.687  -2.782  -5.202  0.00  0.00    +0.000 A 
ATOM     16  N   UNL     1       4.454  -3.035  -6.300  0.00  0.00    +0.000 NA
ATOM     17  C   UNL     1       5.014  -1.985  -6.799  0.00  0.00    +0.000 A 
ATOM     18  N   UNL     1       4.863  -0.708  -6.328  0.00  0.00    +0.000 N 
ATOM     19  C   UNL     1       4.030  -0.394  -5.279  0.00  0.00    +0.000 A 
ATOM     20  O   UNL     1       3.800   0.771  -4.970  0.00  0.00    +0.000 OA
ATOM     21  C   UNL     1       3.455  -1.549  -4.612  0.00  0.00    +0.000 A 
ATOM     22  H   UNL     1       5.294   0.073  -6.801  0.00  0.00    +0.000 HD
ENDBRANCH  11  12
ENDBRANCH   8  11
ENDBRANCH   7   8
ENDBRANCH   1   7
BRANCH   4  23
ATOM     23  C   UNL     1      -5.354   0.491  -1.069  0.00  0.00    +0.000 C 
BRANCH  23  24
ATOM     24  C   UNL     1      -5.923   0.204   0.323  0.00  0.00    +0.000 C 
BRANCH  24  25
ATOM     25  C   UNL     1      -7.457   0.204   0.341  0.00  0.00    +0.000 C 
BRANCH  25  26
ATOM     26  C   UNL     1      -7.962  -0.036   1.744  0.00  0.00    +0.000 A 
ATOM     27  C   UNL     1      -8.204  -1.312   2.262  0.00  0.00    +0.000 A 
ATOM     28  C   UNL     1      -8.590  -1.460   3.592  0.00  0.00    +0.000 A 
ATOM     29  C   UNL     1      -8.720  -0.322   4.368  0.00  0.00    +0.000 A 
ATOM     30  N   UNL     1      -8.498   0.927   3.910  0.00  0.00    +0.000 NA
ATOM     31  C   UNL     1      -8.126   1.040   2.614  0.00  0.00    +0.000 A 
ENDBRANCH  25  26
BRANCH  25  32
ATOM     32  O   UNL     1      -7.973  -0.780  -0.553  0.00  0.00    +0.000 OA
ATOM     33  H   UNL     1      -7.451  -1.591  -0.440  0.00  0.00    +0.000 HD
ENDBRANCH  25  32
ENDBRANCH  24  25
ENDBRANCH  23  24
ENDBRANCH   4  23
TORSDOF 9
