REMARK  Name = 
REMARK  9 active torsions:
REMARK  status: ('A' for Active; 'I' for Inactive)
REMARK    1  A    between atoms: C_1  and  O_2
REMARK    2  A    between atoms: O_2  and  C_3
REMARK    3  A    between atoms: C_10  and  C_11
REMARK    4  A    between atoms: N_13  and  C_14
REMARK    5  A    between atoms: C_14  and  C_15
REMARK    6  A    between atoms: C_18  and  C_19
REMARK    7  A    between atoms: C_19  and  N_20
REMARK    8  A    between atoms: N_20  and  C_21
REMARK    9  A    between atoms: C_21  and  C_22
REMARK                            x       y       z     vdW  Elec       q    Type
REMARK                         _______ _______ _______ _____ _____    ______ ____
ROOT
ATOM      1  C   UNL     1       2.766   2.604  -2.263  0.00  0.00    +0.000 C 
ENDROOT
BRANCH   1   2
ATOM      2  C   UNL     1       1.593   1.802  -2.758  0.00  0.00    +0.000 A 
ATOM      3  C   UNL     1       1.721   0.428  -2.983  0.00  0.00    +0.000 A 
ATOM      4  C   UNL     1       0.640  -0.319  -3.449  0.00  0.00    +0.000 A 
ATOM      5  C   UNL     1      -0.610   0.288  -3.667  0.00  0.00    +0.000 A 
ATOM      6  C   UNL     1      -0.714   1.674  -3.504  0.00  0.00    +0.000 A 
ATOM      7  C   UNL     1       0.374   2.426  -3.060  0.00  0.00    +0.000 A 
BRANCH   5   8
ATOM      8  C   UNL     1      -1.831  -0.499  -4.092  0.00  0.00    +0.000 C 
BRANCH   8   9
ATOM      9  N   UNL     1      -1.873  -1.887  -3.637  0.00  0.00    +0.000 NA
ATOM     10  H   UNL     1      -1.093  -2.402  -4.036  0.00  0.00    +0.000 HD
BRANCH   9  11
ATOM     11  C   UNL     1      -1.900  -2.034  -2.180  0.00  0.00    +0.000 C 
BRANCH  11  12
ATOM     12  C   UNL     1      -1.863  -3.529  -1.836  0.00  0.00    +0.000 C 
ATOM     13  C   UNL     1      -3.096  -4.267  -2.375  0.00  0.00    +0.000 C 
ATOM     14  C   UNL     1      -3.042  -5.733  -1.980  0.00  0.00    +0.000 C 
ATOM     15  O   UNL     1      -2.945  -5.872  -0.563  0.00  0.00    +0.000 OA
ATOM     16  C   UNL     1      -1.766  -5.265  -0.036  0.00  0.00    +0.000 C 
ATOM     17  C   UNL     1      -1.752  -3.767  -0.325  0.00  0.00    +0.000 C 
ENDBRANCH  11  12
ENDBRANCH   9  11
ENDBRANCH   8   9
ENDBRANCH   5   8
ENDBRANCH   1   2
BRANCH   1  20
ATOM     18  C   UNL     1       4.705   3.787  -3.212  0.00  0.00    +0.000 C 
ATOM     19  O   UNL     1       5.136   4.067  -2.096  0.00  0.00    +0.000 OA
ATOM     20  N   UNL     1       3.551   3.077  -3.372  0.00  0.00    +0.000 N 
ATOM     21  H   UNL     1       3.190   2.902  -4.299  0.00  0.00    +0.000 HD
BRANCH  18  29
ATOM     22  C   UNL     1       4.142   3.250  -6.566  0.00  0.00    +0.000 A 
ATOM     23  N   UNL     1       4.160   3.194  -7.913  0.00  0.00    +0.000 NA
ATOM     24  C   UNL     1       5.160   3.810  -8.550  0.00  0.00    +0.000 A 
ATOM     25  N   UNL     1       6.163   4.490  -8.003  0.00  0.00    +0.000 NA
ATOM     26  C   UNL     1       6.101   4.527  -6.660  0.00  0.00    +0.000 A 
ATOM     27  S   UNL     1       7.302   5.353  -5.791  0.00  0.00    +0.000 S 
ATOM     28  C   UNL     1       6.570   4.961  -4.309  0.00  0.00    +0.000 A 
ATOM     29  C   UNL     1       5.413   4.202  -4.436  0.00  0.00    +0.000 A 
ATOM     30  C   UNL     1       5.132   3.944  -5.849  0.00  0.00    +0.000 A 
BRANCH  22  32
ATOM     31  C   UNL     1       2.502   1.585  -6.666  0.00  0.00    +0.000 C 
ATOM     32  O   UNL     1       3.092   2.641  -5.912  0.00  0.00    +0.000 OA
ENDBRANCH  22  32
ENDBRANCH  18  29
ENDBRANCH   1  20
TORSDOF 8
