REMARK  Name = 
REMARK  6 active torsions:
REMARK  status: ('A' for Active; 'I' for Inactive)
REMARK    1  A    between atoms: C_1  and  N_2
REMARK    2  A    between atoms: N_2  and  C_3
REMARK    3  A    between atoms: N_2  and  C_4
REMARK    4  A    between atoms: C_4  and  C_5
REMARK    5  A    between atoms: C_9  and  C_10
REMARK    6  A    between atoms: C_11  and  C_12
REMARK                            x       y       z     vdW  Elec       q    Type
REMARK                         _______ _______ _______ _____ _____    ______ ____
ROOT
ATOM      1  C   UNL     1       4.408   1.304   0.145  0.00  0.00    +0.000 A 
ATOM      2  N   UNL     1       5.058   2.481  -0.042  0.00  0.00    +0.000 NA
ATOM      3  C   UNL     1       6.399   2.423  -0.062  0.00  0.00    +0.000 A 
ATOM      4  N   UNL     1       7.145   1.316   0.059  0.00  0.00    +0.000 NA
ATOM      5  C   UNL     1       6.468   0.159   0.248  0.00  0.00    +0.000 A 
ATOM      6  C   UNL     1       5.087   0.113   0.331  0.00  0.00    +0.000 A 
ATOM      7  F   UNL     1       4.429  -1.037   0.540  0.00  0.00    +0.000 F 
ENDROOT
BRANCH   5   8
ATOM      8  C   UNL     1       7.257  -1.082   0.292  0.00  0.00    +0.000 C 
ATOM      9  C   UNL     1       8.583  -1.130   0.067  0.00  0.00    +0.000 C 
BRANCH   9  10
ATOM     10  C   UNL     1       9.370  -2.369   0.046  0.00  0.00    +0.000 A 
ATOM     11  C   UNL     1      10.728  -2.317  -0.207  0.00  0.00    +0.000 A 
ATOM     12  C   UNL     1      11.390  -3.523  -0.205  0.00  0.00    +0.000 A 
ATOM     13  N   UNL     1      10.784  -4.702   0.016  0.00  0.00    +0.000 NA
ATOM     14  C   UNL     1       9.462  -4.642   0.241  0.00  0.00    +0.000 A 
ATOM     15  N   UNL     1       8.716  -3.526   0.269  0.00  0.00    +0.000 NA
ENDBRANCH   9  10
ENDBRANCH   5   8
BRANCH   1  16
ATOM     16  C   UNL     1       2.894   1.312   0.068  0.00  0.00    +0.000 C 
BRANCH  16  18
ATOM     17  C   UNL     1       2.379   0.644   2.361  0.00  0.00    +0.000 C 
ATOM     18  N   UNL     1       2.143   1.615   1.299  0.00  0.00    +0.000 NA
ATOM     19  C   UNL     1       2.360   2.981   1.765  0.00  0.00    +0.000 C 
ENDBRANCH  16  18
ENDBRANCH   1  16
TORSDOF 4
