REMARK  Name = 
REMARK  7 active torsions:
REMARK  status: ('A' for Active; 'I' for Inactive)
REMARK    1  A    between atoms: C_1  and  C_2
REMARK    2  A    between atoms: C_2  and  N_3
REMARK    3  A    between atoms: C_2  and  C_16
REMARK    4  A    between atoms: C_4  and  C_6
REMARK    5  A    between atoms: C_19  and  C_20
REMARK    6  A    between atoms: C_20  and  N_21
REMARK    7  A    between atoms: C_22  and  C_24
REMARK                            x       y       z     vdW  Elec       q    Type
REMARK                         _______ _______ _______ _____ _____    ______ ____
ROOT
ATOM      1  C   UNL     1       3.421  -0.904  -0.997  0.00  0.00    +0.000 C 
ATOM      2  C   UNL     1       2.572  -0.035  -0.060  0.00  0.00    +0.000 C 
ENDROOT
BRANCH   2   3
ATOM      3  C   UNL     1       3.078   1.405  -0.009  0.00  0.00    +0.000 A 
ATOM      4  C   UNL     1       2.248   2.468  -0.390  0.00  0.00    +0.000 A 
ATOM      5  C   UNL     1       2.666   3.802  -0.282  0.00  0.00    +0.000 A 
ATOM      6  C   UNL     1       3.948   4.126   0.183  0.00  0.00    +0.000 A 
ATOM      7  C   UNL     1       4.791   3.063   0.544  0.00  0.00    +0.000 A 
ATOM      8  C   UNL     1       4.366   1.725   0.445  0.00  0.00    +0.000 A 
BRANCH   6   9
ATOM      9  C   UNL     1       4.443   5.558   0.259  0.00  0.00    +0.000 C 
BRANCH   9  10
ATOM     10  N   UNL     1       4.174   6.220   1.518  0.00  0.00    +0.000 N 
ATOM     11  C   UNL     1       4.551   7.518   1.772  0.00  0.00    +0.000 C 
ATOM     12  O   UNL     1       5.157   8.212   0.981  0.00  0.00    +0.000 OA
ATOM     13  H   UNL     1       3.503   5.804   2.149  0.00  0.00    +0.000 HD
BRANCH  11  14
ATOM     14  C   UNL     1       4.129   7.986   3.074  0.00  0.00    +0.000 A 
ATOM     15  C   UNL     1       3.420   7.391   4.101  0.00  0.00    +0.000 A 
ATOM     16  C   UNL     1       3.336   8.366   5.109  0.00  0.00    +0.000 A 
ATOM     17  N   UNL     1       3.931   9.506   4.757  0.00  0.00    +0.000 NA
ATOM     18  N   UNL     1       4.421   9.245   3.531  0.00  0.00    +0.000 N 
ATOM     19  H   UNL     1       4.945   9.968   3.047  0.00  0.00    +0.000 HD
ENDBRANCH  11  14
ENDBRANCH   9  10
ENDBRANCH   6   9
ENDBRANCH   2   3
BRANCH   2  20
ATOM     20  N   UNL     1       2.528  -0.614   1.274  0.00  0.00    +0.000 N 
ATOM     21  C   UNL     1       2.012  -1.871   1.505  0.00  0.00    +0.000 C 
ATOM     22  O   UNL     1       1.555  -2.584   0.622  0.00  0.00    +0.000 OA
ATOM     23  H   UNL     1       2.657   0.010   2.061  0.00  0.00    +0.000 HD
BRANCH  21  24
ATOM     24  C   UNL     1       2.100  -2.350   2.880  0.00  0.00    +0.000 A 
ATOM     25  C   UNL     1       2.227  -3.704   3.153  0.00  0.00    +0.000 A 
ATOM     26  S   UNL     1       2.305  -4.042   4.826  0.00  0.00    +0.000 S 
ATOM     27  C   UNL     1       2.132  -2.396   5.223  0.00  0.00    +0.000 A 
ATOM     28  N   UNL     1       2.081  -1.979   6.516  0.00  0.00    +0.000 NA
ATOM     29  C   UNL     1       1.903  -0.706   6.656  0.00  0.00    +0.000 A 
ATOM     30  N   UNL     1       1.782   0.189   5.624  0.00  0.00    +0.000 N 
ATOM     31  C   UNL     1       1.851  -0.180   4.305  0.00  0.00    +0.000 A 
ATOM     32  O   UNL     1       1.783   0.648   3.403  0.00  0.00    +0.000 OA
ATOM     33  C   UNL     1       2.038  -1.600   4.098  0.00  0.00    +0.000 A 
ATOM     34  H   UNL     1       1.651   1.174   5.804  0.00  0.00    +0.000 HD
ENDBRANCH  21  24
ENDBRANCH   2  20
TORSDOF 6
