REMARK  Name = 
REMARK  5 active torsions:
REMARK  status: ('A' for Active; 'I' for Inactive)
REMARK    1  A    between atoms: N_1  and  C_2
REMARK    2  A    between atoms: C_2  and  C_3
REMARK    3  A    between atoms: C_6  and  C_7
REMARK    4  A    between atoms: C_7  and  N_8
REMARK    5  A    between atoms: C_14  and  O_15
REMARK                            x       y       z     vdW  Elec       q    Type
REMARK                         _______ _______ _______ _____ _____    ______ ____
ROOT
ATOM      1  C   UNL     1       0.690  -3.695   2.236  0.00  0.00    +0.000 C 
ENDROOT
BRANCH   1   2
ATOM      2  N   UNL     1       0.460  -5.040   1.719  0.00  0.00    +0.000 N 
ATOM      3  C   UNL     1       0.829  -6.189   2.378  0.00  0.00    +0.000 A 
ATOM      4  C   UNL     1       0.609  -7.252   1.535  0.00  0.00    +0.000 A 
ATOM      5  C   UNL     1       0.006  -6.748   0.352  0.00  0.00    +0.000 A 
ATOM      6  C   UNL     1      -0.453  -7.354  -0.835  0.00  0.00    +0.000 A 
ATOM      7  C   UNL     1      -1.065  -6.571  -1.819  0.00  0.00    +0.000 A 
ATOM      8  C   UNL     1      -1.213  -5.204  -1.622  0.00  0.00    +0.000 A 
ATOM      9  C   UNL     1      -0.736  -4.569  -0.475  0.00  0.00    +0.000 A 
ATOM     10  C   UNL     1      -0.122  -5.362   0.507  0.00  0.00    +0.000 A 
BRANCH   8  11
ATOM     11  O   UNL     1      -1.838  -4.424  -2.554  0.00  0.00    +0.000 OA
ATOM     12  H   UNL     1      -2.190  -5.001  -3.250  0.00  0.00    +0.000 HD
ENDBRANCH   8  11
ENDBRANCH   1   2
BRANCH   1  16
ATOM     13  C   UNL     1       3.120  -0.947   0.966  0.00  0.00    +0.000 C 
ATOM     14  C   UNL     1       2.888  -2.305   0.281  0.00  0.00    +0.000 C 
ATOM     15  C   UNL     1       3.055  -3.488   1.235  0.00  0.00    +0.000 C 
ATOM     16  C   UNL     1       2.183  -3.382   2.498  0.00  0.00    +0.000 C 
ATOM     17  C   UNL     1       2.360  -2.008   3.168  0.00  0.00    +0.000 C 
ATOM     18  C   UNL     1       2.213  -0.833   2.203  0.00  0.00    +0.000 C 
BRANCH  13  19
ATOM     19  C   UNL     1       4.623  -0.732   1.251  0.00  0.00    +0.000 C 
BRANCH  19  20
ATOM     20  N   UNL     1       4.905   0.577   1.833  0.00  0.00    +0.000 NA
ATOM     21  H   UNL     1       5.914   0.725   1.852  0.00  0.00    +0.000 HD
ATOM     22  H   UNL     1       4.606   0.588   2.807  0.00  0.00    +0.000 HD
ENDBRANCH  19  20
ENDBRANCH  13  19
ENDBRANCH   1  16
TORSDOF 5
