REMARK  Name = 
REMARK  5 active torsions:
REMARK  status: ('A' for Active; 'I' for Inactive)
REMARK    1  A    between atoms: C_2  and  C_4
REMARK    2  A    between atoms: C_7  and  N_8
REMARK    3  A    between atoms: N_8  and  C_9
REMARK    4  A    between atoms: C_9  and  C_10
REMARK    5  A    between atoms: C_14  and  C_15
REMARK                            x       y       z     vdW  Elec       q    Type
REMARK                         _______ _______ _______ _____ _____    ______ ____
ROOT
ATOM      1  C   UNL     1       5.080  -2.812   5.327  0.00  0.00    +0.000 C 
ENDROOT
BRANCH   1   2
ATOM      2  C   UNL     1       6.065  -2.974   6.475  0.00  0.00    +0.000 A 
ATOM      3  N   UNL     1       6.819  -1.913   6.834  0.00  0.00    +0.000 NA
ATOM      4  C   UNL     1       7.638  -2.100   7.884  0.00  0.00    +0.000 A 
ATOM      5  C   UNL     1       7.712  -3.275   8.595  0.00  0.00    +0.000 A 
ATOM      6  C   UNL     1       6.883  -4.301   8.184  0.00  0.00    +0.000 A 
ATOM      7  N   UNL     1       6.061  -4.158   7.120  0.00  0.00    +0.000 NA
BRANCH   6   8
ATOM      8  C   UNL     1       6.800  -5.606   8.871  0.00  0.00    +0.000 A 
ATOM      9  C   UNL     1       7.002  -5.734  10.260  0.00  0.00    +0.000 A 
ATOM     10  C   UNL     1       6.877  -6.969  10.908  0.00  0.00    +0.000 A 
ATOM     11  C   UNL     1       6.546  -8.106  10.179  0.00  0.00    +0.000 A 
ATOM     12  C   UNL     1       6.346  -7.999   8.810  0.00  0.00    +0.000 A 
ATOM     13  F   UNL     1       6.022  -9.091   8.105  0.00  0.00    +0.000 F 
ATOM     14  C   UNL     1       6.469  -6.774   8.158  0.00  0.00    +0.000 A 
ENDBRANCH   6   8
ENDBRANCH   1   2
BRANCH   1  15
ATOM     15  N   UNL     1       5.552  -1.876   4.308  0.00  0.00    +0.000 N 
ATOM     16  H   UNL     1       6.091  -1.104   4.698  0.00  0.00    +0.000 HD
BRANCH  15  20
ATOM     17  C   UNL     1       3.449  -1.086   0.745  0.00  0.00    +0.000 A 
ATOM     18  C   UNL     1       2.893  -1.945   1.695  0.00  0.00    +0.000 A 
ATOM     19  C   UNL     1       3.567  -2.190   2.897  0.00  0.00    +0.000 A 
ATOM     20  C   UNL     1       4.788  -1.570   3.190  0.00  0.00    +0.000 A 
ATOM     21  C   UNL     1       5.332  -0.714   2.223  0.00  0.00    +0.000 A 
ATOM     22  C   UNL     1       4.676  -0.476   1.009  0.00  0.00    +0.000 A 
BRANCH  17  24
ATOM     23  N   UNL     1       1.438  -0.987  -0.627  0.00  0.00    +0.000 N 
ATOM     24  C   UNL     1       2.797  -0.849  -0.569  0.00  0.00    +0.000 C 
ATOM     25  O   UNL     1       3.439  -0.517  -1.557  0.00  0.00    +0.000 OA
ATOM     26  H   UNL     1       0.999  -0.737  -1.503  0.00  0.00    +0.000 HD
ATOM     27  H   UNL     1       0.859  -1.017   0.200  0.00  0.00    +0.000 HD
ENDBRANCH  17  24
ENDBRANCH  15  20
ENDBRANCH   1  15
TORSDOF 5
