REMARK  Name = 
REMARK  9 active torsions:
REMARK  status: ('A' for Active; 'I' for Inactive)
REMARK    1  A    between atoms: C_1  and  O_2
REMARK    2  A    between atoms: O_2  and  C_3
REMARK    3  A    between atoms: C_10  and  C_11
REMARK    4  A    between atoms: N_13  and  C_14
REMARK    5  A    between atoms: C_14  and  C_15
REMARK    6  A    between atoms: C_18  and  N_19
REMARK    7  A    between atoms: N_19  and  C_20
REMARK    8  A    between atoms: C_20  and  C_21
REMARK    9  A    between atoms: C_21  and  N_22
REMARK                            x       y       z     vdW  Elec       q    Type
REMARK                         _______ _______ _______ _____ _____    ______ ____
ROOT
ATOM      1  C   UNL     1       2.846   1.327   3.007  0.00  0.00    +0.000 C 
ENDROOT
BRANCH   1   2
ATOM      2  C   UNL     1       1.780   2.269   2.516  0.00  0.00    +0.000 A 
ATOM      3  C   UNL     1       0.507   1.793   2.189  0.00  0.00    +0.000 A 
ATOM      4  C   UNL     1      -0.496   2.671   1.759  0.00  0.00    +0.000 A 
ATOM      5  C   UNL     1      -0.265   4.046   1.661  0.00  0.00    +0.000 A 
ATOM      6  C   UNL     1       1.036   4.503   1.904  0.00  0.00    +0.000 A 
ATOM      7  C   UNL     1       2.045   3.632   2.341  0.00  0.00    +0.000 A 
BRANCH   5   8
ATOM      8  N   UNL     1      -1.230   4.973   1.237  0.00  0.00    +0.000 N 
ATOM      9  H   UNL     1      -1.151   5.158   0.235  0.00  0.00    +0.000 HD
BRANCH   8  10
ATOM     10  C   UNL     1      -2.625   4.695   1.598  0.00  0.00    +0.000 C 
BRANCH  10  11
ATOM     11  C   UNL     1      -3.582   5.779   1.048  0.00  0.00    +0.000 C 
BRANCH  11  12
ATOM     12  N   UNL     1      -3.620   5.915  -0.430  0.00  0.00    +0.000 NA
ATOM     13  C   UNL     1      -4.071   4.677  -1.086  0.00  0.00    +0.000 C 
ATOM     14  C   UNL     1      -4.094   4.825  -2.608  0.00  0.00    +0.000 C 
ATOM     15  C   UNL     1      -4.965   5.995  -3.042  0.00  0.00    +0.000 C 
ATOM     16  C   UNL     1      -4.551   7.262  -2.305  0.00  0.00    +0.000 C 
ATOM     17  C   UNL     1      -4.512   7.036  -0.791  0.00  0.00    +0.000 C 
ENDBRANCH  11  12
ENDBRANCH  10  11
ENDBRANCH   8  10
ENDBRANCH   5   8
ENDBRANCH   1   2
BRANCH   1  20
ATOM     18  C   UNL     1       4.563  -0.180   2.122  0.00  0.00    +0.000 C 
ATOM     19  O   UNL     1       4.820  -0.588   3.251  0.00  0.00    +0.000 OA
ATOM     20  N   UNL     1       3.600   0.765   1.914  0.00  0.00    +0.000 N 
ATOM     21  H   UNL     1       3.433   1.135   0.987  0.00  0.00    +0.000 HD
BRANCH  18  29
ATOM     22  C   UNL     1       4.222   0.309  -1.272  0.00  0.00    +0.000 A 
ATOM     23  N   UNL     1       4.319   0.322  -2.616  0.00  0.00    +0.000 NA
ATOM     24  C   UNL     1       5.272  -0.420  -3.186  0.00  0.00    +0.000 A 
ATOM     25  N   UNL     1       6.159  -1.194  -2.568  0.00  0.00    +0.000 NA
ATOM     26  C   UNL     1       6.034  -1.172  -1.230  0.00  0.00    +0.000 A 
ATOM     27  S   UNL     1       7.085  -2.107  -0.279  0.00  0.00    +0.000 S 
ATOM     28  C   UNL     1       6.336  -1.579   1.151  0.00  0.00    +0.000 A 
ATOM     29  C   UNL     1       5.288  -0.690   0.944  0.00  0.00    +0.000 A 
ATOM     30  C   UNL     1       5.106  -0.450  -0.485  0.00  0.00    +0.000 A 
BRANCH  22  32
ATOM     31  C   UNL     1       2.138   1.333  -1.536  0.00  0.00    +0.000 C 
ATOM     32  O   UNL     1       3.261   1.106  -0.685  0.00  0.00    +0.000 OA
ENDBRANCH  22  32
ENDBRANCH  18  29
ENDBRANCH   1  20
TORSDOF 8
