REMARK  Name = 
REMARK  5 active torsions:
REMARK  status: ('A' for Active; 'I' for Inactive)
REMARK    1  A    between atoms: N_1  and  C_2
REMARK    2  A    between atoms: C_2  and  C_3
REMARK    3  A    between atoms: C_6  and  O_7
REMARK    4  A    between atoms: O_7  and  C_8
REMARK    5  A    between atoms: C_8  and  C_9
REMARK                            x       y       z     vdW  Elec       q    Type
REMARK                         _______ _______ _______ _____ _____    ______ ____
ROOT
ATOM      1  C   UNL     1       2.781   1.162   0.820  0.00  0.00    +0.000 A 
ATOM      2  C   UNL     1       2.672   2.491   0.383  0.00  0.00    +0.000 A 
ATOM      3  C   UNL     1       2.949   3.552   1.251  0.00  0.00    +0.000 A 
ATOM      4  C   UNL     1       3.326   3.298   2.569  0.00  0.00    +0.000 A 
ATOM      5  C   UNL     1       3.508   1.977   2.988  0.00  0.00    +0.000 A 
ATOM      6  C   UNL     1       3.222   0.918   2.126  0.00  0.00    +0.000 A 
ENDROOT
BRANCH   1   7
ATOM      7  C   UNL     1       2.404   0.013  -0.078  0.00  0.00    +0.000 C 
BRANCH   7   8
ATOM      8  N   UNL     1       3.219  -0.021  -1.283  0.00  0.00    +0.000 NA
ATOM      9  H   UNL     1       3.033  -0.887  -1.783  0.00  0.00    +0.000 HD
ATOM     10  H   UNL     1       4.201  -0.049  -1.012  0.00  0.00    +0.000 HD
ENDBRANCH   7   8
ENDBRANCH   1   7
BRANCH   4  11
ATOM     11  O   UNL     1       3.475   4.397   3.378  0.00  0.00    +0.000 OA
BRANCH  11  12
ATOM     12  C   UNL     1       3.318   4.120   4.772  0.00  0.00    +0.000 C 
BRANCH  12  13
ATOM     13  C   UNL     1       2.956   5.354   5.562  0.00  0.00    +0.000 A 
ATOM     14  C   UNL     1       2.099   5.226   6.670  0.00  0.00    +0.000 A 
ATOM     15  C   UNL     1       1.784   6.332   7.459  0.00  0.00    +0.000 A 
ATOM     16  C   UNL     1       2.328   7.577   7.157  0.00  0.00    +0.000 A 
ATOM     17  C   UNL     1       3.184   7.703   6.070  0.00  0.00    +0.000 A 
ATOM     18  F   UNL     1       3.715   8.900   5.788  0.00  0.00    +0.000 F 
ATOM     19  C   UNL     1       3.507   6.607   5.273  0.00  0.00    +0.000 A 
ENDBRANCH  12  13
ENDBRANCH  11  12
ENDBRANCH   4  11
TORSDOF 5
