REMARK  Name = 
REMARK  9 active torsions:
REMARK  status: ('A' for Active; 'I' for Inactive)
REMARK    1  A    between atoms: C_1  and  C_2
REMARK    2  A    between atoms: C_2  and  C_3
REMARK    3  A    between atoms: C_5  and  O_6
REMARK    4  A    between atoms: O_6  and  C_7
REMARK    5  A    between atoms: C_9  and  C_10
REMARK    6  A    between atoms: C_10  and  C_13
REMARK    7  A    between atoms: C_13  and  N_14
REMARK    8  A    between atoms: N_14  and  C_15
REMARK    9  A    between atoms: C_18  and  C_19
REMARK                            x       y       z     vdW  Elec       q    Type
REMARK                         _______ _______ _______ _____ _____    ______ ____
ROOT
ATOM      1  C   UNL     1      -4.338   0.543   4.669  0.00  0.00    +0.000 C 
ATOM      2  F   UNL     1      -3.435  -0.432   4.988  0.00  0.00    +0.000 F 
ATOM      3  F   UNL     1      -3.754   1.717   5.060  0.00  0.00    +0.000 F 
ENDROOT
BRANCH   1   6
ATOM      4  C   UNL     1      -3.881   0.691   0.898  0.00  0.00    +0.000 A 
ATOM      5  C   UNL     1      -3.594   0.739   2.256  0.00  0.00    +0.000 A 
ATOM      6  C   UNL     1      -4.636   0.540   3.173  0.00  0.00    +0.000 A 
ATOM      7  C   UNL     1      -5.921   0.327   2.648  0.00  0.00    +0.000 A 
ATOM      8  C   UNL     1      -6.107   0.319   1.276  0.00  0.00    +0.000 A 
ATOM      9  N   UNL     1      -5.113   0.490   0.390  0.00  0.00    +0.000 NA
BRANCH   4  10
ATOM     10  O   UNL     1      -2.828   0.843   0.020  0.00  0.00    +0.000 OA
BRANCH  10  15
ATOM     11  C   UNL     1      -2.790  -1.452  -3.861  0.00  0.00    +0.000 C 
ATOM     12  C   UNL     1      -2.089  -1.327  -2.509  0.00  0.00    +0.000 C 
ATOM     13  C   UNL     1      -0.938  -2.320  -2.381  0.00  0.00    +0.000 C 
ATOM     14  C   UNL     1      -3.052  -1.332  -1.293  0.00  0.00    +0.000 C 
ATOM     15  C   UNL     1      -3.004   0.219  -1.275  0.00  0.00    +0.000 C 
ATOM     16  C   UNL     1      -1.709   0.126  -2.120  0.00  0.00    +0.000 C 
ENDBRANCH  10  15
ENDBRANCH   4  10
ENDBRANCH   1   6
BRANCH   1  17
ATOM     17  C   UNL     1      -5.610   0.334   5.534  0.00  0.00    +0.000 C 
BRANCH  17  18
ATOM     18  N   UNL     1      -5.409   0.347   6.997  0.00  0.00    +0.000 N 
ATOM     19  H   UNL     1      -4.818   1.124   7.295  0.00  0.00    +0.000 HD
BRANCH  18  20
ATOM     20  C   UNL     1      -6.565   0.200   7.785  0.00  0.00    +0.000 A 
ATOM     21  C   UNL     1      -7.671  -0.570   7.390  0.00  0.00    +0.000 A 
ATOM     22  C   UNL     1      -8.776  -0.760   8.231  0.00  0.00    +0.000 A 
ATOM     23  C   UNL     1      -8.786  -0.201   9.511  0.00  0.00    +0.000 A 
ATOM     24  C   UNL     1      -7.677   0.536   9.921  0.00  0.00    +0.000 A 
ATOM     25  F   UNL     1      -7.628   1.093  11.141  0.00  0.00    +0.000 F 
ATOM     26  C   UNL     1      -6.579   0.722   9.078  0.00  0.00    +0.000 A 
BRANCH  23  27
ATOM     27  C   UNL     1      -9.967  -0.436  10.381  0.00  0.00    +0.000 C 
ATOM     28  N   UNL     1      -9.968   0.125  11.625  0.00  0.00    +0.000 N 
ATOM     29  O   UNL     1     -10.919  -1.107   9.998  0.00  0.00    +0.000 OA
ATOM     30  H   UNL     1      -9.197   0.677  11.981  0.00  0.00    +0.000 HD
ATOM     31  H   UNL     1     -10.760  -0.048  12.229  0.00  0.00    +0.000 HD
ENDBRANCH  23  27
ENDBRANCH  18  20
ENDBRANCH  17  18
ENDBRANCH   1  17
TORSDOF 7
