REMARK  Name = 
REMARK  6 active torsions:
REMARK  status: ('A' for Active; 'I' for Inactive)
REMARK    1  A    between atoms: N_1  and  C_2
REMARK    2  A    between atoms: C_2  and  C_3
REMARK    3  A    between atoms: C_6  and  O_7
REMARK    4  A    between atoms: O_7  and  C_8
REMARK    5  A    between atoms: C_8  and  C_9
REMARK    6  A    between atoms: C_14  and  O_15
REMARK                            x       y       z     vdW  Elec       q    Type
REMARK                         _______ _______ _______ _____ _____    ______ ____
ROOT
ATOM      1  C   UNL     1       2.886  -1.267   0.351  0.00  0.00    +0.000 A 
ATOM      2  C   UNL     1       3.855  -1.508   1.336  0.00  0.00    +0.000 A 
ATOM      3  C   UNL     1       4.207  -2.817   1.678  0.00  0.00    +0.000 A 
ATOM      4  C   UNL     1       3.587  -3.897   1.049  0.00  0.00    +0.000 A 
ATOM      5  C   UNL     1       2.675  -3.663   0.021  0.00  0.00    +0.000 A 
ATOM      6  C   UNL     1       2.318  -2.356  -0.318  0.00  0.00    +0.000 A 
ENDROOT
BRANCH   1   7
ATOM      7  C   UNL     1       2.435   0.133   0.025  0.00  0.00    +0.000 C 
BRANCH   7   8
ATOM      8  N   UNL     1       3.525   0.947  -0.494  0.00  0.00    +0.000 NA
ATOM      9  H   UNL     1       3.142   1.815  -0.861  0.00  0.00    +0.000 HD
ATOM     10  H   UNL     1       3.946   0.461  -1.285  0.00  0.00    +0.000 HD
ENDBRANCH   7   8
ENDBRANCH   1   7
BRANCH   4  11
ATOM     11  O   UNL     1       3.928  -5.141   1.510  0.00  0.00    +0.000 OA
BRANCH  11  12
ATOM     12  C   UNL     1       2.926  -6.151   1.303  0.00  0.00    +0.000 C 
BRANCH  12  13
ATOM     13  C   UNL     1       3.092  -7.283   2.286  0.00  0.00    +0.000 A 
ATOM     14  C   UNL     1       4.363  -7.659   2.745  0.00  0.00    +0.000 A 
ATOM     15  C   UNL     1       4.508  -8.699   3.665  0.00  0.00    +0.000 A 
ATOM     16  C   UNL     1       3.386  -9.383   4.127  0.00  0.00    +0.000 A 
ATOM     17  C   UNL     1       2.118  -9.047   3.653  0.00  0.00    +0.000 A 
ATOM     18  C   UNL     1       1.981  -8.014   2.727  0.00  0.00    +0.000 A 
BRANCH  18  19
ATOM     19  O   UNL     1       0.744  -7.704   2.232  0.00  0.00    +0.000 OA
ATOM     20  H   UNL     1       0.093  -8.315   2.616  0.00  0.00    +0.000 HD
ENDBRANCH  18  19
ENDBRANCH  12  13
ENDBRANCH  11  12
ENDBRANCH   4  11
TORSDOF 6
