REMARK  Name = 
REMARK  11 active torsions:
REMARK  status: ('A' for Active; 'I' for Inactive)
REMARK    1  A    between atoms: C_1  and  C_2
REMARK    2  A    between atoms: C_2  and  C_3
REMARK    3  A    between atoms: C_2  and  C_4
REMARK    4  A    between atoms: C_2  and  C_15
REMARK    5  A    between atoms: C_4  and  N_5
REMARK    6  A    between atoms: N_5  and  C_6
REMARK    7  A    between atoms: C_9  and  C_10
REMARK    8  A    between atoms: C_19  and  O_20
REMARK    9  A    between atoms: O_20  and  C_21
REMARK   10  A    between atoms: C_21  and  C_22
REMARK   11  A    between atoms: C_24  and  O_25
REMARK                            x       y       z     vdW  Elec       q    Type
REMARK                         _______ _______ _______ _____ _____    ______ ____
ROOT
ATOM      1  C   UNL     1       9.809  -4.528  -5.649  0.00  0.00    +0.000 C 
ATOM      2  C   UNL     1       9.621  -3.315  -6.595  0.00  0.00    +0.000 C 
ATOM      3  C   UNL     1      11.001  -2.847  -7.130  0.00  0.00    +0.000 C 
ENDROOT
BRANCH   2   4
ATOM      4  C   UNL     1       9.017  -2.141  -5.787  0.00  0.00    +0.000 A 
ATOM      5  C   UNL     1       9.732  -1.660  -4.671  0.00  0.00    +0.000 A 
ATOM      6  C   UNL     1       9.284  -0.576  -3.921  0.00  0.00    +0.000 A 
ATOM      7  C   UNL     1       8.106   0.055  -4.277  0.00  0.00    +0.000 A 
ATOM      8  C   UNL     1       7.381  -0.372  -5.385  0.00  0.00    +0.000 A 
ATOM      9  C   UNL     1       7.816  -1.487  -6.122  0.00  0.00    +0.000 A 
BRANCH   8  10
ATOM     10  O   UNL     1       6.239   0.271  -5.805  0.00  0.00    +0.000 OA
BRANCH  10  11
ATOM     11  C   UNL     1       6.235   1.719  -5.638  0.00  0.00    +0.000 C 
ATOM     12  C   UNL     1       7.315   2.456  -6.386  0.00  0.00    +0.000 C 
ATOM     13  C   UNL     1       4.846   2.317  -5.559  0.00  0.00    +0.000 C 
ATOM     14  C   UNL     1       5.719   2.316  -4.344  0.00  0.00    +0.000 C 
BRANCH  14  15
ATOM     15  O   UNL     1       5.330   1.421  -3.290  0.00  0.00    +0.000 OA
ATOM     16  H   UNL     1       4.915   0.611  -3.637  0.00  0.00    +0.000 HD
ENDBRANCH  14  15
ENDBRANCH  10  11
ENDBRANCH   8  10
ENDBRANCH   2   4
BRANCH   2  17
ATOM     17  C   UNL     1       8.738  -3.759  -7.805  0.00  0.00    +0.000 C 
BRANCH  17  18
ATOM     18  N   UNL     1       9.319  -4.889  -8.532  0.00  0.00    +0.000 N 
ATOM     19  H   UNL     1      10.332  -4.943  -8.536  0.00  0.00    +0.000 HD
BRANCH  18  20
ATOM     20  C   UNL     1       8.758  -5.388  -9.700  0.00  0.00    +0.000 A 
ATOM     21  C   UNL     1       7.518  -4.986 -10.202  0.00  0.00    +0.000 A 
ATOM     22  C   UNL     1       6.955  -5.619 -11.315  0.00  0.00    +0.000 A 
ATOM     23  C   UNL     1       7.617  -6.682 -11.936  0.00  0.00    +0.000 A 
ATOM     24  C   UNL     1       8.852  -7.105 -11.437  0.00  0.00    +0.000 A 
ATOM     25  C   UNL     1       9.406  -6.462 -10.327  0.00  0.00    +0.000 A 
BRANCH  23  26
ATOM     26  C   UNL     1       6.952  -7.366 -13.071  0.00  0.00    +0.000 C 
ATOM     27  N   UNL     1       7.744  -8.020 -13.970  0.00  0.00    +0.000 N 
ATOM     28  O   UNL     1       5.732  -7.327 -13.217  0.00  0.00    +0.000 OA
ATOM     29  H   UNL     1       8.748  -7.933 -13.991  0.00  0.00    +0.000 HD
ATOM     30  H   UNL     1       7.279  -8.417 -14.778  0.00  0.00    +0.000 HD
ENDBRANCH  23  26
ENDBRANCH  18  20
ENDBRANCH  17  18
ENDBRANCH   2  17
TORSDOF 8
