REMARK  Name = 
REMARK  5 active torsions:
REMARK  status: ('A' for Active; 'I' for Inactive)
REMARK    1  A    between atoms: C_2  and  C_18
REMARK    2  A    between atoms: N_3  and  C_4
REMARK    3  A    between atoms: C_4  and  C_5
REMARK    4  A    between atoms: C_8  and  O_9
REMARK    5  A    between atoms: O_9  and  C_10
REMARK                            x       y       z     vdW  Elec       q    Type
REMARK                         _______ _______ _______ _____ _____    ______ ____
ROOT
ATOM      1  O   UNL     1       1.086  -0.935  -0.482  0.00  0.00    +0.000 OA
ATOM      2  C   UNL     1       2.276  -0.649  -0.510  0.00  0.00    +0.000 C 
ATOM      3  N   UNL     1       2.877   0.088  -1.503  0.00  0.00    +0.000 N 
ATOM      4  H   UNL     1       3.815   0.427  -1.351  0.00  0.00    +0.000 HD
ENDROOT
BRANCH   2   5
ATOM      5  C   UNL     1       3.185  -0.867   0.608  0.00  0.00    +0.000 A 
ATOM      6  C   UNL     1       2.812  -0.670   1.926  0.00  0.00    +0.000 A 
ATOM      7  S   UNL     1       4.176  -0.477   2.948  0.00  0.00    +0.000 S 
ATOM      8  C   UNL     1       5.256  -0.788   1.664  0.00  0.00    +0.000 A 
ATOM      9  N   UNL     1       6.599  -0.639   1.787  0.00  0.00    +0.000 NA
ATOM     10  C   UNL     1       7.266  -0.954   0.725  0.00  0.00    +0.000 A 
ATOM     11  N   UNL     1       6.714  -1.450  -0.433  0.00  0.00    +0.000 N 
ATOM     12  C   UNL     1       5.364  -1.642  -0.593  0.00  0.00    +0.000 A 
ATOM     13  O   UNL     1       4.894  -2.183  -1.588  0.00  0.00    +0.000 OA
ATOM     14  C   UNL     1       4.578  -1.169   0.523  0.00  0.00    +0.000 A 
ATOM     15  H   UNL     1       7.298  -1.763  -1.193  0.00  0.00    +0.000 HD
ENDBRANCH   2   5
BRANCH   3  16
ATOM     16  C   UNL     1       2.136   0.768  -2.528  0.00  0.00    +0.000 C 
BRANCH  16  17
ATOM     17  C   UNL     1       3.104   1.394  -3.500  0.00  0.00    +0.000 A 
ATOM     18  C   UNL     1       3.555   0.663  -4.604  0.00  0.00    +0.000 A 
ATOM     19  C   UNL     1       4.485   1.214  -5.489  0.00  0.00    +0.000 A 
ATOM     20  C   UNL     1       4.959   2.514  -5.294  0.00  0.00    +0.000 A 
ATOM     21  C   UNL     1       4.563   3.226  -4.160  0.00  0.00    +0.000 A 
ATOM     22  C   UNL     1       3.642   2.670  -3.266  0.00  0.00    +0.000 A 
BRANCH  20  23
ATOM     23  O   UNL     1       5.879   3.125  -6.114  0.00  0.00    +0.000 OA
BRANCH  23  24
ATOM     24  C   UNL     1       5.788   2.908  -7.483  0.00  0.00    +0.000 A 
ATOM     25  N   UNL     1       4.594   2.629  -8.040  0.00  0.00    +0.000 NA
ATOM     26  C   UNL     1       4.595   2.396  -9.364  0.00  0.00    +0.000 A 
ATOM     27  C   UNL     1       5.725   2.462 -10.142  0.00  0.00    +0.000 A 
ATOM     28  C   UNL     1       6.883   2.797  -9.480  0.00  0.00    +0.000 A 
ATOM     29  N   UNL     1       6.945   3.026  -8.155  0.00  0.00    +0.000 NA
ENDBRANCH  23  24
ENDBRANCH  20  23
ENDBRANCH  16  17
ENDBRANCH   3  16
TORSDOF 5
