REMARK  Name = 
REMARK  5 active torsions:
REMARK  status: ('A' for Active; 'I' for Inactive)
REMARK    1  A    between atoms: C_2  and  C_4
REMARK    2  A    between atoms: C_7  and  O_8
REMARK    3  A    between atoms: O_8  and  C_9
REMARK    4  A    between atoms: C_9  and  C_10
REMARK    5  A    between atoms: C_14  and  N_15
REMARK                            x       y       z     vdW  Elec       q    Type
REMARK                         _______ _______ _______ _____ _____    ______ ____
ROOT
ATOM      1  C   UNL     1       5.019   5.933   0.717  0.00  0.00    +0.000 C 
ENDROOT
BRANCH   1   2
ATOM      2  C   UNL     1       5.868   7.135   0.418  0.00  0.00    +0.000 A 
ATOM      3  C   UNL     1       7.205   7.014   0.075  0.00  0.00    +0.000 A 
ATOM      4  N   UNL     1       8.028   8.064  -0.131  0.00  0.00    +0.000 NA
ATOM      5  C   UNL     1       7.485   9.299   0.026  0.00  0.00    +0.000 A 
ATOM      6  C   UNL     1       6.156   9.562   0.364  0.00  0.00    +0.000 A 
ATOM      7  C   UNL     1       5.351   8.430   0.543  0.00  0.00    +0.000 A 
BRANCH   6   8
ATOM      8  N   UNL     1       5.634  10.819   0.611  0.00  0.00    +0.000 N 
ATOM      9  C   UNL     1       6.508  11.942   0.983  0.00  0.00    +0.000 C 
ATOM     10  C   UNL     1       5.668  12.949   1.789  0.00  0.00    +0.000 C 
ATOM     11  O   UNL     1       4.533  13.410   1.032  0.00  0.00    +0.000 OA
ATOM     12  C   UNL     1       3.688  12.303   0.664  0.00  0.00    +0.000 C 
ATOM     13  C   UNL     1       4.453  11.252  -0.160  0.00  0.00    +0.000 C 
ENDBRANCH   6   8
ENDBRANCH   1   2
BRANCH   1  14
ATOM     14  O   UNL     1       3.904   5.923  -0.171  0.00  0.00    +0.000 OA
BRANCH  14  18
ATOM     15  C   UNL     1       1.021   2.915   0.041  0.00  0.00    +0.000 A 
ATOM     16  C   UNL     1       2.073   2.894   0.963  0.00  0.00    +0.000 A 
ATOM     17  C   UNL     1       3.062   3.885   0.928  0.00  0.00    +0.000 A 
ATOM     18  C   UNL     1       3.006   4.901  -0.028  0.00  0.00    +0.000 A 
ATOM     19  C   UNL     1       1.958   4.915  -0.952  0.00  0.00    +0.000 A 
ATOM     20  C   UNL     1       0.973   3.924  -0.926  0.00  0.00    +0.000 A 
BRANCH  15  22
ATOM     21  N   UNL     1      -0.321   1.265   1.229  0.00  0.00    +0.000 N 
ATOM     22  C   UNL     1      -0.044   1.879   0.040  0.00  0.00    +0.000 C 
ATOM     23  O   UNL     1      -0.676   1.608  -0.972  0.00  0.00    +0.000 OA
ATOM     24  H   UNL     1      -1.122   0.647   1.232  0.00  0.00    +0.000 HD
ATOM     25  H   UNL     1      -0.017   1.641   2.115  0.00  0.00    +0.000 HD
ENDBRANCH  15  22
ENDBRANCH  14  18
ENDBRANCH   1  14
TORSDOF 5
