REMARK  Name = 
REMARK  6 active torsions:
REMARK  status: ('A' for Active; 'I' for Inactive)
REMARK    1  A    between atoms: C_1  and  C_2
REMARK    2  A    between atoms: C_2  and  N_3
REMARK    3  A    between atoms: C_2  and  C_16
REMARK    4  A    between atoms: N_3  and  C_4
REMARK    5  A    between atoms: C_7  and  C_8
REMARK    6  A    between atoms: C_12  and  N_13
REMARK                            x       y       z     vdW  Elec       q    Type
REMARK                         _______ _______ _______ _____ _____    ______ ____
ROOT
ATOM      1  C   UNL     1       2.412  -2.332  -0.642  0.00  0.00    +0.000 A 
ATOM      2  N   UNL     1       1.388  -2.562   0.219  0.00  0.00    +0.000 NA
ATOM      3  C   UNL     1       0.970  -3.842   0.437  0.00  0.00    +0.000 A 
ATOM      4  C   UNL     1       1.525  -4.957  -0.167  0.00  0.00    +0.000 A 
ATOM      5  C   UNL     1       2.571  -4.730  -1.060  0.00  0.00    +0.000 A 
ATOM      6  C   UNL     1       3.020  -3.417  -1.297  0.00  0.00    +0.000 A 
ENDROOT
BRANCH   4   7
ATOM      7  C   UNL     1       1.095  -6.350   0.087  0.00  0.00    +0.000 C 
ATOM      8  N   UNL     1       0.160  -6.599   1.049  0.00  0.00    +0.000 N 
ATOM      9  O   UNL     1       1.585  -7.279  -0.543  0.00  0.00    +0.000 OA
ATOM     10  H   UNL     1      -0.274  -5.921   1.657  0.00  0.00    +0.000 HD
ATOM     11  H   UNL     1      -0.063  -7.572   1.211  0.00  0.00    +0.000 HD
ENDBRANCH   4   7
BRANCH   6  12
ATOM     12  N   UNL     1       4.193  -3.240  -2.156  0.00  0.00    +0.000 N 
ATOM     13  O   UNL     1       4.711  -2.115  -2.227  0.00  0.00    +0.000 OA
ATOM     14  O   UNL     1       4.642  -4.242  -2.730  0.00  0.00    +0.000 OA
ENDBRANCH   6  12
BRANCH   1  15
ATOM     15  N   UNL     1       2.729  -0.998  -0.933  0.00  0.00    +0.000 N 
ATOM     16  H   UNL     1       3.705  -0.943  -1.238  0.00  0.00    +0.000 HD
BRANCH  15  18
ATOM     17  C   UNL     1       1.052   0.585  -0.004  0.00  0.00    +0.000 C 
ATOM     18  C   UNL     1       2.466   0.013   0.102  0.00  0.00    +0.000 C 
BRANCH  18  19
ATOM     19  C   UNL     1       3.481   1.154  -0.034  0.00  0.00    +0.000 A 
ATOM     20  C   UNL     1       4.017   1.750   1.120  0.00  0.00    +0.000 A 
ATOM     21  C   UNL     1       4.950   2.785   1.021  0.00  0.00    +0.000 A 
ATOM     22  C   UNL     1       5.358   3.236  -0.232  0.00  0.00    +0.000 A 
ATOM     23 CL   UNL     1       6.525   4.495  -0.351  0.00  0.00    +0.000 Cl
ATOM     24  C   UNL     1       4.826   2.674  -1.389  0.00  0.00    +0.000 A 
ATOM     25  C   UNL     1       3.882   1.647  -1.290  0.00  0.00    +0.000 A 
ENDBRANCH  18  19
ENDBRANCH  15  18
ENDBRANCH   1  15
TORSDOF 5
