REMARK  Name = 
REMARK  6 active torsions:
REMARK  status: ('A' for Active; 'I' for Inactive)
REMARK    1  A    between atoms: C_2  and  C_25
REMARK    2  A    between atoms: N_3  and  C_4
REMARK    3  A    between atoms: C_4  and  C_5
REMARK    4  A    between atoms: C_8  and  C_9
REMARK    5  A    between atoms: C_9  and  N_10
REMARK    6  A    between atoms: C_11  and  C_13
REMARK                            x       y       z     vdW  Elec       q    Type
REMARK                         _______ _______ _______ _____ _____    ______ ____
ROOT
ATOM      1  C   UNL     1       3.259  -2.778  -2.260  0.00  0.00    +0.000 A 
ATOM      2  C   UNL     1       4.374  -2.242  -2.919  0.00  0.00    +0.000 A 
ATOM      3  C   UNL     1       5.256  -3.071  -3.621  0.00  0.00    +0.000 A 
ATOM      4  C   UNL     1       5.029  -4.452  -3.697  0.00  0.00    +0.000 A 
ATOM      5  C   UNL     1       3.924  -4.989  -3.024  0.00  0.00    +0.000 A 
ATOM      6  C   UNL     1       3.042  -4.160  -2.323  0.00  0.00    +0.000 A 
ENDROOT
BRANCH   1   7
ATOM      7  C   UNL     1       2.308  -1.886  -1.509  0.00  0.00    +0.000 C 
BRANCH   7  10
ATOM      8  O   UNL     1       0.260  -0.244  -0.646  0.00  0.00    +0.000 OA
ATOM      9  C   UNL     1       0.245  -0.600  -1.822  0.00  0.00    +0.000 C 
ATOM     10  N   UNL     1       1.226  -1.421  -2.341  0.00  0.00    +0.000 N 
ATOM     11  H   UNL     1       1.210  -1.657  -3.326  0.00  0.00    +0.000 HD
BRANCH   9  12
ATOM     12  C   UNL     1      -0.781  -0.189  -2.748  0.00  0.00    +0.000 A 
ATOM     13  C   UNL     1      -1.853   0.662  -2.600  0.00  0.00    +0.000 A 
ATOM     14  C   UNL     1      -2.492   0.639  -3.850  0.00  0.00    +0.000 A 
ATOM     15  N   UNL     1      -1.867  -0.161  -4.716  0.00  0.00    +0.000 NA
ATOM     16  O   UNL     1      -0.785  -0.682  -4.021  0.00  0.00    +0.000 OA
ENDBRANCH   9  12
ENDBRANCH   7  10
ENDBRANCH   1   7
BRANCH   4  17
ATOM     17  C   UNL     1       5.972  -5.357  -4.451  0.00  0.00    +0.000 C 
BRANCH  17  18
ATOM     18  N   UNL     1       7.023  -5.843  -3.595  0.00  0.00    +0.000 N 
ATOM     19  C   UNL     1       8.034  -6.636  -4.075  0.00  0.00    +0.000 C 
ATOM     20  O   UNL     1       8.123  -6.934  -5.263  0.00  0.00    +0.000 OA
ATOM     21  H   UNL     1       6.837  -5.829  -2.598  0.00  0.00    +0.000 HD
BRANCH  19  22
ATOM     22  C   UNL     1       9.047  -7.057  -3.099  0.00  0.00    +0.000 A 
ATOM     23  C   UNL     1      10.322  -7.404  -3.527  0.00  0.00    +0.000 A 
ATOM     24  S   UNL     1      11.387  -7.795  -2.253  0.00  0.00    +0.000 S 
ATOM     25  C   UNL     1      10.166  -7.571  -1.089  0.00  0.00    +0.000 A 
ATOM     26  N   UNL     1      10.415  -7.767   0.235  0.00  0.00    +0.000 NA
ATOM     27  C   UNL     1       9.391  -7.591   1.001  0.00  0.00    +0.000 A 
ATOM     28  N   UNL     1       8.141  -7.237   0.568  0.00  0.00    +0.000 N 
ATOM     29  C   UNL     1       7.849  -7.005  -0.757  0.00  0.00    +0.000 A 
ATOM     30  O   UNL     1       6.728  -6.656  -1.108  0.00  0.00    +0.000 OA
ATOM     31  C   UNL     1       8.967  -7.192  -1.663  0.00  0.00    +0.000 A 
ATOM     32  H   UNL     1       7.380  -7.111   1.218  0.00  0.00    +0.000 HD
ENDBRANCH  19  22
ENDBRANCH  17  18
ENDBRANCH   4  17
TORSDOF 6
