REMARK  Name = 
REMARK  5 active torsions:
REMARK  status: ('A' for Active; 'I' for Inactive)
REMARK    1  A    between atoms: C_2  and  C_19
REMARK    2  A    between atoms: N_3  and  C_4
REMARK    3  A    between atoms: C_4  and  C_5
REMARK    4  A    between atoms: C_8  and  C_9
REMARK    5  A    between atoms: C_9  and  C_10
REMARK                            x       y       z     vdW  Elec       q    Type
REMARK                         _______ _______ _______ _____ _____    ______ ____
ROOT
ATOM      1  O   UNL     1       0.057   0.464   0.401  0.00  0.00    +0.000 OA
ATOM      2  C   UNL     1      -0.093   1.126   1.420  0.00  0.00    +0.000 C 
ATOM      3  N   UNL     1       0.909   1.857   2.024  0.00  0.00    +0.000 N 
ATOM      4  H   UNL     1       0.640   2.507   2.748  0.00  0.00    +0.000 HD
ENDROOT
BRANCH   2   5
ATOM      5  C   UNL     1      -1.390   1.407   2.019  0.00  0.00    +0.000 A 
ATOM      6  C   UNL     1      -2.516   1.677   1.261  0.00  0.00    +0.000 A 
ATOM      7  S   UNL     1      -3.732   2.460   2.186  0.00  0.00    +0.000 S 
ATOM      8  C   UNL     1      -2.812   2.330   3.617  0.00  0.00    +0.000 A 
ATOM      9  N   UNL     1      -3.187   2.921   4.782  0.00  0.00    +0.000 NA
ATOM     10  C   UNL     1      -2.394   2.680   5.778  0.00  0.00    +0.000 A 
ATOM     11  N   UNL     1      -1.291   1.867   5.727  0.00  0.00    +0.000 N 
ATOM     12  C   UNL     1      -0.872   1.240   4.574  0.00  0.00    +0.000 A 
ATOM     13  O   UNL     1       0.076   0.471   4.555  0.00  0.00    +0.000 OA
ATOM     14  C   UNL     1      -1.671   1.584   3.412  0.00  0.00    +0.000 A 
ATOM     15  H   UNL     1      -0.758   1.658   6.558  0.00  0.00    +0.000 HD
ENDBRANCH   2   5
BRANCH   3  16
ATOM     16  C   UNL     1       2.173   2.086   1.386  0.00  0.00    +0.000 C 
BRANCH  16  17
ATOM     17  C   UNL     1       3.083   2.863   2.291  0.00  0.00    +0.000 A 
ATOM     18  C   UNL     1       3.081   4.252   2.302  0.00  0.00    +0.000 A 
ATOM     19  N   UNL     1       3.907   5.006   3.064  0.00  0.00    +0.000 NA
ATOM     20  C   UNL     1       4.792   4.360   3.876  0.00  0.00    +0.000 A 
ATOM     21  C   UNL     1       4.808   2.967   3.985  0.00  0.00    +0.000 A 
ATOM     22 CL   UNL     1       5.877   2.117   5.035  0.00  0.00    +0.000 Cl
ATOM     23  C   UNL     1       3.941   2.219   3.186  0.00  0.00    +0.000 A 
BRANCH  20  24
ATOM     24  C   UNL     1       5.766   5.252   4.616  0.00  0.00    +0.000 C 
BRANCH  24  25
ATOM     25  C   UNL     1       5.270   5.729   5.946  0.00  0.00    +0.000 A 
ATOM     26  C   UNL     1       5.615   5.119   7.136  0.00  0.00    +0.000 A 
ATOM     27  N   UNL     1       5.150   5.506   8.340  0.00  0.00    +0.000 NA
ATOM     28  C   UNL     1       4.312   6.553   8.330  0.00  0.00    +0.000 A 
ATOM     29  N   UNL     1       3.916   7.237   7.247  0.00  0.00    +0.000 NA
ATOM     30  C   UNL     1       4.409   6.802   6.070  0.00  0.00    +0.000 A 
ENDBRANCH  24  25
ENDBRANCH  20  24
ENDBRANCH  16  17
ENDBRANCH   3  16
TORSDOF 5
