REMARK  Name = 
REMARK  9 active torsions:
REMARK  status: ('A' for Active; 'I' for Inactive)
REMARK    1  A    between atoms: C_1  and  O_2
REMARK    2  A    between atoms: O_2  and  C_3
REMARK    3  A    between atoms: C_10  and  C_11
REMARK    4  A    between atoms: N_13  and  C_14
REMARK    5  A    between atoms: C_14  and  C_15
REMARK    6  A    between atoms: C_18  and  N_19
REMARK    7  A    between atoms: N_19  and  C_20
REMARK    8  A    between atoms: C_20  and  C_21
REMARK    9  A    between atoms: C_25  and  C_26
REMARK                            x       y       z     vdW  Elec       q    Type
REMARK                         _______ _______ _______ _____ _____    ______ ____
ROOT
ATOM      1  C   UNL     1       1.757   2.452   2.398  0.00  0.00    +0.000 A 
ATOM      2  C   UNL     1       0.522   1.891   2.058  0.00  0.00    +0.000 A 
ATOM      3  C   UNL     1      -0.465   2.643   1.418  0.00  0.00    +0.000 A 
ATOM      4  C   UNL     1      -0.263   3.988   1.116  0.00  0.00    +0.000 A 
ATOM      5  C   UNL     1       0.954   4.564   1.518  0.00  0.00    +0.000 A 
ATOM      6  C   UNL     1       1.959   3.809   2.137  0.00  0.00    +0.000 A 
ENDROOT
BRANCH   4   7
ATOM      7  N   UNL     1      -1.221   4.816   0.526  0.00  0.00    +0.000 N 
ATOM      8  H   UNL     1      -0.778   5.394  -0.185  0.00  0.00    +0.000 HD
BRANCH   7   9
ATOM      9  C   UNL     1      -2.524   4.308   0.124  0.00  0.00    +0.000 C 
BRANCH   9  10
ATOM     10  C   UNL     1      -3.622   5.389   0.181  0.00  0.00    +0.000 C 
ATOM     11  C   UNL     1      -3.396   6.595  -0.744  0.00  0.00    +0.000 C 
ATOM     12  C   UNL     1      -2.513   7.697  -0.149  0.00  0.00    +0.000 C 
ATOM     13  N   UNL     1      -2.941   8.054   1.205  0.00  0.00    +0.000 N 
ATOM     14  C   UNL     1      -3.185   9.321   1.694  0.00  0.00    +0.000 C 
ATOM     15  C   UNL     1      -3.115  10.517   0.783  0.00  0.00    +0.000 C 
ATOM     16  O   UNL     1      -3.489   9.520   2.878  0.00  0.00    +0.000 OA
ATOM     17  C   UNL     1      -2.982   6.920   2.133  0.00  0.00    +0.000 C 
ATOM     18  C   UNL     1      -3.931   5.843   1.618  0.00  0.00    +0.000 C 
ENDBRANCH   9  10
ENDBRANCH   7   9
ENDBRANCH   4   7
BRANCH   1  19
ATOM     19  C   UNL     1       2.850   1.575   2.955  0.00  0.00    +0.000 C 
BRANCH  19  22
ATOM     20  C   UNL     1       3.273   0.118   0.996  0.00  0.00    +0.000 C 
ATOM     21  O   UNL     1       2.123  -0.314   0.997  0.00  0.00    +0.000 OA
ATOM     22  N   UNL     1       3.709   1.036   1.918  0.00  0.00    +0.000 N 
ATOM     23  H   UNL     1       4.696   1.243   1.977  0.00  0.00    +0.000 HD
BRANCH  20  31
ATOM     24  C   UNL     1       6.649   0.626   0.457  0.00  0.00    +0.000 A 
ATOM     25  N   UNL     1       7.922   0.632   0.006  0.00  0.00    +0.000 NA
ATOM     26  C   UNL     1       8.218  -0.092  -1.076  0.00  0.00    +0.000 A 
ATOM     27  N   UNL     1       7.381  -0.836  -1.789  0.00  0.00    +0.000 NA
ATOM     28  C   UNL     1       6.125  -0.810  -1.318  0.00  0.00    +0.000 A 
ATOM     29  S   UNL     1       4.927  -1.709  -2.115  0.00  0.00    +0.000 S 
ATOM     30  C   UNL     1       3.748  -1.199  -1.010  0.00  0.00    +0.000 A 
ATOM     31  C   UNL     1       4.230  -0.355  -0.015  0.00  0.00    +0.000 A 
ATOM     32  C   UNL     1       5.655  -0.114  -0.205  0.00  0.00    +0.000 A 
BRANCH  24  34
ATOM     33  C   UNL     1       7.502   2.027   2.128  0.00  0.00    +0.000 C 
ATOM     34  O   UNL     1       6.358   1.358   1.594  0.00  0.00    +0.000 OA
ENDBRANCH  24  34
ENDBRANCH  20  31
ENDBRANCH  19  22
ENDBRANCH   1  19
TORSDOF 7
