REMARK  Name = 
REMARK  5 active torsions:
REMARK  status: ('A' for Active; 'I' for Inactive)
REMARK    1  A    between atoms: N_1  and  C_2
REMARK    2  A    between atoms: C_2  and  C_3
REMARK    3  A    between atoms: C_3  and  C_4
REMARK    4  A    between atoms: C_7  and  C_8
REMARK    5  A    between atoms: C_8  and  C_9
REMARK                            x       y       z     vdW  Elec       q    Type
REMARK                         _______ _______ _______ _____ _____    ______ ____
ROOT
ATOM      1  C   UNL     1       4.446   1.083  -0.985  0.00  0.00    +0.000 A 
ATOM      2  C   UNL     1       5.133   1.537   0.135  0.00  0.00    +0.000 A 
ATOM      3  C   UNL     1       6.536   1.480   0.167  0.00  0.00    +0.000 A 
ATOM      4  C   UNL     1       7.222   0.955  -0.929  0.00  0.00    +0.000 A 
ATOM      5  N   UNL     1       6.556   0.544  -2.036  0.00  0.00    +0.000 NA
ATOM      6  C   UNL     1       5.205   0.619  -2.049  0.00  0.00    +0.000 A 
ENDROOT
BRANCH   1   7
ATOM      7  C   UNL     1       2.938   1.104  -1.064  0.00  0.00    +0.000 C 
BRANCH   7   8
ATOM      8  C   UNL     1       2.404   2.428  -1.622  0.00  0.00    +0.000 C 
BRANCH   8   9
ATOM      9  N   UNL     1       0.942   2.425  -1.682  0.00  0.00    +0.000 NA
ATOM     10  H   UNL     1       0.622   3.322  -2.049  0.00  0.00    +0.000 HD
ATOM     11  H   UNL     1       0.558   2.353  -0.740  0.00  0.00    +0.000 HD
ENDBRANCH   8   9
ENDBRANCH   7   8
ENDBRANCH   1   7
BRANCH   4  12
ATOM     12  C   UNL     1       8.736   0.882  -1.014  0.00  0.00    +0.000 C 
BRANCH  12  13
ATOM     13  C   UNL     1       9.286   0.055   0.109  0.00  0.00    +0.000 A 
ATOM     14  C   UNL     1      10.306   0.391   0.994  0.00  0.00    +0.000 A 
ATOM     15  N   UNL     1      10.466  -0.639   1.893  0.00  0.00    +0.000 N 
ATOM     16  C   UNL     1       9.575  -1.635   1.607  0.00  0.00    +0.000 A 
ATOM     17  N   UNL     1       9.401  -2.753   2.340  0.00  0.00    +0.000 NA
ATOM     18  C   UNL     1       8.434  -3.559   1.838  0.00  0.00    +0.000 A 
ATOM     19  C   UNL     1       7.725  -3.351   0.662  0.00  0.00    +0.000 A 
ATOM     20  C   UNL     1       7.971  -2.196  -0.072  0.00  0.00    +0.000 A 
ATOM     21  C   UNL     1       8.890  -1.275   0.453  0.00  0.00    +0.000 A 
ATOM     22  H   UNL     1      11.117  -0.673   2.666  0.00  0.00    +0.000 HD
ENDBRANCH  12  13
ENDBRANCH   4  12
TORSDOF 5
