REMARK  Name = 
REMARK  5 active torsions:
REMARK  status: ('A' for Active; 'I' for Inactive)
REMARK    1  A    between atoms: C_2  and  C_4
REMARK    2  A    between atoms: C_7  and  C_8
REMARK    3  A    between atoms: C_8  and  C_9
REMARK    4  A    between atoms: C_9  and  C_10
REMARK    5  A    between atoms: C_14  and  C_15
REMARK                            x       y       z     vdW  Elec       q    Type
REMARK                         _______ _______ _______ _____ _____    ______ ____
ROOT
ATOM      1  C   UNL     1       4.999   1.358   5.676  0.00  0.00    +0.000 C 
ATOM      2  C   UNL     1       4.779  -0.089   6.122  0.00  0.00    +0.000 C 
ATOM      3  C   UNL     1       3.605   0.831   6.006  0.00  0.00    +0.000 C 
ENDROOT
BRANCH   1   4
ATOM      4  C   UNL     1       5.695   2.247   6.706  0.00  0.00    +0.000 A 
ATOM      5  C   UNL     1       5.009   3.232   7.430  0.00  0.00    +0.000 A 
ATOM      6  C   UNL     1       5.614   3.899   8.495  0.00  0.00    +0.000 A 
ATOM      7  C   UNL     1       6.934   3.607   8.843  0.00  0.00    +0.000 A 
ATOM      8  C   UNL     1       7.685   2.669   8.117  0.00  0.00    +0.000 A 
ATOM      9  C   UNL     1       7.043   2.020   7.043  0.00  0.00    +0.000 A 
BRANCH   8  10
ATOM     10  C   UNL     1       9.064   2.311   8.490  0.00  0.00    +0.000 A 
ATOM     11  N   UNL     1       9.530   2.730   9.684  0.00  0.00    +0.000 NA
ATOM     12  C   UNL     1      10.760   2.311  10.029  0.00  0.00    +0.000 A 
ATOM     13  C   UNL     1      11.542   1.507   9.234  0.00  0.00    +0.000 A 
ATOM     14  C   UNL     1      10.989   1.148   8.031  0.00  0.00    +0.000 A 
ATOM     15  N   UNL     1       9.762   1.530   7.635  0.00  0.00    +0.000 NA
ENDBRANCH   8  10
ENDBRANCH   1   4
BRANCH   1  16
ATOM     16  C   UNL     1       5.427   1.501   4.223  0.00  0.00    +0.000 C 
BRANCH  16  20
ATOM     17  C   UNL     1       4.690   5.192   2.225  0.00  0.00    +0.000 A 
ATOM     18  C   UNL     1       5.900   5.021   2.896  0.00  0.00    +0.000 A 
ATOM     19  C   UNL     1       6.129   3.839   3.601  0.00  0.00    +0.000 A 
ATOM     20  C   UNL     1       5.144   2.851   3.611  0.00  0.00    +0.000 A 
ATOM     21  N   UNL     1       3.950   3.014   2.987  0.00  0.00    +0.000 NA
ATOM     22  C   UNL     1       3.746   4.180   2.321  0.00  0.00    +0.000 A 
BRANCH  17  24
ATOM     23  N   UNL     1       5.422   7.096   0.899  0.00  0.00    +0.000 N 
ATOM     24  C   UNL     1       4.372   6.396   1.428  0.00  0.00    +0.000 C 
ATOM     25  O   UNL     1       3.216   6.734   1.211  0.00  0.00    +0.000 OA
ATOM     26  H   UNL     1       5.184   7.853   0.271  0.00  0.00    +0.000 HD
ATOM     27  H   UNL     1       6.354   6.713   0.834  0.00  0.00    +0.000 HD
ENDBRANCH  17  24
ENDBRANCH  16  20
ENDBRANCH   1  16
TORSDOF 5
