REMARK  Name = 
REMARK  6 active torsions:
REMARK  status: ('A' for Active; 'I' for Inactive)
REMARK    1  A    between atoms: N_1  and  C_2
REMARK    2  A    between atoms: C_2  and  C_3
REMARK    3  A    between atoms: C_7  and  O_8
REMARK    4  A    between atoms: O_8  and  C_9
REMARK    5  A    between atoms: C_9  and  C_10
REMARK    6  A    between atoms: C_14  and  C_15
REMARK                            x       y       z     vdW  Elec       q    Type
REMARK                         _______ _______ _______ _____ _____    ______ ____
ROOT
ATOM      1  C   UNL     1       5.476  -0.991  -5.282  0.00  0.00    +0.000 C 
ENDROOT
BRANCH   1   2
ATOM      2  C   UNL     1       6.058  -2.246  -5.881  0.00  0.00    +0.000 A 
ATOM      3  C   UNL     1       5.393  -3.466  -5.813  0.00  0.00    +0.000 A 
ATOM      4  N   UNL     1       5.849  -4.613  -6.367  0.00  0.00    +0.000 NA
ATOM      5  C   UNL     1       7.027  -4.544  -7.033  0.00  0.00    +0.000 A 
ATOM      6  C   UNL     1       7.770  -3.383  -7.183  0.00  0.00    +0.000 A 
ATOM      7  C   UNL     1       7.265  -2.216  -6.596  0.00  0.00    +0.000 A 
BRANCH   6   8
ATOM      8  C   UNL     1       9.049  -3.323  -7.934  0.00  0.00    +0.000 C 
ATOM      9  N   UNL     1       9.539  -4.464  -8.510  0.00  0.00    +0.000 N 
ATOM     10  O   UNL     1       9.665  -2.270  -8.046  0.00  0.00    +0.000 OA
ATOM     11  H   UNL     1       9.116  -5.378  -8.479  0.00  0.00    +0.000 HD
ATOM     12  H   UNL     1      10.413  -4.374  -9.014  0.00  0.00    +0.000 HD
ENDBRANCH   6   8
ENDBRANCH   1   2
BRANCH   1  13
ATOM     13  O   UNL     1       4.657  -1.320  -4.157  0.00  0.00    +0.000 OA
BRANCH  13  18
ATOM     14  C   UNL     1       2.666   0.291  -1.569  0.00  0.00    +0.000 A 
ATOM     15  C   UNL     1       2.784   1.644  -1.915  0.00  0.00    +0.000 A 
ATOM     16  C   UNL     1       3.521   2.027  -3.034  0.00  0.00    +0.000 A 
ATOM     17  C   UNL     1       4.162   1.066  -3.819  0.00  0.00    +0.000 A 
ATOM     18  C   UNL     1       4.065  -0.285  -3.486  0.00  0.00    +0.000 A 
ATOM     19  C   UNL     1       3.312  -0.665  -2.368  0.00  0.00    +0.000 A 
BRANCH  14  20
ATOM     20  C   UNL     1       1.894  -0.116  -0.340  0.00  0.00    +0.000 C 
BRANCH  20  21
ATOM     21  N   UNL     1       0.504   0.323  -0.405  0.00  0.00    +0.000 NA
ATOM     22  H   UNL     1       0.010  -0.012   0.420  0.00  0.00    +0.000 HD
ATOM     23  H   UNL     1       0.059  -0.120  -1.207  0.00  0.00    +0.000 HD
ENDBRANCH  20  21
ENDBRANCH  14  20
ENDBRANCH  13  18
ENDBRANCH   1  13
TORSDOF 6
