REMARK  Name = 
REMARK  4 active torsions:
REMARK  status: ('A' for Active; 'I' for Inactive)
REMARK    1  A    between atoms: C_2  and  C_4
REMARK    2  A    between atoms: C_7  and  O_8
REMARK    3  A    between atoms: O_8  and  C_9
REMARK    4  A    between atoms: C_9  and  C_10
REMARK                            x       y       z     vdW  Elec       q    Type
REMARK                         _______ _______ _______ _____ _____    ______ ____
ROOT
ATOM      1  C   UNL     1       3.188   1.982   1.202  0.00  0.00    +0.000 A 
ATOM      2  C   UNL     1       4.066   0.912   1.045  0.00  0.00    +0.000 A 
ATOM      3  C   UNL     1       4.868   0.541   2.121  0.00  0.00    +0.000 A 
ATOM      4  C   UNL     1       4.760   1.241   3.317  0.00  0.00    +0.000 A 
ATOM      5  N   UNL     1       3.920   2.280   3.510  0.00  0.00    +0.000 NA
ATOM      6  C   UNL     1       3.159   2.631   2.434  0.00  0.00    +0.000 A 
ENDROOT
BRANCH   1   8
ATOM      7  N   UNL     1       2.016   1.597  -0.903  0.00  0.00    +0.000 N 
ATOM      8  C   UNL     1       2.335   2.477   0.096  0.00  0.00    +0.000 C 
ATOM      9  O   UNL     1       1.922   3.629   0.079  0.00  0.00    +0.000 OA
ATOM     10  H   UNL     1       1.384   1.933  -1.620  0.00  0.00    +0.000 HD
ATOM     11  H   UNL     1       2.145   0.599  -0.828  0.00  0.00    +0.000 HD
ENDBRANCH   1   8
BRANCH   4  12
ATOM     12  O   UNL     1       5.639   0.842   4.303  0.00  0.00    +0.000 OA
BRANCH  12  13
ATOM     13  C   UNL     1       5.296   1.086   5.686  0.00  0.00    +0.000 C 
ATOM     14  C   UNL     1       5.144  -0.253   6.411  0.00  0.00    +0.000 C 
ATOM     15  C   UNL     1       3.962   0.644   6.260  0.00  0.00    +0.000 C 
BRANCH  13  16
ATOM     16  C   UNL     1       6.067   2.191   6.404  0.00  0.00    +0.000 A 
ATOM     17  C   UNL     1       5.565   3.498   6.447  0.00  0.00    +0.000 A 
ATOM     18  C   UNL     1       6.224   4.478   7.192  0.00  0.00    +0.000 A 
ATOM     19  C   UNL     1       7.380   4.135   7.869  0.00  0.00    +0.000 A 
ATOM     20  F   UNL     1       8.028   5.041   8.610  0.00  0.00    +0.000 F 
ATOM     21  C   UNL     1       7.843   2.836   7.773  0.00  0.00    +0.000 A 
ATOM     22  N   UNL     1       7.218   1.868   7.062  0.00  0.00    +0.000 NA
ENDBRANCH  13  16
ENDBRANCH  12  13
ENDBRANCH   4  12
TORSDOF 4
