REMARK  Name = 
REMARK  8 active torsions:
REMARK  status: ('A' for Active; 'I' for Inactive)
REMARK    1  A    between atoms: C_1  and  C_2
REMARK    2  A    between atoms: C_2  and  C_3
REMARK    3  A    between atoms: C_2  and  C_15
REMARK    4  A    between atoms: C_3  and  O_4
REMARK    5  A    between atoms: O_4  and  C_5
REMARK    6  A    between atoms: C_8  and  C_9
REMARK    7  A    between atoms: C_19  and  C_20
REMARK    8  A    between atoms: C_20  and  O_21
REMARK                            x       y       z     vdW  Elec       q    Type
REMARK                         _______ _______ _______ _____ _____    ______ ____
ROOT
ATOM      1  O   UNL     1       2.967  -2.163  -0.510  0.00  0.00    +0.000 OA
ENDROOT
BRANCH   1   2
ATOM      2  C   UNL     1       3.586  -3.178  -1.193  0.00  0.00    +0.000 A 
ATOM      3  C   UNL     1       4.183  -3.065  -2.454  0.00  0.00    +0.000 A 
ATOM      4  C   UNL     1       4.797  -4.168  -3.050  0.00  0.00    +0.000 A 
ATOM      5  C   UNL     1       4.845  -5.414  -2.397  0.00  0.00    +0.000 A 
ATOM      6  C   UNL     1       4.231  -5.531  -1.144  0.00  0.00    +0.000 A 
ATOM      7 CL   UNL     1       4.155  -7.012  -0.250  0.00  0.00    +0.000 Cl
ATOM      8  C   UNL     1       3.608  -4.419  -0.553  0.00  0.00    +0.000 A 
BRANCH   5   9
ATOM      9  C   UNL     1       5.546  -6.518  -3.114  0.00  0.00    +0.000 C 
ATOM     10  N   UNL     1       6.176  -7.480  -2.375  0.00  0.00    +0.000 N 
ATOM     11  O   UNL     1       5.596  -6.549  -4.341  0.00  0.00    +0.000 OA
ATOM     12  H   UNL     1       6.096  -7.544  -1.369  0.00  0.00    +0.000 HD
ATOM     13  H   UNL     1       6.592  -8.258  -2.872  0.00  0.00    +0.000 HD
ENDBRANCH   5   9
ENDBRANCH   1   2
BRANCH   1  14
ATOM     14  C   UNL     1       2.981  -0.881  -1.150  0.00  0.00    +0.000 C 
BRANCH  14  16
ATOM     15  C   UNL     1       0.850  -0.076   0.043  0.00  0.00    +0.000 C 
ATOM     16  C   UNL     1       2.288   0.153  -0.306  0.00  0.00    +0.000 C 
BRANCH  16  17
ATOM     17  C   UNL     1       2.854   1.517  -0.245  0.00  0.00    +0.000 A 
ATOM     18  C   UNL     1       4.206   1.706   0.071  0.00  0.00    +0.000 A 
ATOM     19  C   UNL     1       4.749   2.991   0.160  0.00  0.00    +0.000 A 
ATOM     20  C   UNL     1       3.955   4.109  -0.094  0.00  0.00    +0.000 A 
ATOM     21  C   UNL     1       2.612   3.953  -0.453  0.00  0.00    +0.000 A 
ATOM     22  C   UNL     1       2.070   2.654  -0.505  0.00  0.00    +0.000 A 
BRANCH  21  23
ATOM     23  C   UNL     1       1.752   5.151  -0.763  0.00  0.00    +0.000 C 
BRANCH  23  24
ATOM     24  O   UNL     1       1.242   5.073  -2.088  0.00  0.00    +0.000 OA
ATOM     25  H   UNL     1       2.009   5.022  -2.683  0.00  0.00    +0.000 HD
ENDBRANCH  23  24
ENDBRANCH  21  23
ENDBRANCH  16  17
ENDBRANCH  14  16
ENDBRANCH   1  14
TORSDOF 7
