REMARK  Name = 
REMARK  5 active torsions:
REMARK  status: ('A' for Active; 'I' for Inactive)
REMARK    1  A    between atoms: C_1  and  C_2
REMARK    2  A    between atoms: C_9  and  C_10
REMARK    3  A    between atoms: C_10  and  O_11
REMARK    4  A    between atoms: O_11  and  C_12
REMARK    5  A    between atoms: C_15  and  C_16
REMARK                            x       y       z     vdW  Elec       q    Type
REMARK                         _______ _______ _______ _____ _____    ______ ____
ROOT
ATOM      1  C   UNL     1       0.291   2.257   0.533  0.00  0.00    +0.000 C 
ATOM      2  C   UNL     1      -0.784   1.238   0.175  0.00  0.00    +0.000 C 
ATOM      3  C   UNL     1      -0.356  -0.179   0.626  0.00  0.00    +0.000 C 
ATOM      4  N   UNL     1      -1.284  -1.192   0.109  0.00  0.00    +0.000 N 
ATOM      5  C   UNL     1      -2.042  -2.019   0.910  0.00  0.00    +0.000 A 
ATOM      6  C   UNL     1      -1.604  -2.407   2.163  0.00  0.00    +0.000 A 
ATOM      7  C   UNL     1      -2.397  -3.274   2.880  0.00  0.00    +0.000 A 
ATOM      8  N   UNL     1      -3.563  -3.757   2.430  0.00  0.00    +0.000 NA
ATOM      9  C   UNL     1      -3.928  -3.351   1.200  0.00  0.00    +0.000 A 
ATOM     10  N   UNL     1      -3.207  -2.500   0.432  0.00  0.00    +0.000 NA
ATOM     11  C   UNL     1      -1.587  -1.069  -1.324  0.00  0.00    +0.000 C 
ATOM     12  C   UNL     1      -1.999   0.369  -1.657  0.00  0.00    +0.000 C 
ATOM     13  O   UNL     1      -0.986   1.305  -1.249  0.00  0.00    +0.000 OA
ENDROOT
BRANCH   9  14
ATOM     14  C   UNL     1      -5.195  -3.943   0.613  0.00  0.00    +0.000 C 
BRANCH  14  15
ATOM     15  O   UNL     1      -6.354  -3.193   1.009  0.00  0.00    +0.000 OA
BRANCH  15  16
ATOM     16  C   UNL     1      -7.510  -3.687   0.440  0.00  0.00    +0.000 A 
ATOM     17  C   UNL     1      -8.720  -3.071   0.753  0.00  0.00    +0.000 A 
ATOM     18  N   UNL     1      -9.915  -3.463   0.225  0.00  0.00    +0.000 NA
ATOM     19  C   UNL     1      -9.833  -4.510  -0.642  0.00  0.00    +0.000 A 
ATOM     20  C   UNL     1      -8.628  -5.129  -0.950  0.00  0.00    +0.000 A 
ATOM     21  N   UNL     1      -7.444  -4.732  -0.416  0.00  0.00    +0.000 NA
BRANCH  19  22
ATOM     22  C   UNL     1     -11.081  -5.004  -1.292  0.00  0.00    +0.000 C 
ATOM     23  N   UNL     1     -12.242  -4.360  -0.959  0.00  0.00    +0.000 N 
ATOM     24  O   UNL     1     -11.077  -5.934  -2.087  0.00  0.00    +0.000 OA
ATOM     25  H   UNL     1     -12.239  -3.589  -0.302  0.00  0.00    +0.000 HD
ATOM     26  H   UNL     1     -13.107  -4.658  -1.390  0.00  0.00    +0.000 HD
ENDBRANCH  19  22
ENDBRANCH  15  16
ENDBRANCH  14  15
ENDBRANCH   9  14
TORSDOF 4
