REMARK  Name = 
REMARK  7 active torsions:
REMARK  status: ('A' for Active; 'I' for Inactive)
REMARK    1  A    between atoms: C_1  and  C_2
REMARK    2  A    between atoms: C_2  and  N_3
REMARK    3  A    between atoms: C_2  and  C_4
REMARK    4  A    between atoms: C_4  and  C_5
REMARK    5  A    between atoms: C_8  and  C_9
REMARK    6  A    between atoms: C_9  and  N_10
REMARK    7  A    between atoms: C_15  and  C_16
REMARK                            x       y       z     vdW  Elec       q    Type
REMARK                         _______ _______ _______ _____ _____    ______ ____
ROOT
ATOM      1  N   UNL     1       9.511   0.729   0.410  0.00  0.00    +0.000 N 
ATOM      2  C   UNL     1       9.141   1.473   1.500  0.00  0.00    +0.000 A 
ATOM      3  N   UNL     1      10.101   1.542   2.393  0.00  0.00    +0.000 NA
ATOM      4  C   UNL     1      11.130   0.798   1.872  0.00  0.00    +0.000 A 
ATOM      5  C   UNL     1      12.443   0.653   2.338  0.00  0.00    +0.000 A 
ATOM      6  C   UNL     1      13.353  -0.115   1.593  0.00  0.00    +0.000 A 
ATOM      7  C   UNL     1      12.905  -0.846   0.482  0.00  0.00    +0.000 A 
ATOM      8  C   UNL     1      11.588  -0.717   0.008  0.00  0.00    +0.000 A 
ATOM      9  C   UNL     1      10.746   0.173   0.688  0.00  0.00    +0.000 A 
ENDROOT
BRANCH   6  10
ATOM     10  C   UNL     1      14.789  -0.023   1.990  0.00  0.00    +0.000 C 
ATOM     11  N   UNL     1      15.722  -0.738   1.293  0.00  0.00    +0.000 N 
ATOM     12  O   UNL     1      15.157   0.721   2.893  0.00  0.00    +0.000 OA
ATOM     13  H   UNL     1      15.534  -1.371   0.534  0.00  0.00    +0.000 HD
ATOM     14  H   UNL     1      16.688  -0.576   1.550  0.00  0.00    +0.000 HD
ENDBRANCH   6  10
BRANCH   1  15
ATOM     15  C   UNL     1       8.957   0.887  -0.931  0.00  0.00    +0.000 C 
BRANCH  15  19
ATOM     16  C   UNL     1       4.621   0.952  -1.159  0.00  0.00    +0.000 A 
ATOM     17  C   UNL     1       5.342   2.138  -0.982  0.00  0.00    +0.000 A 
ATOM     18  C   UNL     1       6.741   2.120  -0.916  0.00  0.00    +0.000 A 
ATOM     19  C   UNL     1       7.451   0.911  -1.012  0.00  0.00    +0.000 A 
ATOM     20  C   UNL     1       6.729  -0.272  -1.205  0.00  0.00    +0.000 A 
ATOM     21  C   UNL     1       5.332  -0.249  -1.283  0.00  0.00    +0.000 A 
BRANCH  16  22
ATOM     22  C   UNL     1       3.104   0.938  -1.141  0.00  0.00    +0.000 C 
BRANCH  22  24
ATOM     23  C   UNL     1       0.878   1.664  -2.083  0.00  0.00    +0.000 C 
ATOM     24  C   UNL     1       2.399   1.752  -2.250  0.00  0.00    +0.000 C 
BRANCH  24  25
ATOM     25  N   UNL     1       2.738   1.280  -3.594  0.00  0.00    +0.000 NA
ATOM     26  H   UNL     1       2.477   0.299  -3.695  0.00  0.00    +0.000 HD
ATOM     27  H   UNL     1       3.756   1.305  -3.710  0.00  0.00    +0.000 HD
ENDBRANCH  24  25
ENDBRANCH  22  24
ENDBRANCH  16  22
ENDBRANCH  15  19
ENDBRANCH   1  15
TORSDOF 6
