REMARK  Name = 
REMARK  11 active torsions:
REMARK  status: ('A' for Active; 'I' for Inactive)
REMARK    1  A    between atoms: C_1  and  C_2
REMARK    2  A    between atoms: C_2  and  C_3
REMARK    3  A    between atoms: C_3  and  N_4
REMARK    4  A    between atoms: C_3  and  C_21
REMARK    5  A    between atoms: N_4  and  C_5
REMARK    6  A    between atoms: C_5  and  C_6
REMARK    7  A    between atoms: C_9  and  C_10
REMARK    8  A    between atoms: C_10  and  N_11
REMARK    9  A    between atoms: N_11  and  C_12
REMARK   10  A    between atoms: C_12  and  C_13
REMARK   11  A    between atoms: N_16  and  C_17
REMARK                            x       y       z     vdW  Elec       q    Type
REMARK                         _______ _______ _______ _____ _____    ______ ____
ROOT
ATOM      1  C   UNL     1      -0.335  11.074   1.247  0.00  0.00    +0.000 C 
ENDROOT
BRANCH   1   2
ATOM      2  C   UNL     1      -0.950  10.041   0.335  0.00  0.00    +0.000 A 
ATOM      3  C   UNL     1      -0.336   9.695  -0.875  0.00  0.00    +0.000 A 
ATOM      4  C   UNL     1      -0.858   8.670  -1.667  0.00  0.00    +0.000 A 
ATOM      5  C   UNL     1      -2.003   7.966  -1.262  0.00  0.00    +0.000 A 
ATOM      6  C   UNL     1      -2.618   8.314  -0.055  0.00  0.00    +0.000 A 
ATOM      7  C   UNL     1      -2.096   9.340   0.736  0.00  0.00    +0.000 A 
BRANCH   5   8
ATOM      8  C   UNL     1      -2.540   6.832  -2.100  0.00  0.00    +0.000 C 
BRANCH   8   9
ATOM      9  N   UNL     1      -1.543   5.774  -2.198  0.00  0.00    +0.000 NA
ATOM     10  H   UNL     1      -1.287   5.469  -1.259  0.00  0.00    +0.000 HD
BRANCH   9  11
ATOM     11  C   UNL     1      -2.000   4.638  -2.989  0.00  0.00    +0.000 C 
BRANCH  11  12
ATOM     12  C   UNL     1      -0.851   3.634  -3.117  0.00  0.00    +0.000 C 
ATOM     13  C   UNL     1      -1.209   2.396  -3.945  0.00  0.00    +0.000 C 
ATOM     14  C   UNL     1      -0.178   2.355  -5.067  0.00  0.00    +0.000 C 
ATOM     15  N   UNL     1       0.959   3.086  -4.511  0.00  0.00    +0.000 NA
ATOM     16  C   UNL     1       1.903   3.508  -5.536  0.00  0.00    +0.000 C 
ATOM     17  C   UNL     1       0.365   4.237  -3.824  0.00  0.00    +0.000 C 
ENDBRANCH  11  12
ENDBRANCH   9  11
ENDBRANCH   8   9
ENDBRANCH   5   8
ENDBRANCH   1   2
BRANCH   1  18
ATOM     18  N   UNL     1      -0.126  12.354   0.572  0.00  0.00    +0.000 NA
ATOM     19  H   UNL     1      -1.026  12.666   0.211  0.00  0.00    +0.000 HD
BRANCH  18  20
ATOM     20  C   UNL     1       0.393  13.387   1.488  0.00  0.00    +0.000 C 
BRANCH  20  21
ATOM     21  C   UNL     1       0.383  14.687   0.701  0.00  0.00    +0.000 A 
ATOM     22  C   UNL     1       1.156  14.929  -0.425  0.00  0.00    +0.000 A 
ATOM     23  S   UNL     1       0.887  16.467  -1.116  0.00  0.00    +0.000 S 
ATOM     24  C   UNL     1      -0.298  16.847   0.046  0.00  0.00    +0.000 A 
ATOM     25  N   UNL     1      -0.983  18.022  -0.005  0.00  0.00    +0.000 NA
ATOM     26  C   UNL     1      -1.868  18.159   0.927  0.00  0.00    +0.000 A 
ATOM     27  N   UNL     1      -2.110  17.245   1.920  0.00  0.00    +0.000 N 
ATOM     28  C   UNL     1      -1.408  16.066   2.044  0.00  0.00    +0.000 A 
ATOM     29  O   UNL     1      -1.597  15.310   2.990  0.00  0.00    +0.000 OA
ATOM     30  C   UNL     1      -0.447  15.838   0.979  0.00  0.00    +0.000 A 
ATOM     31  H   UNL     1      -2.796  17.427   2.636  0.00  0.00    +0.000 HD
ENDBRANCH  20  21
BRANCH  20  33
ATOM     32  C   UNL     1       2.352  14.049   3.009  0.00  0.00    +0.000 C 
ATOM     33  C   UNL     1       1.792  13.025   2.032  0.00  0.00    +0.000 C 
ENDBRANCH  20  33
ENDBRANCH  18  20
ENDBRANCH   1  18
TORSDOF 9
