REMARK  Name = 
REMARK  5 active torsions:
REMARK  status: ('A' for Active; 'I' for Inactive)
REMARK    1  A    between atoms: C_2  and  C_4
REMARK    2  A    between atoms: N_8  and  C_9
REMARK    3  A    between atoms: C_9  and  C_10
REMARK    4  A    between atoms: C_14  and  C_15
REMARK    5  A    between atoms: C_19  and  C_20
REMARK                            x       y       z     vdW  Elec       q    Type
REMARK                         _______ _______ _______ _____ _____    ______ ____
ROOT
ATOM      1  C   UNL     1       5.159  -2.235   5.390  0.00  0.00    +0.000 C 
ATOM      2  C   UNL     1       5.080  -3.744   5.150  0.00  0.00    +0.000 C 
ATOM      3  C   UNL     1       3.867  -3.008   5.601  0.00  0.00    +0.000 C 
ENDROOT
BRANCH   1   8
ATOM      4  C   UNL     1       3.568   1.990   2.779  0.00  0.00    +0.000 A 
ATOM      5  C   UNL     1       2.815   1.083   3.517  0.00  0.00    +0.000 A 
ATOM      6  C   UNL     1       3.430  -0.061   4.029  0.00  0.00    +0.000 A 
ATOM      7  C   UNL     1       4.781  -0.285   3.791  0.00  0.00    +0.000 A 
ATOM      8  N   UNL     1       5.452  -1.442   4.190  0.00  0.00    +0.000 N 
ATOM      9  N   UNL     1       5.520   0.584   3.067  0.00  0.00    +0.000 NA
ATOM     10  C   UNL     1       4.908   1.693   2.573  0.00  0.00    +0.000 A 
ATOM     11  H   UNL     1       6.430  -1.308   3.948  0.00  0.00    +0.000 HD
BRANCH   4  13
ATOM     12  N   UNL     1       1.892   3.741   2.787  0.00  0.00    +0.000 N 
ATOM     13  C   UNL     1       3.001   3.210   2.178  0.00  0.00    +0.000 C 
ATOM     14  O   UNL     1       3.505   3.752   1.204  0.00  0.00    +0.000 OA
ATOM     15  H   UNL     1       1.555   4.624   2.418  0.00  0.00    +0.000 HD
ATOM     16  H   UNL     1       1.594   3.480   3.715  0.00  0.00    +0.000 HD
ENDBRANCH   4  13
ENDBRANCH   1   8
BRANCH   1  17
ATOM     17  C   UNL     1       5.866  -1.763   6.660  0.00  0.00    +0.000 A 
ATOM     18  C   UNL     1       5.303  -0.777   7.484  0.00  0.00    +0.000 A 
ATOM     19  C   UNL     1       5.863  -0.468   8.722  0.00  0.00    +0.000 A 
ATOM     20  C   UNL     1       7.001  -1.145   9.163  0.00  0.00    +0.000 A 
ATOM     21  C   UNL     1       7.621  -2.119   8.365  0.00  0.00    +0.000 A 
ATOM     22  C   UNL     1       7.055  -2.377   7.104  0.00  0.00    +0.000 A 
BRANCH  21  23
ATOM     23  C   UNL     1       8.777  -2.896   8.852  0.00  0.00    +0.000 A 
ATOM     24  C   UNL     1       8.852  -3.352  10.170  0.00  0.00    +0.000 A 
ATOM     25  N   UNL     1       9.870  -4.082  10.687  0.00  0.00    +0.000 NA
ATOM     26  C   UNL     1      10.880  -4.396   9.849  0.00  0.00    +0.000 A 
ATOM     27  C   UNL     1      10.920  -4.017   8.517  0.00  0.00    +0.000 A 
ATOM     28  C   UNL     1       9.848  -3.258   8.022  0.00  0.00    +0.000 A 
BRANCH  27  29
ATOM     29  C   UNL     1      12.068  -4.413   7.644  0.00  0.00    +0.000 C 
ATOM     30  F   UNL     1      13.044  -5.099   8.300  0.00  0.00    +0.000 F 
ATOM     31  F   UNL     1      11.684  -5.211   6.609  0.00  0.00    +0.000 F 
ATOM     32  F   UNL     1      12.685  -3.340   7.077  0.00  0.00    +0.000 F 
ENDBRANCH  27  29
ENDBRANCH  21  23
ENDBRANCH   1  17
TORSDOF 5
