REMARK  Name = 
REMARK  9 active torsions:
REMARK  status: ('A' for Active; 'I' for Inactive)
REMARK    1  A    between atoms: C_1  and  C_2
REMARK    2  A    between atoms: C_2  and  O_3
REMARK    3  A    between atoms: O_3  and  C_4
REMARK    4  A    between atoms: C_4  and  N_5
REMARK    5  A    between atoms: C_4  and  C_18
REMARK    6  A    between atoms: C_6  and  C_8
REMARK    7  A    between atoms: C_21  and  C_22
REMARK    8  A    between atoms: C_22  and  N_23
REMARK    9  A    between atoms: C_24  and  C_26
REMARK                            x       y       z     vdW  Elec       q    Type
REMARK                         _______ _______ _______ _____ _____    ______ ____
ROOT
ATOM      1  C   UNL     1       4.339  -0.225   1.379  0.00  0.00    +0.000 C 
ENDROOT
BRANCH   1   2
ATOM      2  C   UNL     1       4.845  -0.365   2.807  0.00  0.00    +0.000 A 
ATOM      3  C   UNL     1       5.178  -1.622   3.331  0.00  0.00    +0.000 A 
ATOM      4  C   UNL     1       5.721  -1.734   4.617  0.00  0.00    +0.000 A 
ATOM      5  C   UNL     1       5.938  -0.594   5.404  0.00  0.00    +0.000 A 
ATOM      6  C   UNL     1       5.587   0.659   4.890  0.00  0.00    +0.000 A 
ATOM      7  C   UNL     1       5.012   0.768   3.626  0.00  0.00    +0.000 A 
BRANCH   5   8
ATOM      8  C   UNL     1       6.511  -0.697   6.791  0.00  0.00    +0.000 C 
BRANCH   8   9
ATOM      9  N   UNL     1       7.947  -0.636   6.822  0.00  0.00    +0.000 N 
ATOM     10  C   UNL     1       8.614  -0.689   8.026  0.00  0.00    +0.000 C 
ATOM     11  O   UNL     1       8.046  -0.792   9.107  0.00  0.00    +0.000 OA
ATOM     12  H   UNL     1       8.502  -0.531   5.980  0.00  0.00    +0.000 HD
BRANCH  10  13
ATOM     13  C   UNL     1      10.070  -0.607   7.903  0.00  0.00    +0.000 A 
ATOM     14  C   UNL     1      10.979  -0.640   8.944  0.00  0.00    +0.000 A 
ATOM     15  N   UNL     1      12.212  -0.549   8.362  0.00  0.00    +0.000 N 
ATOM     16  C   UNL     1      12.022  -0.460   7.012  0.00  0.00    +0.000 A 
ATOM     17  N   UNL     1      10.746  -0.490   6.697  0.00  0.00    +0.000 NA
ATOM     18  H   UNL     1      13.101  -0.551   8.838  0.00  0.00    +0.000 HD
ENDBRANCH  10  13
ENDBRANCH   8   9
ENDBRANCH   5   8
ENDBRANCH   1   2
BRANCH   1  19
ATOM     19  N   UNL     1       2.906  -0.321   1.378  0.00  0.00    +0.000 N 
ATOM     20  C   UNL     1       2.198  -0.935   0.384  0.00  0.00    +0.000 C 
ATOM     21  O   UNL     1       2.741  -1.518  -0.552  0.00  0.00    +0.000 OA
ATOM     22  H   UNL     1       2.440   0.339   1.988  0.00  0.00    +0.000 HD
BRANCH  20  23
ATOM     23  C   UNL     1       0.734  -0.946   0.541  0.00  0.00    +0.000 A 
ATOM     24  C   UNL     1      -0.017  -1.940  -0.075  0.00  0.00    +0.000 A 
ATOM     25  S   UNL     1      -1.687  -1.844   0.258  0.00  0.00    +0.000 S 
ATOM     26  C   UNL     1      -1.477  -0.437   1.190  0.00  0.00    +0.000 A 
ATOM     27  N   UNL     1      -2.543   0.191   1.757  0.00  0.00    +0.000 NA
ATOM     28  C   UNL     1      -2.245   1.272   2.398  0.00  0.00    +0.000 A 
ATOM     29  N   UNL     1      -0.977   1.774   2.533  0.00  0.00    +0.000 N 
ATOM     30  C   UNL     1       0.136   1.140   2.032  0.00  0.00    +0.000 A 
ATOM     31  O   UNL     1       1.265   1.563   2.257  0.00  0.00    +0.000 OA
ATOM     32  C   UNL     1      -0.148  -0.062   1.267  0.00  0.00    +0.000 A 
ATOM     33  H   UNL     1      -0.807   2.614   3.065  0.00  0.00    +0.000 HD
ENDBRANCH  20  23
ENDBRANCH   1  19
BRANCH   1  34
ATOM     34  O   UNL     1       4.651   1.060   0.837  0.00  0.00    +0.000 OA
BRANCH  34  36
ATOM     35  C   UNL     1       6.253   2.684   0.141  0.00  0.00    +0.000 C 
ATOM     36  C   UNL     1       6.051   1.265   0.633  0.00  0.00    +0.000 C 
ENDBRANCH  34  36
ENDBRANCH   1  34
TORSDOF 8
