REMARK  Name = 
REMARK  8 active torsions:
REMARK  status: ('A' for Active; 'I' for Inactive)
REMARK    1  A    between atoms: N_1  and  C_2
REMARK    2  A    between atoms: C_2  and  C_3
REMARK    3  A    between atoms: C_3  and  N_4
REMARK    4  A    between atoms: C_3  and  C_17
REMARK    5  A    between atoms: C_5  and  C_7
REMARK    6  A    between atoms: C_20  and  O_21
REMARK    7  A    between atoms: O_21  and  C_22
REMARK    8  A    between atoms: C_22  and  C_23
REMARK                            x       y       z     vdW  Elec       q    Type
REMARK                         _______ _______ _______ _____ _____    ______ ____
ROOT
ATOM      1  C   UNL     1       3.013   0.697   1.072  0.00  0.00    +0.000 C 
ENDROOT
BRANCH   1   2
ATOM      2  C   UNL     1       4.529   0.719   1.232  0.00  0.00    +0.000 A 
ATOM      3  C   UNL     1       5.334   1.583   0.469  0.00  0.00    +0.000 A 
ATOM      4  C   UNL     1       6.725   1.579   0.629  0.00  0.00    +0.000 A 
ATOM      5  C   UNL     1       7.327   0.719   1.549  0.00  0.00    +0.000 A 
ATOM      6  C   UNL     1       6.542  -0.186   2.255  0.00  0.00    +0.000 A 
ATOM      7  C   UNL     1       5.162  -0.182   2.099  0.00  0.00    +0.000 A 
BRANCH   5   8
ATOM      8  O   UNL     1       8.683   0.829   1.695  0.00  0.00    +0.000 OA
BRANCH   8   9
ATOM      9  C   UNL     1       9.187   0.291   2.925  0.00  0.00    +0.000 C 
BRANCH   9  10
ATOM     10  C   UNL     1      10.561   0.838   3.210  0.00  0.00    +0.000 A 
ATOM     11  C   UNL     1      10.756   2.216   3.242  0.00  0.00    +0.000 A 
ATOM     12  C   UNL     1      12.020   2.701   3.552  0.00  0.00    +0.000 A 
ATOM     13  C   UNL     1      13.047   1.809   3.827  0.00  0.00    +0.000 A 
ATOM     14  C   UNL     1      12.766   0.454   3.786  0.00  0.00    +0.000 A 
ATOM     15  N   UNL     1      11.548  -0.050   3.490  0.00  0.00    +0.000 NA
ENDBRANCH   9  10
ENDBRANCH   8   9
ENDBRANCH   5   8
ENDBRANCH   1   2
BRANCH   1  16
ATOM     16  N   UNL     1       2.691  -0.311   0.073  0.00  0.00    +0.000 N 
ATOM     17  C   UNL     1       1.441  -0.506  -0.443  0.00  0.00    +0.000 C 
ATOM     18  O   UNL     1       0.496   0.230  -0.170  0.00  0.00    +0.000 OA
ATOM     19  H   UNL     1       3.410  -1.009  -0.088  0.00  0.00    +0.000 HD
BRANCH  17  20
ATOM     20  C   UNL     1       1.288  -1.642  -1.360  0.00  0.00    +0.000 A 
ATOM     21  C   UNL     1       0.232  -1.670  -2.260  0.00  0.00    +0.000 A 
ATOM     22  S   UNL     1       0.201  -3.070  -3.235  0.00  0.00    +0.000 S 
ATOM     23  C   UNL     1       1.566  -3.714  -2.451  0.00  0.00    +0.000 A 
ATOM     24  N   UNL     1       2.042  -4.947  -2.774  0.00  0.00    +0.000 NA
ATOM     25  C   UNL     1       3.066  -5.323  -2.075  0.00  0.00    +0.000 A 
ATOM     26  N   UNL     1       3.666  -4.572  -1.104  0.00  0.00    +0.000 N 
ATOM     27  C   UNL     1       3.249  -3.307  -0.779  0.00  0.00    +0.000 A 
ATOM     28  O   UNL     1       3.857  -2.633   0.047  0.00  0.00    +0.000 OA
ATOM     29  C   UNL     1       2.071  -2.850  -1.495  0.00  0.00    +0.000 A 
ATOM     30  H   UNL     1       4.483  -4.909  -0.618  0.00  0.00    +0.000 HD
ENDBRANCH  17  20
ENDBRANCH   1  16
BRANCH   1  31
ATOM     31  C   UNL     1       2.253   0.435   2.415  0.00  0.00    +0.000 C 
BRANCH  31  32
ATOM     32  N   UNL     1       2.547   1.409   3.474  0.00  0.00    +0.000 NA
ATOM     33  H   UNL     1       1.980   1.195   4.293  0.00  0.00    +0.000 HD
ATOM     34  H   UNL     1       2.261   2.336   3.159  0.00  0.00    +0.000 HD
ENDBRANCH  31  32
ENDBRANCH   1  31
TORSDOF 8
