REMARK  Name = 
REMARK  11 active torsions:
REMARK  status: ('A' for Active; 'I' for Inactive)
REMARK    1  A    between atoms: C_1  and  C_2
REMARK    2  A    between atoms: C_2  and  C_3
REMARK    3  A    between atoms: C_2  and  C_4
REMARK    4  A    between atoms: C_2  and  N_6
REMARK    5  A    between atoms: C_4  and  O_5
REMARK    6  A    between atoms: N_6  and  C_7
REMARK    7  A    between atoms: C_7  and  C_8
REMARK    8  A    between atoms: C_11  and  C_12
REMARK    9  A    between atoms: C_12  and  O_13
REMARK   10  A    between atoms: O_13  and  C_14
REMARK   11  A    between atoms: C_18  and  C_19
REMARK                            x       y       z     vdW  Elec       q    Type
REMARK                         _______ _______ _______ _____ _____    ______ ____
ROOT
ATOM      1  C   UNL     1       4.935  -1.666  -2.396  0.00  0.00    +0.000 A 
ATOM      2  C   UNL     1       5.727  -1.090  -3.400  0.00  0.00    +0.000 A 
ATOM      3  C   UNL     1       6.125  -1.840  -4.505  0.00  0.00    +0.000 A 
ATOM      4  C   UNL     1       5.743  -3.182  -4.624  0.00  0.00    +0.000 A 
ATOM      5  C   UNL     1       5.000  -3.775  -3.596  0.00  0.00    +0.000 A 
ATOM      6  C   UNL     1       4.591  -3.021  -2.498  0.00  0.00    +0.000 A 
ENDROOT
BRANCH   1   7
ATOM      7  C   UNL     1       4.493  -0.862  -1.196  0.00  0.00    +0.000 C 
BRANCH   7   8
ATOM      8  N   UNL     1       3.647   0.268  -1.581  0.00  0.00    +0.000 NA
ATOM      9  H   UNL     1       4.146   0.844  -2.257  0.00  0.00    +0.000 HD
BRANCH   8  11
ATOM     10  C   UNL     1       2.356   2.259  -1.092  0.00  0.00    +0.000 C 
ATOM     11  C   UNL     1       3.177   1.114  -0.463  0.00  0.00    +0.000 C 
ATOM     12  C   UNL     1       4.366   1.750   0.286  0.00  0.00    +0.000 C 
BRANCH  11  13
ATOM     13  C   UNL     1       2.261   0.320   0.512  0.00  0.00    +0.000 C 
BRANCH  13  14
ATOM     14  O   UNL     1       1.737   1.136   1.558  0.00  0.00    +0.000 OA
ATOM     15  H   UNL     1       2.468   1.335   2.166  0.00  0.00    +0.000 HD
ENDBRANCH  13  14
ENDBRANCH  11  13
ENDBRANCH   8  11
ENDBRANCH   7   8
ENDBRANCH   1   7
BRANCH   4  16
ATOM     16  C   UNL     1       6.110  -3.976  -5.847  0.00  0.00    +0.000 C 
BRANCH  16  17
ATOM     17  O   UNL     1       7.395  -4.565  -5.665  0.00  0.00    +0.000 OA
BRANCH  17  18
ATOM     18  C   UNL     1       7.886  -5.259  -6.739  0.00  0.00    +0.000 A 
ATOM     19  C   UNL     1       7.180  -5.559  -7.906  0.00  0.00    +0.000 A 
ATOM     20  C   UNL     1       7.792  -6.278  -8.935  0.00  0.00    +0.000 A 
ATOM     21  C   UNL     1       9.118  -6.683  -8.811  0.00  0.00    +0.000 A 
ATOM     22  C   UNL     1       9.840  -6.366  -7.655  0.00  0.00    +0.000 A 
ATOM     23  C   UNL     1       9.213  -5.679  -6.608  0.00  0.00    +0.000 A 
BRANCH  22  24
ATOM     24  C   UNL     1      11.271  -6.763  -7.592  0.00  0.00    +0.000 C 
ATOM     25  N   UNL     1      12.089  -6.018  -6.789  0.00  0.00    +0.000 N 
ATOM     26  O   UNL     1      11.717  -7.677  -8.270  0.00  0.00    +0.000 OA
ATOM     27  H   UNL     1      11.810  -5.127  -6.404  0.00  0.00    +0.000 HD
ATOM     28  H   UNL     1      13.081  -6.208  -6.863  0.00  0.00    +0.000 HD
ENDBRANCH  22  24
ENDBRANCH  17  18
ENDBRANCH  16  17
ENDBRANCH   4  16
TORSDOF 9
