REMARK  Name = 
REMARK  6 active torsions:
REMARK  status: ('A' for Active; 'I' for Inactive)
REMARK    1  A    between atoms: N_1  and  C_2
REMARK    2  A    between atoms: C_2  and  C_3
REMARK    3  A    between atoms: C_6  and  C_7
REMARK    4  A    between atoms: C_7  and  N_8
REMARK    5  A    between atoms: C_14  and  C_15
REMARK    6  A    between atoms: C_15  and  O_17
REMARK                            x       y       z     vdW  Elec       q    Type
REMARK                         _______ _______ _______ _____ _____    ______ ____
ROOT
ATOM      1  N   UNL     1       6.255   4.295   0.207  0.00  0.00    +0.000 N 
ATOM      2  C   UNL     1       6.912   5.195  -0.596  0.00  0.00    +0.000 A 
ATOM      3  C   UNL     1       8.262   5.066  -0.369  0.00  0.00    +0.000 A 
ATOM      4  C   UNL     1       8.435   4.110   0.667  0.00  0.00    +0.000 A 
ATOM      5  C   UNL     1       9.568   3.584   1.319  0.00  0.00    +0.000 A 
ATOM      6  C   UNL     1       9.406   2.654   2.352  0.00  0.00    +0.000 A 
ATOM      7  C   UNL     1       8.126   2.259   2.750  0.00  0.00    +0.000 A 
ATOM      8  C   UNL     1       6.986   2.741   2.086  0.00  0.00    +0.000 A 
ATOM      9  C   UNL     1       7.161   3.667   1.043  0.00  0.00    +0.000 A 
ENDROOT
BRANCH   7  10
ATOM     10  C   UNL     1       7.917   1.291   3.856  0.00  0.00    +0.000 C 
ATOM     11  O   UNL     1       6.972   0.519   3.894  0.00  0.00    +0.000 OA
BRANCH  10  12
ATOM     12  O   UNL     1       8.834   1.375   4.844  0.00  0.00    +0.000 OA
ATOM     13  H   UNL     1       9.425   2.148   4.791  0.00  0.00    +0.000 HD
ENDBRANCH  10  12
ENDBRANCH   7  10
BRANCH   1  14
ATOM     14  C   UNL     1       4.814   4.071   0.170  0.00  0.00    +0.000 C 
BRANCH  14  18
ATOM     15  C   UNL     1       2.810   0.985  -0.994  0.00  0.00    +0.000 C 
ATOM     16  C   UNL     1       4.346   1.075  -0.971  0.00  0.00    +0.000 C 
ATOM     17  C   UNL     1       4.883   2.302  -1.708  0.00  0.00    +0.000 C 
ATOM     18  C   UNL     1       4.275   3.625  -1.210  0.00  0.00    +0.000 C 
ATOM     19  C   UNL     1       2.738   3.538  -1.202  0.00  0.00    +0.000 C 
ATOM     20  C   UNL     1       2.202   2.301  -0.478  0.00  0.00    +0.000 C 
BRANCH  15  21
ATOM     21  C   UNL     1       2.232   0.616  -2.378  0.00  0.00    +0.000 C 
BRANCH  21  22
ATOM     22  N   UNL     1       2.694  -0.689  -2.839  0.00  0.00    +0.000 NA
ATOM     23  H   UNL     1       2.249  -0.911  -3.727  0.00  0.00    +0.000 HD
ATOM     24  H   UNL     1       2.397  -1.411  -2.184  0.00  0.00    +0.000 HD
ENDBRANCH  21  22
ENDBRANCH  15  21
ENDBRANCH  14  18
ENDBRANCH   1  14
TORSDOF 6
