REMARK  Name = 
REMARK  5 active torsions:
REMARK  status: ('A' for Active; 'I' for Inactive)
REMARK    1  A    between atoms: C_1  and  C_2
REMARK    2  A    between atoms: N_5  and  C_6
REMARK    3  A    between atoms: C_6  and  C_7
REMARK    4  A    between atoms: C_11  and  C_12
REMARK    5  A    between atoms: C_21  and  C_22
REMARK                            x       y       z     vdW  Elec       q    Type
REMARK                         _______ _______ _______ _____ _____    ______ ____
ROOT
ATOM      1  C   UNL     1       2.442   0.285  -1.122  0.00  0.00    +0.000 C 
ATOM      2  C   UNL     1       0.944   0.236  -1.238  0.00  0.00    +0.000 A 
ATOM      3  N   UNL     1       0.275   1.266  -0.631  0.00  0.00    +0.000 NA
ATOM      4  C   UNL     1      -1.067   1.329  -0.721  0.00  0.00    +0.000 A 
ATOM      5  N   UNL     1      -1.654   2.447  -0.182  0.00  0.00    +0.000 N 
ATOM      6  C   UNL     1      -1.780   0.350  -1.393  0.00  0.00    +0.000 A 
ATOM      7  C   UNL     1      -1.109  -0.710  -1.997  0.00  0.00    +0.000 A 
ATOM      8  C   UNL     1       0.280  -0.785  -1.924  0.00  0.00    +0.000 A 
ATOM      9  H   UNL     1      -1.026   2.986   0.402  0.00  0.00    +0.000 HD
ENDROOT
BRANCH   8  10
ATOM     10  C   UNL     1       0.997  -1.898  -2.599  0.00  0.00    +0.000 C 
ATOM     11  N   UNL     1       0.317  -3.080  -2.750  0.00  0.00    +0.000 N 
ATOM     12  O   UNL     1       2.147  -1.798  -3.009  0.00  0.00    +0.000 OA
ATOM     13  H   UNL     1      -0.553  -3.288  -2.289  0.00  0.00    +0.000 HD
ATOM     14  H   UNL     1       0.835  -3.850  -3.160  0.00  0.00    +0.000 HD
ENDBRANCH   8  10
BRANCH   5  15
ATOM     15  C   UNL     1      -3.079   2.621  -0.018  0.00  0.00    +0.000 C 
BRANCH  15  16
ATOM     16  C   UNL     1      -3.426   4.082   0.136  0.00  0.00    +0.000 A 
ATOM     17  C   UNL     1      -4.228   4.512   1.196  0.00  0.00    +0.000 A 
ATOM     18  C   UNL     1      -4.582   5.853   1.303  0.00  0.00    +0.000 A 
ATOM     19  C   UNL     1      -4.124   6.778   0.362  0.00  0.00    +0.000 A 
ATOM     20  C   UNL     1      -3.297   6.390  -0.709  0.00  0.00    +0.000 A 
ATOM     21  C   UNL     1      -2.990   5.022  -0.818  0.00  0.00    +0.000 A 
BRANCH  20  22
ATOM     22  C   UNL     1      -2.729   7.386  -1.642  0.00  0.00    +0.000 A 
ATOM     23  C   UNL     1      -2.506   7.120  -3.001  0.00  0.00    +0.000 A 
ATOM     24  C   UNL     1      -1.914   8.078  -3.825  0.00  0.00    +0.000 A 
ATOM     25  C   UNL     1      -1.565   9.298  -3.274  0.00  0.00    +0.000 A 
ATOM     26  N   UNL     1      -1.765   9.613  -1.980  0.00  0.00    +0.000 NA
ATOM     27  C   UNL     1      -2.328   8.653  -1.205  0.00  0.00    +0.000 A 
ENDBRANCH  20  22
ENDBRANCH  15  16
ENDBRANCH   5  15
TORSDOF 4
