REMARK  Name = 
REMARK  8 active torsions:
REMARK  status: ('A' for Active; 'I' for Inactive)
REMARK    1  A    between atoms: C_2  and  O_3
REMARK    2  A    between atoms: C_2  and  C_20
REMARK    3  A    between atoms: O_3  and  C_4
REMARK    4  A    between atoms: C_4  and  C_5
REMARK    5  A    between atoms: C_8  and  C_9
REMARK    6  A    between atoms: C_9  and  N_10
REMARK    7  A    between atoms: N_10  and  C_11
REMARK    8  A    between atoms: C_11  and  C_12
REMARK                            x       y       z     vdW  Elec       q    Type
REMARK                         _______ _______ _______ _____ _____    ______ ____
ROOT
ATOM      1  C   UNL     1       4.888  -2.551   0.310  0.00  0.00    +0.000 C 
ATOM      2  C   UNL     1       4.029  -3.618  -0.381  0.00  0.00    +0.000 C 
ATOM      3  C   UNL     1       4.591  -5.030  -0.192  0.00  0.00    +0.000 C 
ATOM      4  C   UNL     1       4.779  -5.383   1.295  0.00  0.00    +0.000 C 
ATOM      5  C   UNL     1       5.555  -4.286   2.051  0.00  0.00    +0.000 C 
ATOM      6  C   UNL     1       5.006  -2.884   1.802  0.00  0.00    +0.000 C 
ENDROOT
BRANCH   1   7
ATOM      7  C   UNL     1       6.255  -2.399  -0.380  0.00  0.00    +0.000 C 
BRANCH   7   8
ATOM      8  O   UNL     1       7.082  -1.442   0.296  0.00  0.00    +0.000 OA
BRANCH   8  10
ATOM      9  O   UNL     1       6.110   0.264  -0.869  0.00  0.00    +0.000 OA
ATOM     10  C   UNL     1       6.963  -0.149  -0.091  0.00  0.00    +0.000 C 
BRANCH  10  11
ATOM     11  C   UNL     1       7.927   0.731   0.566  0.00  0.00    +0.000 A 
ATOM     12  C   UNL     1       7.639   2.074   0.761  0.00  0.00    +0.000 A 
ATOM     13  S   UNL     1       8.900   2.930   1.526  0.00  0.00    +0.000 S 
ATOM     14  C   UNL     1       9.858   1.527   1.642  0.00  0.00    +0.000 A 
ATOM     15  N   UNL     1      11.086   1.567   2.227  0.00  0.00    +0.000 NA
ATOM     16  C   UNL     1      11.688   0.426   2.275  0.00  0.00    +0.000 A 
ATOM     17  N   UNL     1      11.182  -0.747   1.778  0.00  0.00    +0.000 N 
ATOM     18  C   UNL     1       9.993  -0.819   1.086  0.00  0.00    +0.000 A 
ATOM     19  O   UNL     1       9.672  -1.849   0.507  0.00  0.00    +0.000 OA
ATOM     20  C   UNL     1       9.238   0.424   1.081  0.00  0.00    +0.000 A 
ATOM     21  H   UNL     1      11.723  -1.597   1.808  0.00  0.00    +0.000 HD
ENDBRANCH  10  11
ENDBRANCH   8  10
ENDBRANCH   7   8
ENDBRANCH   1   7
BRANCH   4  22
ATOM     22  C   UNL     1       5.477  -6.754   1.444  0.00  0.00    +0.000 C 
BRANCH  22  23
ATOM     23  N   UNL     1       5.609  -7.105   2.858  0.00  0.00    +0.000 NA
ATOM     24  H   UNL     1       4.688  -7.147   3.294  0.00  0.00    +0.000 HD
BRANCH  23  25
ATOM     25  C   UNL     1       6.300  -8.375   3.058  0.00  0.00    +0.000 C 
BRANCH  25  26
ATOM     26  C   UNL     1       6.479  -8.670   4.525  0.00  0.00    +0.000 A 
ATOM     27  C   UNL     1       7.197  -7.809   5.362  0.00  0.00    +0.000 A 
ATOM     28  C   UNL     1       7.370  -8.128   6.704  0.00  0.00    +0.000 A 
ATOM     29  C   UNL     1       6.819  -9.307   7.174  0.00  0.00    +0.000 A 
ATOM     30  N   UNL     1       6.115 -10.168   6.403  0.00  0.00    +0.000 NA
ATOM     31  C   UNL     1       5.964  -9.826   5.101  0.00  0.00    +0.000 A 
ENDBRANCH  25  26
ENDBRANCH  23  25
ENDBRANCH  22  23
ENDBRANCH   4  22
TORSDOF 8
