REMARK  Name = 
REMARK  9 active torsions:
REMARK  status: ('A' for Active; 'I' for Inactive)
REMARK    1  A    between atoms: C_1  and  C_2
REMARK    2  A    between atoms: C_2  and  C_3
REMARK    3  A    between atoms: C_2  and  N_4
REMARK    4  A    between atoms: N_4  and  C_5
REMARK    5  A    between atoms: C_5  and  C_6
REMARK    6  A    between atoms: C_10  and  C_11
REMARK    7  A    between atoms: C_11  and  O_12
REMARK    8  A    between atoms: O_12  and  C_13
REMARK    9  A    between atoms: C_16  and  C_17
REMARK                            x       y       z     vdW  Elec       q    Type
REMARK                         _______ _______ _______ _____ _____    ______ ____
ROOT
ATOM      1  C   UNL     1       4.415   6.066   1.492  0.00  0.00    +0.000 C 
ENDROOT
BRANCH   1   6
ATOM      2  C   UNL     1       4.862   2.285   1.583  0.00  0.00    +0.000 A 
ATOM      3  C   UNL     1       5.599   2.199   2.759  0.00  0.00    +0.000 A 
ATOM      4  N   UNL     1       5.960   3.264   3.511  0.00  0.00    +0.000 NA
ATOM      5  C   UNL     1       5.580   4.481   3.063  0.00  0.00    +0.000 A 
ATOM      6  C   UNL     1       4.831   4.688   1.912  0.00  0.00    +0.000 A 
ATOM      7  C   UNL     1       4.475   3.563   1.163  0.00  0.00    +0.000 A 
BRANCH   2   8
ATOM      8  C   UNL     1       4.490   1.052   0.802  0.00  0.00    +0.000 C 
BRANCH   8   9
ATOM      9  N   UNL     1       5.105   1.067  -0.523  0.00  0.00    +0.000 NA
ATOM     10  H   UNL     1       4.854   1.934  -0.996  0.00  0.00    +0.000 HD
BRANCH   9  12
ATOM     11  C   UNL     1       5.352   0.162  -2.752  0.00  0.00    +0.000 C 
ATOM     12  C   UNL     1       4.722  -0.064  -1.374  0.00  0.00    +0.000 C 
ATOM     13  C   UNL     1       5.191  -1.405  -0.809  0.00  0.00    +0.000 C 
ENDBRANCH   9  12
ENDBRANCH   8   9
ENDBRANCH   2   8
ENDBRANCH   1   6
BRANCH   1  14
ATOM     14  O   UNL     1       5.428   6.647   0.671  0.00  0.00    +0.000 OA
BRANCH  14  15
ATOM     15  C   UNL     1       5.194   7.927   0.250  0.00  0.00    +0.000 A 
ATOM     16  C   UNL     1       4.038   8.669   0.493  0.00  0.00    +0.000 A 
ATOM     17  C   UNL     1       3.940   9.973   0.012  0.00  0.00    +0.000 A 
ATOM     18  C   UNL     1       5.006  10.497  -0.705  0.00  0.00    +0.000 A 
ATOM     19  N   UNL     1       6.149   9.805  -0.973  0.00  0.00    +0.000 NA
ATOM     20  C   UNL     1       6.206   8.539  -0.487  0.00  0.00    +0.000 A 
BRANCH  18  21
ATOM     21  C   UNL     1       4.922  11.899  -1.220  0.00  0.00    +0.000 C 
ATOM     22  N   UNL     1       6.014  12.339  -1.910  0.00  0.00    +0.000 N 
ATOM     23  O   UNL     1       3.942  12.611  -1.037  0.00  0.00    +0.000 OA
ATOM     24  H   UNL     1       6.810  11.725  -2.033  0.00  0.00    +0.000 HD
ATOM     25  H   UNL     1       6.030  13.282  -2.277  0.00  0.00    +0.000 HD
ENDBRANCH  18  21
ENDBRANCH  14  15
ENDBRANCH   1  14
TORSDOF 7
