REMARK  Name = 
REMARK  5 active torsions:
REMARK  status: ('A' for Active; 'I' for Inactive)
REMARK    1  A    between atoms: C_2  and  C_4
REMARK    2  A    between atoms: C_7  and  N_8
REMARK    3  A    between atoms: N_8  and  C_9
REMARK    4  A    between atoms: C_9  and  C_10
REMARK    5  A    between atoms: C_15  and  C_16
REMARK                            x       y       z     vdW  Elec       q    Type
REMARK                         _______ _______ _______ _____ _____    ______ ____
ROOT
ATOM      1  C   UNL     1       4.920  -5.911  -0.344  0.00  0.00    +0.000 C 
ENDROOT
BRANCH   1   2
ATOM      2  C   UNL     1       5.821  -7.092  -0.026  0.00  0.00    +0.000 A 
ATOM      3  C   UNL     1       7.143  -6.896   0.388  0.00  0.00    +0.000 A 
ATOM      4  C   UNL     1       7.951  -7.991   0.684  0.00  0.00    +0.000 A 
ATOM      5  C   UNL     1       7.450  -9.286   0.562  0.00  0.00    +0.000 A 
ATOM      6  F   UNL     1       8.291 -10.296   0.839  0.00  0.00    +0.000 F 
ATOM      7  C   UNL     1       6.128  -9.542   0.159  0.00  0.00    +0.000 A 
ATOM      8  C   UNL     1       5.330  -8.411  -0.122  0.00  0.00    +0.000 A 
BRANCH   7   9
ATOM      9  C   UNL     1       5.586 -10.919   0.033  0.00  0.00    +0.000 A 
ATOM     10  C   UNL     1       4.621 -11.244  -0.943  0.00  0.00    +0.000 A 
ATOM     11  C   UNL     1       4.094 -12.537  -1.061  0.00  0.00    +0.000 A 
ATOM     12  C   UNL     1       4.533 -13.543  -0.210  0.00  0.00    +0.000 A 
ATOM     13  C   UNL     1       5.486 -13.248   0.751  0.00  0.00    +0.000 A 
ATOM     14  F   UNL     1       5.918 -14.215   1.571  0.00  0.00    +0.000 F 
ATOM     15  C   UNL     1       6.003 -11.959   0.882  0.00  0.00    +0.000 A 
ENDBRANCH   7   9
ENDBRANCH   1   2
BRANCH   1  16
ATOM     16  N   UNL     1       4.449  -6.031  -1.720  0.00  0.00    +0.000 N 
ATOM     17  H   UNL     1       5.221  -6.141  -2.372  0.00  0.00    +0.000 HD
BRANCH  16  21
ATOM     18  C   UNL     1       1.794  -3.215  -3.123  0.00  0.00    +0.000 A 
ATOM     19  C   UNL     1       2.321  -3.112  -1.845  0.00  0.00    +0.000 A 
ATOM     20  N   UNL     1       3.216  -4.010  -1.341  0.00  0.00    +0.000 NA
ATOM     21  C   UNL     1       3.584  -5.019  -2.159  0.00  0.00    +0.000 A 
ATOM     22  C   UNL     1       3.043  -5.096  -3.453  0.00  0.00    +0.000 A 
ATOM     23  N   UNL     1       2.147  -4.215  -3.973  0.00  0.00    +0.000 NA
BRANCH  18  25
ATOM     24  N   UNL     1       0.259  -2.456  -4.842  0.00  0.00    +0.000 N 
ATOM     25  C   UNL     1       0.778  -2.232  -3.594  0.00  0.00    +0.000 C 
ATOM     26  O   UNL     1       0.413  -1.288  -2.904  0.00  0.00    +0.000 OA
ATOM     27  H   UNL     1      -0.479  -1.856  -5.185  0.00  0.00    +0.000 HD
ATOM     28  H   UNL     1       0.522  -3.285  -5.362  0.00  0.00    +0.000 HD
ENDBRANCH  18  25
ENDBRANCH  16  21
ENDBRANCH   1  16
TORSDOF 5
