REMARK  Name = 
REMARK  5 active torsions:
REMARK  status: ('A' for Active; 'I' for Inactive)
REMARK    1  A    between atoms: N_1  and  C_2
REMARK    2  A    between atoms: C_2  and  C_3
REMARK    3  A    between atoms: C_7  and  O_8
REMARK    4  A    between atoms: O_8  and  C_9
REMARK    5  A    between atoms: C_9  and  C_10
REMARK                            x       y       z     vdW  Elec       q    Type
REMARK                         _______ _______ _______ _____ _____    ______ ____
ROOT
ATOM      1  C   UNL     1       3.011  -0.311  -1.413  0.00  0.00    +0.000 A 
ATOM      2  C   UNL     1       3.524   0.689  -2.246  0.00  0.00    +0.000 A 
ATOM      3  C   UNL     1       4.052   0.362  -3.497  0.00  0.00    +0.000 A 
ATOM      4  C   UNL     1       4.101  -0.971  -3.912  0.00  0.00    +0.000 A 
ATOM      5  C   UNL     1       3.620  -1.981  -3.078  0.00  0.00    +0.000 A 
ATOM      6  C   UNL     1       3.033  -1.640  -1.859  0.00  0.00    +0.000 A 
ENDROOT
BRANCH   1   7
ATOM      7  C   UNL     1       2.455  -0.001  -0.048  0.00  0.00    +0.000 C 
BRANCH   7   8
ATOM      8  N   UNL     1       3.186  -0.726   0.989  0.00  0.00    +0.000 NA
ATOM      9  H   UNL     1       2.835  -0.452   1.903  0.00  0.00    +0.000 HD
ATOM     10  H   UNL     1       4.164  -0.443   0.956  0.00  0.00    +0.000 HD
ENDBRANCH   7   8
ENDBRANCH   1   7
BRANCH   5  11
ATOM     11  O   UNL     1       3.787  -3.267  -3.523  0.00  0.00    +0.000 OA
BRANCH  11  12
ATOM     12  C   UNL     1       3.795  -4.247  -2.480  0.00  0.00    +0.000 C 
BRANCH  12  13
ATOM     13  C   UNL     1       4.474  -5.503  -2.952  0.00  0.00    +0.000 A 
ATOM     14  C   UNL     1       5.651  -5.945  -2.338  0.00  0.00    +0.000 A 
ATOM     15  C   UNL     1       6.221  -7.130  -2.771  0.00  0.00    +0.000 A 
ATOM     16  N   UNL     1       5.708  -7.892  -3.759  0.00  0.00    +0.000 NA
ATOM     17  C   UNL     1       4.576  -7.442  -4.345  0.00  0.00    +0.000 A 
ATOM     18  C   UNL     1       3.930  -6.271  -3.983  0.00  0.00    +0.000 A 
ENDBRANCH  12  13
ENDBRANCH  11  12
ENDBRANCH   5  11
TORSDOF 5
