REMARK  Name = 
REMARK  5 active torsions:
REMARK  status: ('A' for Active; 'I' for Inactive)
REMARK    1  A    between atoms: C_2  and  C_4
REMARK    2  A    between atoms: C_7  and  O_8
REMARK    3  A    between atoms: O_8  and  C_9
REMARK    4  A    between atoms: C_9  and  C_10
REMARK    5  A    between atoms: C_14  and  C_15
REMARK                            x       y       z     vdW  Elec       q    Type
REMARK                         _______ _______ _______ _____ _____    ______ ____
ROOT
ATOM      1  C   UNL     1       5.057  -3.630  -4.575  0.00  0.00    +0.000 C 
ENDROOT
BRANCH   1   2
ATOM      2  C   UNL     1       5.936  -4.694  -5.193  0.00  0.00    +0.000 A 
ATOM      3  N   UNL     1       7.123  -4.311  -5.703  0.00  0.00    +0.000 NA
ATOM      4  C   UNL     1       7.861  -5.266  -6.287  0.00  0.00    +0.000 A 
ATOM      5  C   UNL     1       7.469  -6.581  -6.373  0.00  0.00    +0.000 A 
ATOM      6  C   UNL     1       6.243  -6.900  -5.819  0.00  0.00    +0.000 A 
ATOM      7  N   UNL     1       5.466  -5.960  -5.236  0.00  0.00    +0.000 NA
BRANCH   6   8
ATOM      8  C   UNL     1       5.690  -8.257  -5.843  0.00  0.00    +0.000 A 
ATOM      9  C   UNL     1       6.464  -9.407  -5.811  0.00  0.00    +0.000 A 
ATOM     10  N   UNL     1       5.982 -10.669  -5.865  0.00  0.00    +0.000 NA
ATOM     11  C   UNL     1       4.648 -10.775  -5.937  0.00  0.00    +0.000 A 
ATOM     12  N   UNL     1       3.782  -9.754  -5.958  0.00  0.00    +0.000 NA
ATOM     13  C   UNL     1       4.330  -8.517  -5.903  0.00  0.00    +0.000 A 
ENDBRANCH   6   8
ENDBRANCH   1   2
BRANCH   1  14
ATOM     14  O   UNL     1       5.342  -3.488  -3.177  0.00  0.00    +0.000 OA
BRANCH  14  18
ATOM     15  C   UNL     1       3.082  -0.531  -1.412  0.00  0.00    +0.000 A 
ATOM     16  C   UNL     1       4.014  -1.236  -0.647  0.00  0.00    +0.000 A 
ATOM     17  C   UNL     1       4.772  -2.241  -1.253  0.00  0.00    +0.000 A 
ATOM     18  C   UNL     1       4.569  -2.501  -2.601  0.00  0.00    +0.000 A 
ATOM     19  N   UNL     1       3.664  -1.844  -3.358  0.00  0.00    +0.000 NA
ATOM     20  C   UNL     1       2.934  -0.882  -2.746  0.00  0.00    +0.000 A 
BRANCH  15  22
ATOM     21  N   UNL     1       2.732   1.278   0.170  0.00  0.00    +0.000 N 
ATOM     22  C   UNL     1       2.239   0.558  -0.881  0.00  0.00    +0.000 C 
ATOM     23  O   UNL     1       1.161   0.835  -1.388  0.00  0.00    +0.000 OA
ATOM     24  H   UNL     1       2.197   2.097   0.434  0.00  0.00    +0.000 HD
ATOM     25  H   UNL     1       3.706   1.253   0.437  0.00  0.00    +0.000 HD
ENDBRANCH  15  22
ENDBRANCH  14  18
ENDBRANCH   1  14
TORSDOF 5
