REMARK  Name = 
REMARK  7 active torsions:
REMARK  status: ('A' for Active; 'I' for Inactive)
REMARK    1  A    between atoms: C_1  and  C_2
REMARK    2  A    between atoms: C_2  and  C_3
REMARK    3  A    between atoms: C_2  and  C_14
REMARK    4  A    between atoms: C_3  and  N_4
REMARK    5  A    between atoms: N_4  and  C_5
REMARK    6  A    between atoms: C_8  and  C_9
REMARK    7  A    between atoms: C_18  and  C_19
REMARK                            x       y       z     vdW  Elec       q    Type
REMARK                         _______ _______ _______ _____ _____    ______ ____
ROOT
ATOM      1  N   UNL     1       2.393   2.491   0.454  0.00  0.00    +0.000 N 
ATOM      2  H   UNL     1       2.251   2.439  -0.552  0.00  0.00    +0.000 HD
ENDROOT
BRANCH   1   3
ATOM      3  C   UNL     1       2.939   3.726   0.848  0.00  0.00    +0.000 A 
ATOM      4  C   UNL     1       3.513   3.948   2.104  0.00  0.00    +0.000 A 
ATOM      5  C   UNL     1       3.983   5.214   2.464  0.00  0.00    +0.000 A 
ATOM      6  C   UNL     1       3.844   6.251   1.555  0.00  0.00    +0.000 A 
ATOM      7  N   UNL     1       3.257   6.109   0.338  0.00  0.00    +0.000 NA
ATOM      8  C   UNL     1       2.809   4.861   0.037  0.00  0.00    +0.000 A 
BRANCH   6   9
ATOM      9  C   UNL     1       4.350   7.618   1.911  0.00  0.00    +0.000 C 
ATOM     10  N   UNL     1       4.177   8.579   0.952  0.00  0.00    +0.000 N 
ATOM     11  O   UNL     1       4.887   7.866   2.984  0.00  0.00    +0.000 OA
ATOM     12  H   UNL     1       3.718   8.340   0.081  0.00  0.00    +0.000 HD
ATOM     13  H   UNL     1       4.486   9.524   1.131  0.00  0.00    +0.000 HD
ENDBRANCH   6   9
ENDBRANCH   1   3
BRANCH   1  14
ATOM     14  C   UNL     1       3.027   1.285   0.978  0.00  0.00    +0.000 C 
BRANCH  14  16
ATOM     15  C   UNL     1       0.900  -0.147   0.690  0.00  0.00    +0.000 C 
ATOM     16  C   UNL     1       2.361   0.057   0.406  0.00  0.00    +0.000 C 
BRANCH  16  17
ATOM     17  C   UNL     1       3.227  -1.134   0.244  0.00  0.00    +0.000 A 
ATOM     18  C   UNL     1       4.349  -1.082  -0.594  0.00  0.00    +0.000 A 
ATOM     19  C   UNL     1       5.243  -2.155  -0.660  0.00  0.00    +0.000 A 
ATOM     20  C   UNL     1       5.027  -3.296   0.113  0.00  0.00    +0.000 A 
ATOM     21  C   UNL     1       3.896  -3.378   0.929  0.00  0.00    +0.000 A 
ATOM     22  C   UNL     1       2.993  -2.307   0.978  0.00  0.00    +0.000 A 
BRANCH  21  23
ATOM     23  C   UNL     1       3.678  -4.536   1.749  0.00  0.00    +0.000 C 
ATOM     24  N   UNL     1       3.507  -5.463   2.423  0.00  0.00    +0.000 NA
ENDBRANCH  21  23
ENDBRANCH  16  17
ENDBRANCH  14  16
ENDBRANCH   1  14
TORSDOF 6
