REMARK  Name = 
REMARK  5 active torsions:
REMARK  status: ('A' for Active; 'I' for Inactive)
REMARK    1  A    between atoms: N_1  and  C_2
REMARK    2  A    between atoms: C_2  and  C_3
REMARK    3  A    between atoms: C_7  and  C_8
REMARK    4  A    between atoms: C_8  and  N_9
REMARK    5  A    between atoms: C_15  and  C_16
REMARK                            x       y       z     vdW  Elec       q    Type
REMARK                         _______ _______ _______ _____ _____    ______ ____
ROOT
ATOM      1  N   UNL     1       4.678   0.752  -4.490  0.00  0.00    +0.000 N 
ATOM      2  C   UNL     1       5.831   1.294  -3.976  0.00  0.00    +0.000 A 
ATOM      3  C   UNL     1       5.825   2.644  -4.250  0.00  0.00    +0.000 A 
ATOM      4  C   UNL     1       4.625   2.937  -4.952  0.00  0.00    +0.000 A 
ATOM      5  C   UNL     1       4.090   4.116  -5.504  0.00  0.00    +0.000 A 
ATOM      6  C   UNL     1       2.860   4.070  -6.172  0.00  0.00    +0.000 A 
ATOM      7  C   UNL     1       2.143   2.874  -6.283  0.00  0.00    +0.000 A 
ATOM      8  C   UNL     1       2.658   1.693  -5.715  0.00  0.00    +0.000 A 
ATOM      9  C   UNL     1       3.910   1.744  -5.075  0.00  0.00    +0.000 A 
ENDROOT
BRANCH   7  10
ATOM     10  C   UNL     1       0.832   2.824  -7.032  0.00  0.00    +0.000 C 
ATOM     11  F   UNL     1       0.470   4.016  -7.584  0.00  0.00    +0.000 F 
ATOM     12  F   UNL     1       0.858   1.931  -8.061  0.00  0.00    +0.000 F 
ATOM     13  F   UNL     1      -0.211   2.448  -6.239  0.00  0.00    +0.000 F 
ENDBRANCH   7  10
BRANCH   1  14
ATOM     14  C   UNL     1       4.381  -0.679  -4.505  0.00  0.00    +0.000 C 
BRANCH  14  19
ATOM     15  C   UNL     1       2.305  -0.923  -1.306  0.00  0.00    +0.000 A 
ATOM     16  C   UNL     1       2.584  -2.250  -0.974  0.00  0.00    +0.000 A 
ATOM     17  C   UNL     1       3.403  -2.983  -1.811  0.00  0.00    +0.000 A 
ATOM     18  N   UNL     1       3.973  -2.483  -2.931  0.00  0.00    +0.000 NA
ATOM     19  C   UNL     1       3.720  -1.186  -3.247  0.00  0.00    +0.000 A 
ATOM     20  C   UNL     1       2.864  -0.400  -2.477  0.00  0.00    +0.000 A 
BRANCH  15  21
ATOM     21  C   UNL     1       1.446  -0.064  -0.416  0.00  0.00    +0.000 C 
BRANCH  21  22
ATOM     22  N   UNL     1       2.048   0.091   0.902  0.00  0.00    +0.000 NA
ATOM     23  H   UNL     1       1.493   0.748   1.446  0.00  0.00    +0.000 HD
ATOM     24  H   UNL     1       2.969   0.517   0.794  0.00  0.00    +0.000 HD
ENDBRANCH  21  22
ENDBRANCH  15  21
ENDBRANCH  14  19
ENDBRANCH   1  14
TORSDOF 5
