REMARK  Name = 
REMARK  5 active torsions:
REMARK  status: ('A' for Active; 'I' for Inactive)
REMARK    1  A    between atoms: N_1  and  C_2
REMARK    2  A    between atoms: C_2  and  C_3
REMARK    3  A    between atoms: C_6  and  S_7
REMARK    4  A    between atoms: S_7  and  C_8
REMARK    5  A    between atoms: C_8  and  C_9
REMARK                            x       y       z     vdW  Elec       q    Type
REMARK                         _______ _______ _______ _____ _____    ______ ____
ROOT
ATOM      1  C   UNL     1       2.770   1.022   1.002  0.00  0.00    +0.000 A 
ATOM      2  C   UNL     1       2.689   2.373   0.637  0.00  0.00    +0.000 A 
ATOM      3  C   UNL     1       2.948   3.390   1.568  0.00  0.00    +0.000 A 
ATOM      4  C   UNL     1       3.283   3.079   2.888  0.00  0.00    +0.000 A 
ATOM      5  C   UNL     1       3.406   1.727   3.240  0.00  0.00    +0.000 A 
ATOM      6  C   UNL     1       3.146   0.709   2.312  0.00  0.00    +0.000 A 
ENDROOT
BRANCH   1   7
ATOM      7  C   UNL     1       2.412  -0.070   0.023  0.00  0.00    +0.000 C 
BRANCH   7   8
ATOM      8  N   UNL     1       3.226  -0.015  -1.185  0.00  0.00    +0.000 NA
ATOM      9  H   UNL     1       3.020  -0.831  -1.760  0.00  0.00    +0.000 HD
ATOM     10  H   UNL     1       4.206  -0.090  -0.923  0.00  0.00    +0.000 HD
ENDBRANCH   7   8
ENDBRANCH   1   7
BRANCH   4  11
ATOM     11  S   UNL     1       3.638   4.299   4.150  0.00  0.00    +0.000 S 
BRANCH  11  12
ATOM     12  C   UNL     1       2.486   5.656   3.746  0.00  0.00    +0.000 C 
BRANCH  12  13
ATOM     13  C   UNL     1       2.525   6.746   4.777  0.00  0.00    +0.000 A 
ATOM     14  C   UNL     1       3.415   7.801   4.727  0.00  0.00    +0.000 A 
ATOM     15  N   UNL     1       3.467   8.788   5.646  0.00  0.00    +0.000 NA
ATOM     16  C   UNL     1       2.590   8.691   6.657  0.00  0.00    +0.000 A 
ATOM     17  N   UNL     1       1.682   7.723   6.815  0.00  0.00    +0.000 NA
ATOM     18  C   UNL     1       1.674   6.764   5.867  0.00  0.00    +0.000 A 
ENDBRANCH  12  13
ENDBRANCH  11  12
ENDBRANCH   4  11
TORSDOF 5
