REMARK  Name = 
REMARK  6 active torsions:
REMARK  status: ('A' for Active; 'I' for Inactive)
REMARK    1  A    between atoms: C_4  and  O_5
REMARK    2  A    between atoms: O_5  and  C_6
REMARK    3  A    between atoms: C_6  and  C_7
REMARK    4  A    between atoms: C_7  and  C_8
REMARK    5  A    between atoms: C_12  and  O_13
REMARK    6  A    between atoms: O_13  and  C_14
REMARK                            x       y       z     vdW  Elec       q    Type
REMARK                         _______ _______ _______ _____ _____    ______ ____
ROOT
ATOM      1  C   UNL     1      -0.619  -6.037   0.165  0.00  0.00    +0.000 A 
ATOM      2  C   UNL     1       0.769  -6.007   0.388  0.00  0.00    +0.000 A 
ATOM      3  C   UNL     1       1.507  -7.182   0.523  0.00  0.00    +0.000 A 
ATOM      4  C   UNL     1       0.877  -8.418   0.428  0.00  0.00    +0.000 A 
ATOM      5  C   UNL     1      -0.494  -8.476   0.186  0.00  0.00    +0.000 A 
ATOM      6  C   UNL     1      -1.237  -7.293   0.066  0.00  0.00    +0.000 A 
ENDROOT
BRANCH   1   7
ATOM      7  C   UNL     1      -1.459  -4.772   0.037  0.00  0.00    +0.000 C 
BRANCH   7   8
ATOM      8  C   UNL     1      -0.646  -3.485   0.205  0.00  0.00    +0.000 C 
BRANCH   8   9
ATOM      9  O   UNL     1      -1.424  -2.288   0.105  0.00  0.00    +0.000 OA
BRANCH   9  13
ATOM     10  C   UNL     1       0.990   1.014   0.652  0.00  0.00    +0.000 A 
ATOM     11  C   UNL     1      -0.371   1.188   0.416  0.00  0.00    +0.000 A 
ATOM     12  C   UNL     1      -1.188   0.072   0.229  0.00  0.00    +0.000 A 
ATOM     13  C   UNL     1      -0.601  -1.180   0.287  0.00  0.00    +0.000 A 
ATOM     14  N   UNL     1       0.722  -1.370   0.509  0.00  0.00    +0.000 NA
ATOM     15  C   UNL     1       1.487  -0.277   0.688  0.00  0.00    +0.000 A 
ENDBRANCH   9  13
ENDBRANCH   8   9
ENDBRANCH   7   8
ENDBRANCH   1   7
BRANCH   5  16
ATOM     16  O   UNL     1      -1.209  -9.645   0.089  0.00  0.00    +0.000 OA
BRANCH  16  17
ATOM     17  C   UNL     1      -0.503 -10.866  -0.234  0.00  0.00    +0.000 C 
ATOM     18  C   UNL     1       0.035 -11.003  -1.681  0.00  0.00    +0.000 C 
ATOM     19  C   UNL     1      -0.490 -12.446  -1.700  0.00  0.00    +0.000 C 
ATOM     20  C   UNL     1      -1.425 -12.073  -0.540  0.00  0.00    +0.000 C 
ENDBRANCH  16  17
ENDBRANCH   5  16
TORSDOF 6
