REMARK  Name = 
REMARK  7 active torsions:
REMARK  status: ('A' for Active; 'I' for Inactive)
REMARK    1  A    between atoms: C_1  and  O_2
REMARK    2  A    between atoms: O_2  and  C_3
REMARK    3  A    between atoms: N_10  and  C_11
REMARK    4  A    between atoms: C_11  and  C_12
REMARK    5  A    between atoms: C_15  and  C_16
REMARK    6  A    between atoms: C_16  and  N_17
REMARK    7  A    between atoms: C_18  and  C_20
REMARK                            x       y       z     vdW  Elec       q    Type
REMARK                         _______ _______ _______ _____ _____    ______ ____
ROOT
ATOM      1  C   UNL     1       4.137  -3.571   1.851  0.00  0.00    +0.000 A 
ATOM      2  C   UNL     1       4.065  -4.929   2.194  0.00  0.00    +0.000 A 
ATOM      3  C   UNL     1       3.523  -5.329   3.422  0.00  0.00    +0.000 A 
ATOM      4  C   UNL     1       3.014  -4.381   4.320  0.00  0.00    +0.000 A 
ATOM      5  C   UNL     1       3.096  -3.024   3.981  0.00  0.00    +0.000 A 
ATOM      6  C   UNL     1       3.643  -2.624   2.757  0.00  0.00    +0.000 A 
ENDROOT
BRANCH   1   7
ATOM      7  C   UNL     1       4.778  -3.134   0.560  0.00  0.00    +0.000 C 
BRANCH   7  15
ATOM      8  C   UNL     1       2.137  -2.211  -2.859  0.00  0.00    +0.000 A 
ATOM      9  C   UNL     1       1.534  -2.531  -4.067  0.00  0.00    +0.000 A 
ATOM     10  C   UNL     1       2.377  -3.416  -4.770  0.00  0.00    +0.000 A 
ATOM     11  C   UNL     1       3.500  -3.585  -4.001  0.00  0.00    +0.000 A 
ATOM     12  N   UNL     1       3.358  -2.887  -2.809  0.00  0.00    +0.000 N 
ATOM     13  C   UNL     1       4.349  -2.872  -1.807  0.00  0.00    +0.000 C 
ATOM     14  O   UNL     1       5.530  -2.902  -2.128  0.00  0.00    +0.000 OA
ATOM     15  N   UNL     1       3.846  -2.977  -0.531  0.00  0.00    +0.000 N 
ATOM     16  H   UNL     1       2.853  -3.119  -0.382  0.00  0.00    +0.000 HD
BRANCH   8  18
ATOM     17  C   UNL     1       0.615  -0.589  -2.131  0.00  0.00    +0.000 C 
ATOM     18  O   UNL     1       1.780  -1.373  -1.877  0.00  0.00    +0.000 OA
ENDBRANCH   8  18
ENDBRANCH   7  15
ENDBRANCH   1   7
BRANCH   4  19
ATOM     19  C   UNL     1       2.428  -4.803   5.644  0.00  0.00    +0.000 C 
BRANCH  19  20
ATOM     20  N   UNL     1       3.417  -4.766   6.694  0.00  0.00    +0.000 N 
ATOM     21  C   UNL     1       3.084  -5.050   7.995  0.00  0.00    +0.000 C 
ATOM     22  O   UNL     1       1.920  -5.186   8.357  0.00  0.00    +0.000 OA
ATOM     23  H   UNL     1       4.387  -4.832   6.404  0.00  0.00    +0.000 HD
BRANCH  21  24
ATOM     24  C   UNL     1       4.200  -5.166   8.943  0.00  0.00    +0.000 A 
ATOM     25  C   UNL     1       3.998  -4.909  10.292  0.00  0.00    +0.000 A 
ATOM     26  S   UNL     1       5.392  -5.146  11.247  0.00  0.00    +0.000 S 
ATOM     27  C   UNL     1       6.293  -5.668   9.900  0.00  0.00    +0.000 A 
ATOM     28  N   UNL     1       7.568  -6.118  10.041  0.00  0.00    +0.000 NA
ATOM     29  C   UNL     1       8.117  -6.518   8.943  0.00  0.00    +0.000 A 
ATOM     30  N   UNL     1       7.520  -6.475   7.710  0.00  0.00    +0.000 N 
ATOM     31  C   UNL     1       6.257  -5.970   7.510  0.00  0.00    +0.000 A 
ATOM     32  O   UNL     1       5.794  -5.842   6.383  0.00  0.00    +0.000 OA
ATOM     33  C   UNL     1       5.567  -5.580   8.726  0.00  0.00    +0.000 A 
ATOM     34  H   UNL     1       8.022  -6.758   6.881  0.00  0.00    +0.000 HD
ENDBRANCH  21  24
ENDBRANCH  19  20
ENDBRANCH   4  19
TORSDOF 6
