REMARK  Name = 
REMARK  6 active torsions:
REMARK  status: ('A' for Active; 'I' for Inactive)
REMARK    1  A    between atoms: C_2  and  C_3
REMARK    2  A    between atoms: C_7  and  C_8
REMARK    3  A    between atoms: C_8  and  C_9
REMARK    4  A    between atoms: C_12  and  C_13
REMARK    5  A    between atoms: C_13  and  N_14
REMARK    6  A    between atoms: C_15  and  C_17
REMARK                            x       y       z     vdW  Elec       q    Type
REMARK                         _______ _______ _______ _____ _____    ______ ____
ROOT
ATOM      1  C   UNL     1       8.025   1.515   0.134  0.00  0.00    +0.000 C 
ENDROOT
BRANCH   1   5
ATOM      2  C   UNL     1       3.893   2.298   0.014  0.00  0.00    +0.000 A 
ATOM      3  C   UNL     1       4.540   1.667  -1.043  0.00  0.00    +0.000 A 
ATOM      4  N   UNL     1       5.871   1.416  -1.050  0.00  0.00    +0.000 NA
ATOM      5  C   UNL     1       6.554   1.822   0.053  0.00  0.00    +0.000 A 
ATOM      6  C   UNL     1       5.917   2.493   1.090  0.00  0.00    +0.000 A 
ATOM      7  N   UNL     1       4.584   2.738   1.097  0.00  0.00    +0.000 NA
BRANCH   2   8
ATOM      8  C   UNL     1       2.392   2.446   0.020  0.00  0.00    +0.000 C 
BRANCH   8  13
ATOM      9  C   UNL     1       1.194   0.009   2.713  0.00  0.00    +0.000 A 
ATOM     10  C   UNL     1       0.229  -0.728   2.022  0.00  0.00    +0.000 A 
ATOM     11  C   UNL     1      -0.009  -0.467   0.673  0.00  0.00    +0.000 A 
ATOM     12  C   UNL     1       0.711   0.535   0.013  0.00  0.00    +0.000 A 
ATOM     13  C   UNL     1       1.662   1.303   0.703  0.00  0.00    +0.000 A 
ATOM     14  C   UNL     1       1.897   1.024   2.054  0.00  0.00    +0.000 A 
BRANCH   9  16
ATOM     15  N   UNL     1       1.691  -0.521   5.198  0.00  0.00    +0.000 NA
ATOM     16  C   UNL     1       1.472  -0.275   4.086  0.00  0.00    +0.000 C 
ENDBRANCH   9  16
ENDBRANCH   8  13
ENDBRANCH   2   8
ENDBRANCH   1   5
BRANCH   1  17
ATOM     17  N   UNL     1       8.846   2.558  -0.431  0.00  0.00    +0.000 N 
ATOM     18  C   UNL     1       9.293   3.608   0.328  0.00  0.00    +0.000 C 
ATOM     19  O   UNL     1       9.055   3.692   1.530  0.00  0.00    +0.000 OA
ATOM     20  H   UNL     1       8.848   2.632  -1.443  0.00  0.00    +0.000 HD
BRANCH  18  21
ATOM     21  C   UNL     1      10.141   4.582  -0.358  0.00  0.00    +0.000 A 
ATOM     22  C   UNL     1      11.118   5.271   0.346  0.00  0.00    +0.000 A 
ATOM     23  S   UNL     1      12.048   6.315  -0.632  0.00  0.00    +0.000 S 
ATOM     24  C   UNL     1      11.136   5.922  -2.015  0.00  0.00    +0.000 A 
ATOM     25  N   UNL     1      11.401   6.495  -3.219  0.00  0.00    +0.000 NA
ATOM     26  C   UNL     1      10.604   6.131  -4.169  0.00  0.00    +0.000 A 
ATOM     27  N   UNL     1       9.571   5.241  -4.027  0.00  0.00    +0.000 N 
ATOM     28  C   UNL     1       9.286   4.615  -2.837  0.00  0.00    +0.000 A 
ATOM     29  O   UNL     1       8.389   3.784  -2.752  0.00  0.00    +0.000 OA
ATOM     30  C   UNL     1      10.147   4.997  -1.736  0.00  0.00    +0.000 A 
ATOM     31  H   UNL     1       8.989   4.990  -4.811  0.00  0.00    +0.000 HD
ENDBRANCH  18  21
ENDBRANCH   1  17
TORSDOF 6
