REMARK  Name = 
REMARK  8 active torsions:
REMARK  status: ('A' for Active; 'I' for Inactive)
REMARK    1  A    between atoms: C_1  and  C_2
REMARK    2  A    between atoms: C_2  and  N_3
REMARK    3  A    between atoms: C_2  and  C_25
REMARK    4  A    between atoms: N_3  and  C_4
REMARK    5  A    between atoms: C_4  and  C_5
REMARK    6  A    between atoms: C_8  and  C_9
REMARK    7  A    between atoms: C_9  and  N_10
REMARK    8  A    between atoms: C_11  and  C_13
REMARK                            x       y       z     vdW  Elec       q    Type
REMARK                         _______ _______ _______ _____ _____    ______ ____
ROOT
ATOM      1  C   UNL     1       3.020   2.140  -3.050  0.00  0.00    +0.000 A 
ATOM      2  C   UNL     1       2.414   3.371  -2.756  0.00  0.00    +0.000 A 
ATOM      3  C   UNL     1       2.757   4.523  -3.469  0.00  0.00    +0.000 A 
ATOM      4  C   UNL     1       3.719   4.470  -4.484  0.00  0.00    +0.000 A 
ATOM      5  C   UNL     1       4.374   3.257  -4.733  0.00  0.00    +0.000 A 
ATOM      6  C   UNL     1       4.021   2.101  -4.031  0.00  0.00    +0.000 A 
ENDROOT
BRANCH   1   7
ATOM      7  C   UNL     1       2.588   0.876  -2.337  0.00  0.00    +0.000 C 
BRANCH   7   8
ATOM      8  N   UNL     1       1.194   0.559  -2.646  0.00  0.00    +0.000 NA
ATOM      9  H   UNL     1       0.618   1.358  -2.380  0.00  0.00    +0.000 HD
BRANCH   8  11
ATOM     10  C   UNL     1       1.387  -1.911  -2.279  0.00  0.00    +0.000 C 
ATOM     11  C   UNL     1       0.671  -0.607  -1.909  0.00  0.00    +0.000 C 
BRANCH  11  12
ATOM     12  C   UNL     1      -0.832  -0.763  -2.156  0.00  0.00    +0.000 A 
ATOM     13  C   UNL     1      -1.324  -0.966  -3.448  0.00  0.00    +0.000 A 
ATOM     14  C   UNL     1      -2.692  -1.131  -3.637  0.00  0.00    +0.000 A 
ATOM     15  C   UNL     1      -3.539  -1.075  -2.539  0.00  0.00    +0.000 A 
ATOM     16  C   UNL     1      -2.979  -0.850  -1.293  0.00  0.00    +0.000 A 
ATOM     17  N   UNL     1      -1.653  -0.694  -1.076  0.00  0.00    +0.000 NA
ENDBRANCH  11  12
ENDBRANCH   8  11
ENDBRANCH   7   8
ENDBRANCH   1   7
BRANCH   4  18
ATOM     18  C   UNL     1       4.061   5.699  -5.281  0.00  0.00    +0.000 C 
BRANCH  18  19
ATOM     19  N   UNL     1       5.111   6.457  -4.653  0.00  0.00    +0.000 N 
ATOM     20  C   UNL     1       5.505   7.667  -5.163  0.00  0.00    +0.000 C 
ATOM     21  O   UNL     1       4.951   8.172  -6.136  0.00  0.00    +0.000 OA
ATOM     22  H   UNL     1       5.705   5.969  -3.990  0.00  0.00    +0.000 HD
BRANCH  20  23
ATOM     23  C   UNL     1       6.585   8.363  -4.454  0.00  0.00    +0.000 A 
ATOM     24  C   UNL     1       6.722   9.737  -4.599  0.00  0.00    +0.000 A 
ATOM     25  S   UNL     1       7.998  10.400  -3.685  0.00  0.00    +0.000 S 
ATOM     26  C   UNL     1       8.447   8.866  -3.100  0.00  0.00    +0.000 A 
ATOM     27  N   UNL     1       9.512   8.722  -2.266  0.00  0.00    +0.000 NA
ATOM     28  C   UNL     1       9.755   7.503  -1.918  0.00  0.00    +0.000 A 
ATOM     29  N   UNL     1       9.027   6.415  -2.324  0.00  0.00    +0.000 N 
ATOM     30  C   UNL     1       7.926   6.516  -3.144  0.00  0.00    +0.000 A 
ATOM     31  O   UNL     1       7.274   5.525  -3.453  0.00  0.00    +0.000 OA
ATOM     32  C   UNL     1       7.619   7.865  -3.576  0.00  0.00    +0.000 A 
ATOM     33  H   UNL     1       9.265   5.486  -2.009  0.00  0.00    +0.000 HD
ENDBRANCH  20  23
ENDBRANCH  18  19
ENDBRANCH   4  18
TORSDOF 7
