REMARK  Name = 
REMARK  5 active torsions:
REMARK  status: ('A' for Active; 'I' for Inactive)
REMARK    1  A    between atoms: C_2  and  C_4
REMARK    2  A    between atoms: C_7  and  O_8
REMARK    3  A    between atoms: O_8  and  C_9
REMARK    4  A    between atoms: C_9  and  C_10
REMARK    5  A    between atoms: C_14  and  C_15
REMARK                            x       y       z     vdW  Elec       q    Type
REMARK                         _______ _______ _______ _____ _____    ______ ____
ROOT
ATOM      1  C   UNL     1       5.028  -2.109   5.515  0.00  0.00    +0.000 C 
ENDROOT
BRANCH   1   2
ATOM      2  C   UNL     1       5.980  -2.154   6.677  0.00  0.00    +0.000 A 
ATOM      3  C   UNL     1       6.349  -3.372   7.234  0.00  0.00    +0.000 A 
ATOM      4  N   UNL     1       7.146  -3.506   8.310  0.00  0.00    +0.000 NA
ATOM      5  C   UNL     1       7.590  -2.360   8.875  0.00  0.00    +0.000 A 
ATOM      6  C   UNL     1       7.282  -1.074   8.436  0.00  0.00    +0.000 A 
ATOM      7  C   UNL     1       6.458  -0.993   7.301  0.00  0.00    +0.000 A 
BRANCH   6   8
ATOM      8  C   UNL     1       7.738   0.127   9.156  0.00  0.00    +0.000 A 
ATOM      9  C   UNL     1       8.002   1.331   8.484  0.00  0.00    +0.000 A 
ATOM     10  C   UNL     1       8.335   2.494   9.178  0.00  0.00    +0.000 A 
ATOM     11  C   UNL     1       8.412   2.472  10.570  0.00  0.00    +0.000 A 
ATOM     12  C   UNL     1       8.187   1.286  11.257  0.00  0.00    +0.000 A 
ATOM     13 CL   UNL     1       8.255   1.258  12.974  0.00  0.00    +0.000 Cl
ATOM     14  C   UNL     1       7.866   0.119  10.561  0.00  0.00    +0.000 A 
ENDBRANCH   6   8
ENDBRANCH   1   2
BRANCH   1  15
ATOM     15  O   UNL     1       5.306  -0.972   4.698  0.00  0.00    +0.000 OA
BRANCH  15  19
ATOM     16  C   UNL     1       3.066  -0.222   1.265  0.00  0.00    +0.000 A 
ATOM     17  C   UNL     1       2.748  -1.347   2.034  0.00  0.00    +0.000 A 
ATOM     18  C   UNL     1       3.473  -1.633   3.195  0.00  0.00    +0.000 A 
ATOM     19  C   UNL     1       4.519  -0.798   3.594  0.00  0.00    +0.000 A 
ATOM     20  C   UNL     1       4.837   0.322   2.821  0.00  0.00    +0.000 A 
ATOM     21  C   UNL     1       4.119   0.609   1.658  0.00  0.00    +0.000 A 
BRANCH  16  23
ATOM     22  N   UNL     1       1.036  -0.310  -0.071  0.00  0.00    +0.000 N 
ATOM     23  C   UNL     1       2.339   0.094   0.010  0.00  0.00    +0.000 C 
ATOM     24  O   UNL     1       2.868   0.712  -0.903  0.00  0.00    +0.000 OA
ATOM     25  H   UNL     1       0.523  -0.002  -0.888  0.00  0.00    +0.000 HD
ATOM     26  H   UNL     1       0.502  -0.579   0.743  0.00  0.00    +0.000 HD
ENDBRANCH  16  23
ENDBRANCH  15  19
ENDBRANCH   1  15
TORSDOF 5
