REMARK  Name = 
REMARK  5 active torsions:
REMARK  status: ('A' for Active; 'I' for Inactive)
REMARK    1  A    between atoms: N_1  and  C_2
REMARK    2  A    between atoms: C_2  and  C_3
REMARK    3  A    between atoms: C_6  and  O_7
REMARK    4  A    between atoms: O_7  and  C_8
REMARK    5  A    between atoms: C_8  and  C_9
REMARK                            x       y       z     vdW  Elec       q    Type
REMARK                         _______ _______ _______ _____ _____    ______ ____
ROOT
ATOM      1  C   UNL     1       2.958  -1.290   0.091  0.00  0.00    +0.000 A 
ATOM      2  C   UNL     1       4.085  -1.557   0.879  0.00  0.00    +0.000 A 
ATOM      3  C   UNL     1       4.497  -2.874   1.103  0.00  0.00    +0.000 A 
ATOM      4  C   UNL     1       3.777  -3.935   0.555  0.00  0.00    +0.000 A 
ATOM      5  C   UNL     1       2.685  -3.673  -0.273  0.00  0.00    +0.000 A 
ATOM      6  C   UNL     1       2.270  -2.359  -0.492  0.00  0.00    +0.000 A 
ENDROOT
BRANCH   1   7
ATOM      7  C   UNL     1       2.472   0.123  -0.123  0.00  0.00    +0.000 C 
BRANCH   7   8
ATOM      8  N   UNL     1       3.463   0.932  -0.820  0.00  0.00    +0.000 NA
ATOM      9  H   UNL     1       3.038   1.817  -1.087  0.00  0.00    +0.000 HD
ATOM     10  H   UNL     1       3.716   0.461  -1.688  0.00  0.00    +0.000 HD
ENDBRANCH   7   8
ENDBRANCH   1   7
BRANCH   4  11
ATOM     11  O   UNL     1       4.217  -5.190   0.881  0.00  0.00    +0.000 OA
BRANCH  11  12
ATOM     12  C   UNL     1       3.219  -6.215   0.802  0.00  0.00    +0.000 C 
BRANCH  12  13
ATOM     13  C   UNL     1       3.581  -7.380   1.684  0.00  0.00    +0.000 A 
ATOM     14  C   UNL     1       4.353  -7.221   2.844  0.00  0.00    +0.000 A 
ATOM     15  C   UNL     1       4.603  -8.311   3.680  0.00  0.00    +0.000 A 
ATOM     16  C   UNL     1       4.071  -9.556   3.363  0.00  0.00    +0.000 A 
ATOM     17  F   UNL     1       4.305 -10.596   4.173  0.00  0.00    +0.000 F 
ATOM     18  C   UNL     1       3.291  -9.736   2.230  0.00  0.00    +0.000 A 
ATOM     19  C   UNL     1       3.049  -8.645   1.403  0.00  0.00    +0.000 A 
ATOM     20  F   UNL     1       2.271  -8.813   0.323  0.00  0.00    +0.000 F 
ENDBRANCH  12  13
ENDBRANCH  11  12
ENDBRANCH   4  11
TORSDOF 5
