REMARK  Name = 
REMARK  5 active torsions:
REMARK  status: ('A' for Active; 'I' for Inactive)
REMARK    1  A    between atoms: C_2  and  C_5
REMARK    2  A    between atoms: C_9  and  C_10
REMARK    3  A    between atoms: C_14  and  C_15
REMARK    4  A    between atoms: C_15  and  O_16
REMARK    5  A    between atoms: O_16  and  C_17
REMARK                            x       y       z     vdW  Elec       q    Type
REMARK                         _______ _______ _______ _____ _____    ______ ____
ROOT
ATOM      1  C   UNL     1       4.097  -1.251   4.280  0.00  0.00    +0.000 A 
ATOM      2  C   UNL     1       3.484  -1.365   5.541  0.00  0.00    +0.000 A 
ATOM      3  C   UNL     1       3.724  -2.464   6.372  0.00  0.00    +0.000 A 
ATOM      4  C   UNL     1       4.575  -3.483   5.954  0.00  0.00    +0.000 A 
ATOM      5  C   UNL     1       5.194  -3.413   4.703  0.00  0.00    +0.000 A 
ATOM      6  C   UNL     1       4.973  -2.285   3.894  0.00  0.00    +0.000 A 
ENDROOT
BRANCH   1  11
ATOM      7  C   UNL     1       3.265   2.183   3.260  0.00  0.00    +0.000 A 
ATOM      8  C   UNL     1       3.297   2.140   1.867  0.00  0.00    +0.000 A 
ATOM      9  C   UNL     1       3.591   0.940   1.236  0.00  0.00    +0.000 A 
ATOM     10  C   UNL     1       3.852  -0.189   2.006  0.00  0.00    +0.000 A 
ATOM     11  C   UNL     1       3.820  -0.097   3.397  0.00  0.00    +0.000 A 
ATOM     12  N   UNL     1       3.515   1.072   4.018  0.00  0.00    +0.000 NA
BRANCH   7  14
ATOM     13  F   UNL     1       2.792   4.545   3.107  0.00  0.00    +0.000 F 
ATOM     14  C   UNL     1       2.938   3.491   3.967  0.00  0.00    +0.000 C 
ATOM     15  F   UNL     1       3.898   3.882   4.853  0.00  0.00    +0.000 F 
ATOM     16  F   UNL     1       1.771   3.441   4.672  0.00  0.00    +0.000 F 
ENDBRANCH   7  14
ENDBRANCH   1  11
BRANCH   5  17
ATOM     17  C   UNL     1       6.076  -4.537   4.216  0.00  0.00    +0.000 C 
BRANCH  17  18
ATOM     18  O   UNL     1       7.420  -4.294   4.609  0.00  0.00    +0.000 OA
BRANCH  18  19
ATOM     19  C   UNL     1       8.266  -5.241   4.072  0.00  0.00    +0.000 A 
ATOM     20  N   UNL     1       9.542  -4.856   3.935  0.00  0.00    +0.000 NA
ATOM     21  C   UNL     1      10.378  -5.765   3.399  0.00  0.00    +0.000 A 
ATOM     22  C   UNL     1       9.985  -7.025   3.014  0.00  0.00    +0.000 A 
ATOM     23  C   UNL     1       8.658  -7.320   3.212  0.00  0.00    +0.000 A 
ATOM     24  N   UNL     1       7.777  -6.448   3.735  0.00  0.00    +0.000 NA
ENDBRANCH  18  19
ENDBRANCH  17  18
ENDBRANCH   5  17
TORSDOF 5
