REMARK  Name = 
REMARK  4 active torsions:
REMARK  status: ('A' for Active; 'I' for Inactive)
REMARK    1  A    between atoms: C_2  and  C_4
REMARK    2  A    between atoms: C_7  and  O_8
REMARK    3  A    between atoms: O_8  and  C_9
REMARK    4  A    between atoms: C_9  and  C_10
REMARK                            x       y       z     vdW  Elec       q    Type
REMARK                         _______ _______ _______ _____ _____    ______ ____
ROOT
ATOM      1  C   UNL     1       2.748  -1.968   0.161  0.00  0.00    +0.000 A 
ATOM      2  C   UNL     1       3.871  -1.331  -0.348  0.00  0.00    +0.000 A 
ATOM      3  C   UNL     1       4.735  -2.074  -1.149  0.00  0.00    +0.000 A 
ATOM      4  C   UNL     1       4.448  -3.409  -1.427  0.00  0.00    +0.000 A 
ATOM      5  C   UNL     1       3.307  -3.965  -0.868  0.00  0.00    +0.000 A 
ATOM      6  N   UNL     1       2.439  -3.277  -0.079  0.00  0.00    +0.000 NA
ENDROOT
BRANCH   1   8
ATOM      7  N   UNL     1       0.772  -1.934   1.562  0.00  0.00    +0.000 N 
ATOM      8  C   UNL     1       1.809  -1.207   1.045  0.00  0.00    +0.000 C 
ATOM      9  O   UNL     1       1.963  -0.020   1.313  0.00  0.00    +0.000 OA
ATOM     10  H   UNL     1       0.120  -1.494   2.196  0.00  0.00    +0.000 HD
ATOM     11  H   UNL     1       0.698  -2.921   1.346  0.00  0.00    +0.000 HD
ENDBRANCH   1   8
BRANCH   4  12
ATOM     12  O   UNL     1       5.369  -4.061  -2.200  0.00  0.00    +0.000 OA
BRANCH  12  13
ATOM     13  C   UNL     1       4.947  -5.173  -3.028  0.00  0.00    +0.000 C 
ATOM     14  C   UNL     1       5.105  -4.809  -4.505  0.00  0.00    +0.000 C 
ATOM     15  C   UNL     1       3.744  -5.047  -3.947  0.00  0.00    +0.000 C 
BRANCH  13  16
ATOM     16  C   UNL     1       5.428  -6.553  -2.603  0.00  0.00    +0.000 A 
ATOM     17  C   UNL     1       4.533  -7.587  -2.266  0.00  0.00    +0.000 A 
ATOM     18  C   UNL     1       4.983  -8.870  -1.944  0.00  0.00    +0.000 A 
ATOM     19  C   UNL     1       6.345  -9.134  -1.935  0.00  0.00    +0.000 A 
ATOM     20  F   UNL     1       6.777 -10.367  -1.643  0.00  0.00    +0.000 F 
ATOM     21  C   UNL     1       7.262  -8.137  -2.230  0.00  0.00    +0.000 A 
ATOM     22  C   UNL     1       6.804  -6.856  -2.559  0.00  0.00    +0.000 A 
ENDBRANCH  13  16
ENDBRANCH  12  13
ENDBRANCH   4  12
TORSDOF 4
