REMARK  Name = 
REMARK  6 active torsions:
REMARK  status: ('A' for Active; 'I' for Inactive)
REMARK    1  A    between atoms: C_1  and  C_2
REMARK    2  A    between atoms: N_5  and  C_6
REMARK    3  A    between atoms: C_8  and  C_9
REMARK    4  A    between atoms: C_9  and  N_10
REMARK    5  A    between atoms: N_10  and  C_11
REMARK    6  A    between atoms: C_14  and  C_15
REMARK                            x       y       z     vdW  Elec       q    Type
REMARK                         _______ _______ _______ _____ _____    ______ ____
ROOT
ATOM      1  C   UNL     1       2.850   0.022  -1.094  0.00  0.00    +0.000 A 
ATOM      2  C   UNL     1       4.072   0.643  -0.765  0.00  0.00    +0.000 A 
ATOM      3  C   UNL     1       5.197   0.615  -1.615  0.00  0.00    +0.000 A 
ATOM      4  C   UNL     1       5.078  -0.007  -2.863  0.00  0.00    +0.000 A 
ATOM      5  C   UNL     1       3.879  -0.618  -3.226  0.00  0.00    +0.000 A 
ATOM      6  C   UNL     1       2.792  -0.608  -2.352  0.00  0.00    +0.000 A 
ATOM      7  F   UNL     1       1.663  -1.199  -2.773  0.00  0.00    +0.000 F 
ENDROOT
BRANCH   1  12
ATOM      8  C   UNL     1      -2.362   1.053   0.042  0.00  0.00    +0.000 C 
ATOM      9  C   UNL     1      -0.966   0.564   0.416  0.00  0.00    +0.000 C 
ATOM     10  C   UNL     1      -0.559  -0.638  -0.449  0.00  0.00    +0.000 C 
ATOM     11  C   UNL     1       0.855  -1.103  -0.107  0.00  0.00    +0.000 C 
ATOM     12  N   UNL     1       1.795   0.018  -0.194  0.00  0.00    +0.000 N 
ATOM     13  C   UNL     1       1.479   1.203   0.604  0.00  0.00    +0.000 C 
ATOM     14  C   UNL     1       0.068   1.689   0.269  0.00  0.00    +0.000 C 
ENDBRANCH   1  12
BRANCH   3  15
ATOM     15  C   UNL     1       6.519   1.200  -1.155  0.00  0.00    +0.000 C 
BRANCH  15  16
ATOM     16  N   UNL     1       6.626   2.607  -1.511  0.00  0.00    +0.000 N 
ATOM     17  H   UNL     1       6.295   2.799  -2.456  0.00  0.00    +0.000 HD
BRANCH  16  18
ATOM     18  C   UNL     1       7.791   3.333  -1.224  0.00  0.00    +0.000 A 
ATOM     19  C   UNL     1       8.847   2.855  -0.440  0.00  0.00    +0.000 A 
ATOM     20  C   UNL     1       9.962   3.659  -0.160  0.00  0.00    +0.000 A 
ATOM     21  C   UNL     1      10.032   4.975  -0.633  0.00  0.00    +0.000 A 
ATOM     22  C   UNL     1       8.966   5.482  -1.377  0.00  0.00    +0.000 A 
ATOM     23  C   UNL     1       7.856   4.668  -1.652  0.00  0.00    +0.000 A 
BRANCH  21  24
ATOM     24  C   UNL     1      11.215   5.795  -0.274  0.00  0.00    +0.000 C 
ATOM     25  N   UNL     1      11.543   6.838  -1.101  0.00  0.00    +0.000 N 
ATOM     26  O   UNL     1      11.903   5.543   0.709  0.00  0.00    +0.000 OA
ATOM     27  H   UNL     1      11.114   6.997  -2.000  0.00  0.00    +0.000 HD
ATOM     28  H   UNL     1      12.386   7.351  -0.875  0.00  0.00    +0.000 HD
ENDBRANCH  21  24
ENDBRANCH  16  18
ENDBRANCH  15  16
ENDBRANCH   3  15
TORSDOF 5
