REMARK  Name = 
REMARK  7 active torsions:
REMARK  status: ('A' for Active; 'I' for Inactive)
REMARK    1  A    between atoms: N_1  and  C_2
REMARK    2  A    between atoms: C_2  and  C_3
REMARK    3  A    between atoms: C_6  and  S_7
REMARK    4  A    between atoms: S_7  and  C_8
REMARK    5  A    between atoms: C_8  and  C_9
REMARK    6  A    between atoms: C_9  and  C_10
REMARK    7  A    between atoms: C_12  and  C_13
REMARK                            x       y       z     vdW  Elec       q    Type
REMARK                         _______ _______ _______ _____ _____    ______ ____
ROOT
ATOM      1  C   UNL     1       4.527  -0.162   6.393  0.00  0.00    +0.000 C 
ENDROOT
BRANCH   1   2
ATOM      2  S   UNL     1       4.232  -1.708   5.454  0.00  0.00    +0.000 S 
BRANCH   2   6
ATOM      3  C   UNL     1       3.273   0.103   1.393  0.00  0.00    +0.000 A 
ATOM      4  C   UNL     1       3.227  -1.286   1.549  0.00  0.00    +0.000 A 
ATOM      5  C   UNL     1       3.518  -1.856   2.791  0.00  0.00    +0.000 A 
ATOM      6  C   UNL     1       3.852  -1.019   3.849  0.00  0.00    +0.000 A 
ATOM      7  N   UNL     1       3.911   0.325   3.718  0.00  0.00    +0.000 NA
ATOM      8  C   UNL     1       3.621   0.850   2.509  0.00  0.00    +0.000 A 
BRANCH   3   9
ATOM      9  C   UNL     1       2.989   0.773   0.079  0.00  0.00    +0.000 C 
BRANCH   9  10
ATOM     10  N   UNL     1       1.645   0.480  -0.402  0.00  0.00    +0.000 NA
ATOM     11  H   UNL     1       1.465   1.027  -1.242  0.00  0.00    +0.000 HD
ATOM     12  H   UNL     1       0.966   0.794   0.292  0.00  0.00    +0.000 HD
ENDBRANCH   9  10
ENDBRANCH   3   9
ENDBRANCH   2   6
ENDBRANCH   1   2
BRANCH   1  13
ATOM     13  C   UNL     1       4.898  -0.449   7.844  0.00  0.00    +0.000 C 
BRANCH  13  14
ATOM     14  C   UNL     1       5.151   0.841   8.593  0.00  0.00    +0.000 A 
ATOM     15  C   UNL     1       6.429   1.389   8.661  0.00  0.00    +0.000 A 
ATOM     16  C   UNL     1       6.624   2.592   9.353  0.00  0.00    +0.000 A 
ATOM     17  C   UNL     1       5.518   3.206   9.949  0.00  0.00    +0.000 A 
ATOM     18  C   UNL     1       4.282   2.599   9.826  0.00  0.00    +0.000 A 
ATOM     19  N   UNL     1       4.079   1.440   9.164  0.00  0.00    +0.000 NA
BRANCH  16  20
ATOM     20  C   UNL     1       7.985   3.224   9.465  0.00  0.00    +0.000 C 
ATOM     21  F   UNL     1       8.966   2.520   8.835  0.00  0.00    +0.000 F 
ATOM     22  F   UNL     1       8.024   4.477   8.932  0.00  0.00    +0.000 F 
ATOM     23  F   UNL     1       8.393   3.356  10.757  0.00  0.00    +0.000 F 
ENDBRANCH  16  20
ENDBRANCH  13  14
ENDBRANCH   1  13
TORSDOF 7
