REMARK  Name = 
REMARK  4 active torsions:
REMARK  status: ('A' for Active; 'I' for Inactive)
REMARK    1  A    between atoms: C_2  and  C_4
REMARK    2  A    between atoms: C_7  and  N_8
REMARK    3  A    between atoms: N_8  and  C_9
REMARK    4  A    between atoms: C_9  and  C_10
REMARK                            x       y       z     vdW  Elec       q    Type
REMARK                         _______ _______ _______ _____ _____    ______ ____
ROOT
ATOM      1  C   UNL     1       3.036  -0.699   0.877  0.00  0.00    +0.000 A 
ATOM      2  C   UNL     1       2.611  -1.140   2.133  0.00  0.00    +0.000 A 
ATOM      3  C   UNL     1       3.447  -1.949   2.914  0.00  0.00    +0.000 A 
ATOM      4  C   UNL     1       4.713  -2.321   2.460  0.00  0.00    +0.000 A 
ATOM      5  C   UNL     1       5.141  -1.847   1.213  0.00  0.00    +0.000 A 
ATOM      6  C   UNL     1       4.305  -1.059   0.416  0.00  0.00    +0.000 A 
ENDROOT
BRANCH   1   8
ATOM      7  N   UNL     1       1.199   0.873   0.584  0.00  0.00    +0.000 N 
ATOM      8  C   UNL     1       2.159   0.102  -0.010  0.00  0.00    +0.000 C 
ATOM      9  O   UNL     1       2.299   0.103  -1.228  0.00  0.00    +0.000 OA
ATOM     10  H   UNL     1       0.659   1.473  -0.029  0.00  0.00    +0.000 HD
ATOM     11  H   UNL     1       1.205   1.090   1.568  0.00  0.00    +0.000 HD
ENDBRANCH   1   8
BRANCH   4  12
ATOM     12  N   UNL     1       5.618  -3.103   3.209  0.00  0.00    +0.000 N 
ATOM     13  H   UNL     1       6.408  -2.526   3.485  0.00  0.00    +0.000 HD
BRANCH  12  14
ATOM     14  C   UNL     1       5.188  -4.087   4.232  0.00  0.00    +0.000 C 
ATOM     15  C   UNL     1       5.891  -5.437   4.149  0.00  0.00    +0.000 C 
ATOM     16  C   UNL     1       4.438  -5.337   3.811  0.00  0.00    +0.000 C 
BRANCH  14  17
ATOM     17  C   UNL     1       4.969  -3.504   5.621  0.00  0.00    +0.000 A 
ATOM     18  C   UNL     1       6.012  -2.906   6.343  0.00  0.00    +0.000 A 
ATOM     19  C   UNL     1       5.772  -2.302   7.576  0.00  0.00    +0.000 A 
ATOM     20  C   UNL     1       4.482  -2.321   8.078  0.00  0.00    +0.000 A 
ATOM     21  N   UNL     1       3.447  -2.905   7.443  0.00  0.00    +0.000 NA
ATOM     22  C   UNL     1       3.718  -3.479   6.247  0.00  0.00    +0.000 A 
ENDBRANCH  14  17
ENDBRANCH  12  14
ENDBRANCH   4  12
TORSDOF 4
