REMARK  Name = 
REMARK  8 active torsions:
REMARK  status: ('A' for Active; 'I' for Inactive)
REMARK    1  A    between atoms: N_1  and  C_2
REMARK    2  A    between atoms: C_2  and  C_3
REMARK    3  A    between atoms: C_2  and  C_17
REMARK    4  A    between atoms: C_3  and  N_4
REMARK    5  A    between atoms: C_5  and  C_7
REMARK    6  A    between atoms: C_20  and  C_21
REMARK    7  A    between atoms: C_21  and  N_22
REMARK    8  A    between atoms: C_23  and  C_25
REMARK                            x       y       z     vdW  Elec       q    Type
REMARK                         _______ _______ _______ _____ _____    ______ ____
ROOT
ATOM      1  C   UNL     1       2.514  -0.022  -0.006  0.00  0.00    +0.000 C 
ENDROOT
BRANCH   1   2
ATOM      2  C   UNL     1       3.014  -0.875  -1.171  0.00  0.00    +0.000 A 
ATOM      3  C   UNL     1       3.854  -0.321  -2.153  0.00  0.00    +0.000 A 
ATOM      4  C   UNL     1       4.296  -1.076  -3.244  0.00  0.00    +0.000 A 
ATOM      5  C   UNL     1       3.919  -2.416  -3.377  0.00  0.00    +0.000 A 
ATOM      6  C   UNL     1       3.149  -3.000  -2.369  0.00  0.00    +0.000 A 
ATOM      7  C   UNL     1       2.706  -2.240  -1.282  0.00  0.00    +0.000 A 
BRANCH   5   8
ATOM      8  C   UNL     1       4.312  -3.215  -4.585  0.00  0.00    +0.000 C 
BRANCH   8   9
ATOM      9  N   UNL     1       5.533  -3.947  -4.396  0.00  0.00    +0.000 N 
ATOM     10  C   UNL     1       6.007  -4.777  -5.385  0.00  0.00    +0.000 C 
ATOM     11  O   UNL     1       5.388  -5.009  -6.421  0.00  0.00    +0.000 OA
ATOM     12  H   UNL     1       6.189  -3.702  -3.658  0.00  0.00    +0.000 HD
BRANCH  10  13
ATOM     13  C   UNL     1       7.333  -5.469  -5.066  0.00  0.00    +0.000 C 
ATOM     14  C   UNL     1       7.114  -6.811  -4.398  0.00  0.00    +0.000 C 
ATOM     15  C   UNL     1       8.459  -7.085  -3.755  0.00  0.00    +0.000 C 
ATOM     16  C   UNL     1       9.024  -5.706  -3.439  0.00  0.00    +0.000 C 
ATOM     17  N   UNL     1       8.119  -4.725  -4.049  0.00  0.00    +0.000 NA
ATOM     18  H   UNL     1       8.654  -3.987  -4.507  0.00  0.00    +0.000 HD
ENDBRANCH  10  13
ENDBRANCH   8   9
ENDBRANCH   5   8
ENDBRANCH   1   2
BRANCH   1  19
ATOM     19  N   UNL     1       2.343   1.391  -0.408  0.00  0.00    +0.000 NA
ATOM     20  H   UNL     1       1.938   1.895   0.380  0.00  0.00    +0.000 HD
ATOM     21  H   UNL     1       1.611   1.427  -1.121  0.00  0.00    +0.000 HD
ENDBRANCH   1  19
BRANCH   1  22
ATOM     22  C   UNL     1       1.201  -0.559   0.636  0.00  0.00    +0.000 C 
BRANCH  22  23
ATOM     23  N   UNL     1       0.752   0.222   1.776  0.00  0.00    +0.000 N 
ATOM     24  C   UNL     1      -0.210   1.190   1.677  0.00  0.00    +0.000 C 
ATOM     25  O   UNL     1      -0.735   1.479   0.605  0.00  0.00    +0.000 OA
ATOM     26  H   UNL     1       1.254   0.091   2.650  0.00  0.00    +0.000 HD
BRANCH  24  27
ATOM     27  C   UNL     1      -0.597   1.857   2.922  0.00  0.00    +0.000 A 
ATOM     28  C   UNL     1      -1.838   2.475   3.002  0.00  0.00    +0.000 A 
ATOM     29  S   UNL     1      -2.129   3.228   4.502  0.00  0.00    +0.000 S 
ATOM     30  C   UNL     1      -0.591   2.787   5.083  0.00  0.00    +0.000 A 
ATOM     31  N   UNL     1      -0.176   3.175   6.318  0.00  0.00    +0.000 NA
ATOM     32  C   UNL     1       1.023   2.802   6.619  0.00  0.00    +0.000 A 
ATOM     33  N   UNL     1       1.838   2.057   5.803  0.00  0.00    +0.000 N 
ATOM     34  C   UNL     1       1.439   1.581   4.574  0.00  0.00    +0.000 A 
ATOM     35  O   UNL     1       2.140   0.818   3.920  0.00  0.00    +0.000 OA
ATOM     36  C   UNL     1       0.118   2.032   4.164  0.00  0.00    +0.000 A 
ATOM     37  H   UNL     1       2.751   1.768   6.121  0.00  0.00    +0.000 HD
ENDBRANCH  24  27
ENDBRANCH  22  23
ENDBRANCH   1  22
TORSDOF 8
