REMARK  Name = 
REMARK  9 active torsions:
REMARK  status: ('A' for Active; 'I' for Inactive)
REMARK    1  A    between atoms: C_1  and  O_2
REMARK    2  A    between atoms: O_2  and  C_3
REMARK    3  A    between atoms: C_10  and  C_11
REMARK    4  A    between atoms: N_13  and  C_14
REMARK    5  A    between atoms: C_14  and  C_15
REMARK    6  A    between atoms: C_18  and  C_19
REMARK    7  A    between atoms: C_19  and  O_20
REMARK    8  A    between atoms: O_20  and  C_21
REMARK    9  A    between atoms: C_21  and  C_22
REMARK                            x       y       z     vdW  Elec       q    Type
REMARK                         _______ _______ _______ _____ _____    ______ ____
ROOT
ATOM      1  C   UNL     1       2.813   2.028   2.670  0.00  0.00    +0.000 C 
ENDROOT
BRANCH   1   2
ATOM      2  C   UNL     1       1.714   2.793   1.985  0.00  0.00    +0.000 A 
ATOM      3  C   UNL     1       0.535   2.147   1.594  0.00  0.00    +0.000 A 
ATOM      4  C   UNL     1      -0.456   2.842   0.899  0.00  0.00    +0.000 A 
ATOM      5  C   UNL     1      -0.283   4.195   0.578  0.00  0.00    +0.000 A 
ATOM      6  C   UNL     1       0.893   4.844   0.974  0.00  0.00    +0.000 A 
ATOM      7  C   UNL     1       1.884   4.148   1.670  0.00  0.00    +0.000 A 
BRANCH   5   8
ATOM      8  C   UNL     1      -1.364   4.946  -0.160  0.00  0.00    +0.000 C 
BRANCH   8   9
ATOM      9  O   UNL     1      -2.612   4.906   0.532  0.00  0.00    +0.000 OA
BRANCH   9  10
ATOM     10  C   UNL     1      -2.578   5.636   1.757  0.00  0.00    +0.000 C 
BRANCH  10  11
ATOM     11  C   UNL     1      -3.950   5.625   2.374  0.00  0.00    +0.000 A 
ATOM     12  C   UNL     1      -4.171   4.995   3.609  0.00  0.00    +0.000 A 
ATOM     13  C   UNL     1      -5.438   5.009   4.199  0.00  0.00    +0.000 A 
ATOM     14  C   UNL     1      -6.495   5.653   3.558  0.00  0.00    +0.000 A 
ATOM     15  C   UNL     1      -6.279   6.267   2.330  0.00  0.00    +0.000 A 
ATOM     16  F   UNL     1      -7.298   6.881   1.714  0.00  0.00    +0.000 F 
ATOM     17  C   UNL     1      -5.022   6.257   1.733  0.00  0.00    +0.000 A 
ENDBRANCH  10  11
ENDBRANCH   9  10
ENDBRANCH   8   9
ENDBRANCH   5   8
ENDBRANCH   1   2
BRANCH   1  20
ATOM     18  C   UNL     1       4.777   0.687   2.087  0.00  0.00    +0.000 C 
ATOM     19  O   UNL     1       5.002   0.474   3.279  0.00  0.00    +0.000 OA
ATOM     20  N   UNL     1       3.716   1.455   1.701  0.00  0.00    +0.000 N 
ATOM     21  H   UNL     1       3.548   1.644   0.721  0.00  0.00    +0.000 HD
BRANCH  18  29
ATOM     22  C   UNL     1       4.721   0.779  -1.369  0.00  0.00    +0.000 A 
ATOM     23  N   UNL     1       4.928   0.612  -2.692  0.00  0.00    +0.000 NA
ATOM     24  C   UNL     1       5.968  -0.128  -3.084  0.00  0.00    +0.000 A 
ATOM     25  N   UNL     1       6.853  -0.735  -2.301  0.00  0.00    +0.000 NA
ATOM     26  C   UNL     1       6.611  -0.554  -0.992  0.00  0.00    +0.000 A 
ATOM     27  S   UNL     1       7.649  -1.260   0.149  0.00  0.00    +0.000 S 
ATOM     28  C   UNL     1       6.739  -0.632   1.436  0.00  0.00    +0.000 A 
ATOM     29  C   UNL     1       5.639   0.120   1.037  0.00  0.00    +0.000 A 
ATOM     30  C   UNL     1       5.571   0.177  -0.422  0.00  0.00    +0.000 A 
BRANCH  22  32
ATOM     31  C   UNL     1       2.910   2.112  -2.049  0.00  0.00    +0.000 C 
ATOM     32  O   UNL     1       3.663   1.570  -0.965  0.00  0.00    +0.000 OA
ENDBRANCH  22  32
ENDBRANCH  18  29
ENDBRANCH   1  20
TORSDOF 8
