REMARK  Name = 
REMARK  8 active torsions:
REMARK  status: ('A' for Active; 'I' for Inactive)
REMARK    1  A    between atoms: C_2  and  C_21
REMARK    2  A    between atoms: N_3  and  C_4
REMARK    3  A    between atoms: C_4  and  C_5
REMARK    4  A    between atoms: C_8  and  C_9
REMARK    5  A    between atoms: C_9  and  C_10
REMARK    6  A    between atoms: C_10  and  O_11
REMARK    7  A    between atoms: C_10  and  C_12
REMARK    8  A    between atoms: C_12  and  C_13
REMARK                            x       y       z     vdW  Elec       q    Type
REMARK                         _______ _______ _______ _____ _____    ______ ____
ROOT
ATOM      1  C   UNL     1       2.913  -1.915   3.203  0.00  0.00    +0.000 A 
ATOM      2  N   UNL     1       3.856  -1.166   3.813  0.00  0.00    +0.000 NA
ATOM      3  C   UNL     1       4.718  -1.823   4.615  0.00  0.00    +0.000 A 
ATOM      4  C   UNL     1       4.692  -3.188   4.818  0.00  0.00    +0.000 A 
ATOM      5  C   UNL     1       3.742  -3.863   4.082  0.00  0.00    +0.000 A 
ATOM      6  N   UNL     1       2.847  -3.257   3.281  0.00  0.00    +0.000 NA
ENDROOT
BRANCH   1   7
ATOM      7  C   UNL     1       1.934  -1.205   2.286  0.00  0.00    +0.000 C 
BRANCH   7  10
ATOM      8  O   UNL     1       1.285  -2.864   0.049  0.00  0.00    +0.000 OA
ATOM      9  C   UNL     1       2.198  -2.056  -0.008  0.00  0.00    +0.000 C 
ATOM     10  N   UNL     1       2.472  -1.105   0.947  0.00  0.00    +0.000 N 
ATOM     11  H   UNL     1       3.375  -0.656   0.911  0.00  0.00    +0.000 HD
BRANCH   9  12
ATOM     12  C   UNL     1       3.254  -2.114  -1.014  0.00  0.00    +0.000 A 
ATOM     13  C   UNL     1       3.791  -3.305  -1.468  0.00  0.00    +0.000 A 
ATOM     14  S   UNL     1       5.347  -3.064  -2.152  0.00  0.00    +0.000 S 
ATOM     15  C   UNL     1       5.223  -1.371  -1.984  0.00  0.00    +0.000 A 
ATOM     16  N   UNL     1       6.263  -0.529  -2.229  0.00  0.00    +0.000 NA
ATOM     17  C   UNL     1       5.967   0.725  -2.110  0.00  0.00    +0.000 A 
ATOM     18  N   UNL     1       4.718   1.217  -1.820  0.00  0.00    +0.000 N 
ATOM     19  C   UNL     1       3.636   0.408  -1.559  0.00  0.00    +0.000 A 
ATOM     20  O   UNL     1       2.521   0.861  -1.350  0.00  0.00    +0.000 OA
ATOM     21  C   UNL     1       3.967  -1.005  -1.559  0.00  0.00    +0.000 A 
ATOM     22  H   UNL     1       4.534   2.209  -1.830  0.00  0.00    +0.000 HD
ENDBRANCH   9  12
ENDBRANCH   7  10
ENDBRANCH   1   7
BRANCH   4  23
ATOM     23  C   UNL     1       5.556  -3.867   5.843  0.00  0.00    +0.000 C 
BRANCH  23  24
ATOM     24  C   UNL     1       4.932  -3.874   7.258  0.00  0.00    +0.000 C 
BRANCH  24  25
ATOM     25  O   UNL     1       4.724  -2.518   7.669  0.00  0.00    +0.000 OA
ATOM     26  H   UNL     1       3.870  -2.222   7.307  0.00  0.00    +0.000 HD
ENDBRANCH  24  25
BRANCH  24  27
ATOM     27  C   UNL     1       3.635  -4.705   7.346  0.00  0.00    +0.000 C 
BRANCH  27  28
ATOM     28  C   UNL     1       3.043  -4.786   8.735  0.00  0.00    +0.000 A 
ATOM     29  C   UNL     1       2.105  -3.831   9.159  0.00  0.00    +0.000 A 
ATOM     30  C   UNL     1       1.517  -3.923  10.421  0.00  0.00    +0.000 A 
ATOM     31  C   UNL     1       1.860  -4.969  11.274  0.00  0.00    +0.000 A 
ATOM     32  C   UNL     1       2.803  -5.913  10.871  0.00  0.00    +0.000 A 
ATOM     33  C   UNL     1       3.395  -5.821   9.609  0.00  0.00    +0.000 A 
ENDBRANCH  27  28
ENDBRANCH  24  27
ENDBRANCH  23  24
ENDBRANCH   4  23
TORSDOF 8
