REMARK  Name = 
REMARK  5 active torsions:
REMARK  status: ('A' for Active; 'I' for Inactive)
REMARK    1  A    between atoms: N_1  and  C_2
REMARK    2  A    between atoms: C_2  and  C_3
REMARK    3  A    between atoms: C_6  and  C_7
REMARK    4  A    between atoms: C_7  and  N_8
REMARK    5  A    between atoms: N_8  and  C_9
REMARK                            x       y       z     vdW  Elec       q    Type
REMARK                         _______ _______ _______ _____ _____    ______ ____
ROOT
ATOM      1  C   UNL     1       2.724   0.810   1.080  0.00  0.00    +0.000 A 
ATOM      2  C   UNL     1       2.666   2.201   0.910  0.00  0.00    +0.000 A 
ATOM      3  C   UNL     1       2.943   3.065   1.974  0.00  0.00    +0.000 A 
ATOM      4  C   UNL     1       3.288   2.557   3.233  0.00  0.00    +0.000 A 
ATOM      5  C   UNL     1       3.331   1.167   3.408  0.00  0.00    +0.000 A 
ATOM      6  C   UNL     1       3.057   0.302   2.342  0.00  0.00    +0.000 A 
ENDROOT
BRANCH   1   7
ATOM      7  C   UNL     1       2.392  -0.120  -0.061  0.00  0.00    +0.000 C 
BRANCH   7   8
ATOM      8  N   UNL     1       3.247   0.111  -1.221  0.00  0.00    +0.000 NA
ATOM      9  H   UNL     1       3.069  -0.615  -1.913  0.00  0.00    +0.000 HD
ATOM     10  H   UNL     1       4.219   0.004  -0.936  0.00  0.00    +0.000 HD
ENDBRANCH   7   8
ENDBRANCH   1   7
BRANCH   4  11
ATOM     11  C   UNL     1       3.599   3.487   4.384  0.00  0.00    +0.000 C 
BRANCH  11  12
ATOM     12  N   UNL     1       2.385   3.791   5.130  0.00  0.00    +0.000 N 
ATOM     13  H   UNL     1       1.576   3.919   4.524  0.00  0.00    +0.000 HD
BRANCH  12  14
ATOM     14  C   UNL     1       2.407   4.708   6.181  0.00  0.00    +0.000 A 
ATOM     15  C   UNL     1       3.581   5.213   6.754  0.00  0.00    +0.000 A 
ATOM     16  C   UNL     1       3.535   6.104   7.833  0.00  0.00    +0.000 A 
ATOM     17  C   UNL     1       2.307   6.468   8.370  0.00  0.00    +0.000 A 
ATOM     18  F   UNL     1       2.266   7.324   9.398  0.00  0.00    +0.000 F 
ATOM     19  C   UNL     1       1.131   5.940   7.866  0.00  0.00    +0.000 A 
ATOM     20  C   UNL     1       1.184   5.058   6.782  0.00  0.00    +0.000 A 
ENDBRANCH  12  14
ENDBRANCH  11  12
ENDBRANCH   4  11
TORSDOF 5
