REMARK  Name = 
REMARK  6 active torsions:
REMARK  status: ('A' for Active; 'I' for Inactive)
REMARK    1  A    between atoms: C_2  and  C_3
REMARK    2  A    between atoms: N_7  and  C_8
REMARK    3  A    between atoms: C_8  and  C_9
REMARK    4  A    between atoms: C_9  and  C_12
REMARK    5  A    between atoms: C_16  and  C_17
REMARK    6  A    between atoms: C_21  and  C_22
REMARK                            x       y       z     vdW  Elec       q    Type
REMARK                         _______ _______ _______ _____ _____    ______ ____
ROOT
ATOM      1  C   UNL     1      -6.655   2.440  -0.295  0.00  0.00    +0.000 A 
ATOM      2  C   UNL     1      -8.044   2.450  -0.121  0.00  0.00    +0.000 A 
ATOM      3  C   UNL     1      -8.726   3.658  -0.008  0.00  0.00    +0.000 A 
ATOM      4  C   UNL     1      -8.027   4.866  -0.054  0.00  0.00    +0.000 A 
ATOM      5  C   UNL     1      -6.630   4.900  -0.210  0.00  0.00    +0.000 A 
ATOM      6  C   UNL     1      -5.965   3.667  -0.350  0.00  0.00    +0.000 A 
ENDROOT
BRANCH   5   7
ATOM      7  C   UNL     1      -5.885   6.177  -0.181  0.00  0.00    +0.000 A 
ATOM      8  C   UNL     1      -6.233   7.214   0.689  0.00  0.00    +0.000 A 
ATOM      9  N   UNL     1      -5.582   8.399   0.792  0.00  0.00    +0.000 NA
ATOM     10  C   UNL     1      -4.511   8.578  -0.008  0.00  0.00    +0.000 A 
ATOM     11  C   UNL     1      -4.061   7.630  -0.911  0.00  0.00    +0.000 A 
ATOM     12  C   UNL     1      -4.770   6.420  -0.996  0.00  0.00    +0.000 A 
BRANCH  11  13
ATOM     13  C   UNL     1      -2.853   7.888  -1.755  0.00  0.00    +0.000 C 
ATOM     14  F   UNL     1      -2.296   9.114  -1.555  0.00  0.00    +0.000 F 
ATOM     15  F   UNL     1      -1.860   6.986  -1.524  0.00  0.00    +0.000 F 
ATOM     16  F   UNL     1      -3.122   7.813  -3.087  0.00  0.00    +0.000 F 
ENDBRANCH  11  13
ENDBRANCH   5   7
BRANCH   1  17
ATOM     17  C   UNL     1      -5.893   1.125  -0.326  0.00  0.00    +0.000 C 
ATOM     18  F   UNL     1      -4.811   1.177  -1.157  0.00  0.00    +0.000 F 
ATOM     19  F   UNL     1      -6.658   0.092  -0.789  0.00  0.00    +0.000 F 
BRANCH  17  20
ATOM     20  C   UNL     1      -5.412   0.790   1.108  0.00  0.00    +0.000 C 
BRANCH  20  25
ATOM     21  C   UNL     1      -3.311  -2.127   4.777  0.00  0.00    +0.000 A 
ATOM     22  C   UNL     1      -3.886  -0.863   4.822  0.00  0.00    +0.000 A 
ATOM     23  C   UNL     1      -4.373  -0.294   3.644  0.00  0.00    +0.000 A 
ATOM     24  C   UNL     1      -4.277  -0.989   2.440  0.00  0.00    +0.000 A 
ATOM     25  N   UNL     1      -4.711  -0.481   1.245  0.00  0.00    +0.000 N 
ATOM     26  N   UNL     1      -3.726  -2.217   2.392  0.00  0.00    +0.000 NA
ATOM     27  C   UNL     1      -3.257  -2.759   3.547  0.00  0.00    +0.000 A 
ATOM     28  H   UNL     1      -4.603  -1.098   0.446  0.00  0.00    +0.000 HD
BRANCH  21  30
ATOM     29  N   UNL     1      -2.370  -3.250   6.910  0.00  0.00    +0.000 NA
ATOM     30  C   UNL     1      -2.791  -2.752   5.952  0.00  0.00    +0.000 C 
ENDBRANCH  21  30
ENDBRANCH  20  25
ENDBRANCH  17  20
ENDBRANCH   1  17
TORSDOF 6
