REMARK  Name = 
REMARK  7 active torsions:
REMARK  status: ('A' for Active; 'I' for Inactive)
REMARK    1  A    between atoms: N_1  and  C_2
REMARK    2  A    between atoms: C_2  and  C_3
REMARK    3  A    between atoms: C_3  and  C_4
REMARK    4  A    between atoms: C_7  and  O_8
REMARK    5  A    between atoms: O_8  and  C_9
REMARK    6  A    between atoms: C_9  and  C_10
REMARK    7  A    between atoms: C_12  and  C_13
REMARK                            x       y       z     vdW  Elec       q    Type
REMARK                         _______ _______ _______ _____ _____    ______ ____
ROOT
ATOM      1  O   UNL     1       8.538   1.079  -1.041  0.00  0.00    +0.000 OA
ENDROOT
BRANCH   1   5
ATOM      2  C   UNL     1       4.420   1.055  -1.121  0.00  0.00    +0.000 A 
ATOM      3  C   UNL     1       5.142   0.686  -2.260  0.00  0.00    +0.000 A 
ATOM      4  C   UNL     1       6.536   0.701  -2.224  0.00  0.00    +0.000 A 
ATOM      5  C   UNL     1       7.159   1.056  -1.041  0.00  0.00    +0.000 A 
ATOM      6  N   UNL     1       6.495   1.418   0.077  0.00  0.00    +0.000 NA
ATOM      7  C   UNL     1       5.146   1.411   0.010  0.00  0.00    +0.000 A 
BRANCH   2   8
ATOM      8  C   UNL     1       2.916   1.044  -1.100  0.00  0.00    +0.000 C 
BRANCH   8   9
ATOM      9  C   UNL     1       2.361  -0.303  -0.627  0.00  0.00    +0.000 C 
BRANCH   9  10
ATOM     10  N   UNL     1       0.901  -0.282  -0.593  0.00  0.00    +0.000 NA
ATOM     11  H   UNL     1       0.558  -1.193  -0.290  0.00  0.00    +0.000 HD
ATOM     12  H   UNL     1       0.535  -0.142  -1.535  0.00  0.00    +0.000 HD
ENDBRANCH   9  10
ENDBRANCH   8   9
ENDBRANCH   2   8
ENDBRANCH   1   5
BRANCH   1  13
ATOM     13  C   UNL     1       9.069   0.949   0.281  0.00  0.00    +0.000 C 
BRANCH  13  14
ATOM     14  C   UNL     1      10.576   1.071   0.226  0.00  0.00    +0.000 A 
ATOM     15  C   UNL     1      11.163   2.273  -0.168  0.00  0.00    +0.000 A 
ATOM     16  C   UNL     1      12.559   2.377  -0.197  0.00  0.00    +0.000 A 
ATOM     17  C   UNL     1      13.318   1.264   0.178  0.00  0.00    +0.000 A 
ATOM     18  C   UNL     1      12.657   0.110   0.560  0.00  0.00    +0.000 A 
ATOM     19  N   UNL     1      11.313  -0.007   0.593  0.00  0.00    +0.000 NA
BRANCH  16  20
ATOM     20  C   UNL     1      13.241   3.648  -0.623  0.00  0.00    +0.000 C 
ATOM     21  F   UNL     1      12.378   4.650  -0.948  0.00  0.00    +0.000 F 
ATOM     22  F   UNL     1      14.051   4.154   0.348  0.00  0.00    +0.000 F 
ATOM     23  F   UNL     1      14.035   3.469  -1.715  0.00  0.00    +0.000 F 
ENDBRANCH  16  20
ENDBRANCH  13  14
ENDBRANCH   1  13
TORSDOF 7
