REMARK  Name = 
REMARK  7 active torsions:
REMARK  status: ('A' for Active; 'I' for Inactive)
REMARK    1  A    between atoms: C_1  and  O_2
REMARK    2  A    between atoms: O_2  and  C_3
REMARK    3  A    between atoms: C_7  and  C_8
REMARK    4  A    between atoms: C_12  and  C_13
REMARK    5  A    between atoms: C_13  and  N_14
REMARK    6  A    between atoms: C_19  and  O_20
REMARK    7  A    between atoms: O_20  and  C_21
REMARK                            x       y       z     vdW  Elec       q    Type
REMARK                         _______ _______ _______ _____ _____    ______ ____
ROOT
ATOM      1  C   UNL     1       6.301  -0.803  -2.705  0.00  0.00    +0.000 A 
ATOM      2  C   UNL     1       7.400   0.074  -2.715  0.00  0.00    +0.000 A 
ATOM      3  C   UNL     1       8.713  -0.403  -2.781  0.00  0.00    +0.000 A 
ATOM      4  C   UNL     1       8.963  -1.773  -2.800  0.00  0.00    +0.000 A 
ATOM      5  C   UNL     1       7.900  -2.678  -2.748  0.00  0.00    +0.000 A 
ATOM      6  C   UNL     1       6.584  -2.183  -2.740  0.00  0.00    +0.000 A 
ENDROOT
BRANCH   1  11
ATOM      7  C   UNL     1       3.195   1.332  -3.331  0.00  0.00    +0.000 A 
ATOM      8  C   UNL     1       2.210   0.579  -2.697  0.00  0.00    +0.000 A 
ATOM      9  C   UNL     1       2.557  -0.596  -2.034  0.00  0.00    +0.000 A 
ATOM     10  C   UNL     1       3.886  -1.027  -2.013  0.00  0.00    +0.000 A 
ATOM     11  C   UNL     1       4.902  -0.307  -2.666  0.00  0.00    +0.000 A 
ATOM     12  C   UNL     1       4.525   0.889  -3.306  0.00  0.00    +0.000 A 
BRANCH   7  14
ATOM     13  C   UNL     1       1.646   2.906  -4.206  0.00  0.00    +0.000 C 
ATOM     14  O   UNL     1       2.996   2.504  -4.009  0.00  0.00    +0.000 OA
ENDBRANCH   7  14
ENDBRANCH   1  11
BRANCH   5  15
ATOM     15  C   UNL     1       8.153  -4.165  -2.653  0.00  0.00    +0.000 C 
BRANCH  15  16
ATOM     16  N   UNL     1       8.198  -4.769  -3.977  0.00  0.00    +0.000 N 
ATOM     17  C   UNL     1       8.480  -6.151  -3.938  0.00  0.00    +0.000 A 
ATOM     18  C   UNL     1       8.570  -6.875  -5.132  0.00  0.00    +0.000 A 
ATOM     19  N   UNL     1       8.817  -8.209  -5.193  0.00  0.00    +0.000 NA
ATOM     20  C   UNL     1       8.956  -8.812  -3.991  0.00  0.00    +0.000 A 
ATOM     21  C   UNL     1       8.858  -8.117  -2.795  0.00  0.00    +0.000 A 
ATOM     22  N   UNL     1       8.617  -6.784  -2.752  0.00  0.00    +0.000 NA
ATOM     23  H   UNL     1       8.858  -4.298  -4.587  0.00  0.00    +0.000 HD
BRANCH  21  24
ATOM     24  O   UNL     1       9.019  -8.829  -1.627  0.00  0.00    +0.000 OA
ATOM     25  C   UNL     1       8.914  -8.019  -0.459  0.00  0.00    +0.000 C 
ENDBRANCH  21  24
ENDBRANCH  15  16
ENDBRANCH   5  15
TORSDOF 5
