REMARK  Name = 
REMARK  5 active torsions:
REMARK  status: ('A' for Active; 'I' for Inactive)
REMARK    1  A    between atoms: C_2  and  C_19
REMARK    2  A    between atoms: N_3  and  C_4
REMARK    3  A    between atoms: C_4  and  C_5
REMARK    4  A    between atoms: C_8  and  C_9
REMARK    5  A    between atoms: C_9  and  N_10
REMARK                            x       y       z     vdW  Elec       q    Type
REMARK                         _______ _______ _______ _____ _____    ______ ____
ROOT
ATOM      1  C   UNL     1       4.660   2.236   2.136  0.00  0.00    +0.000 C 
ENDROOT
BRANCH   1   2
ATOM      2  C   UNL     1       3.300   2.266   2.859  0.00  0.00    +0.000 C 
ATOM      3  C   UNL     1       3.329   1.513   4.202  0.00  0.00    +0.000 C 
ATOM      4  C   UNL     1       4.097   2.268   5.287  0.00  0.00    +0.000 C 
ATOM      5  C   UNL     1       3.597   3.710   5.481  0.00  0.00    +0.000 C 
ATOM      6  C   UNL     1       3.591   4.453   4.133  0.00  0.00    +0.000 C 
ATOM      7  C   UNL     1       2.810   3.707   3.049  0.00  0.00    +0.000 C 
BRANCH   5   8
ATOM      8  C   UNL     1       2.198   3.781   6.122  0.00  0.00    +0.000 C 
BRANCH   8   9
ATOM      9  N   UNL     1       2.186   3.167   7.438  0.00  0.00    +0.000 N 
ATOM     10  C   UNL     1       0.928   3.165   8.027  0.00  0.00    +0.000 A 
ATOM     11  N   UNL     1      -0.176   3.102   7.264  0.00  0.00    +0.000 NA
ATOM     12  C   UNL     1      -1.363   3.129   7.890  0.00  0.00    +0.000 A 
ATOM     13  C   UNL     1      -1.498   3.212   9.251  0.00  0.00    +0.000 A 
ATOM     14  C   UNL     1      -0.316   3.275   9.945  0.00  0.00    +0.000 A 
ATOM     15  N   UNL     1       0.899   3.261   9.362  0.00  0.00    +0.000 NA
ATOM     16  H   UNL     1       2.820   3.561   8.124  0.00  0.00    +0.000 HD
ENDBRANCH   8   9
ENDBRANCH   5   8
ENDBRANCH   1   2
BRANCH   1  19
ATOM     17  O   UNL     1       7.141   1.309   1.028  0.00  0.00    +0.000 OA
ATOM     18  C   UNL     1       6.185   0.555   1.141  0.00  0.00    +0.000 C 
ATOM     19  N   UNL     1       4.987   0.891   1.733  0.00  0.00    +0.000 N 
ATOM     20  H   UNL     1       4.205   0.278   1.558  0.00  0.00    +0.000 HD
BRANCH  18  21
ATOM     21  C   UNL     1       6.089  -0.739   0.476  0.00  0.00    +0.000 A 
ATOM     22  C   UNL     1       6.514  -0.942  -0.824  0.00  0.00    +0.000 A 
ATOM     23  S   UNL     1       5.803  -2.345  -1.510  0.00  0.00    +0.000 S 
ATOM     24  C   UNL     1       5.028  -2.742  -0.042  0.00  0.00    +0.000 A 
ATOM     25  N   UNL     1       4.121  -3.750   0.059  0.00  0.00    +0.000 NA
ATOM     26  C   UNL     1       3.672  -3.939   1.258  0.00  0.00    +0.000 A 
ATOM     27  N   UNL     1       4.081  -3.248   2.373  0.00  0.00    +0.000 N 
ATOM     28  C   UNL     1       5.015  -2.239   2.323  0.00  0.00    +0.000 A 
ATOM     29  O   UNL     1       5.444  -1.701   3.335  0.00  0.00    +0.000 OA
ATOM     30  C   UNL     1       5.434  -1.910   0.978  0.00  0.00    +0.000 A 
ATOM     31  H   UNL     1       3.764  -3.511   3.294  0.00  0.00    +0.000 HD
ENDBRANCH  18  21
ENDBRANCH   1  19
TORSDOF 5
