REMARK  Name = 
REMARK  10 active torsions:
REMARK  status: ('A' for Active; 'I' for Inactive)
REMARK    1  A    between atoms: C_1  and  O_2
REMARK    2  A    between atoms: O_2  and  C_3
REMARK    3  A    between atoms: N_10  and  C_11
REMARK    4  A    between atoms: C_15  and  C_16
REMARK    5  A    between atoms: C_16  and  C_17
REMARK    6  A    between atoms: C_16  and  C_18
REMARK    7  A    between atoms: C_16  and  C_19
REMARK    8  A    between atoms: C_19  and  N_20
REMARK    9  A    between atoms: N_20  and  C_21
REMARK   10  A    between atoms: C_24  and  C_25
REMARK                            x       y       z     vdW  Elec       q    Type
REMARK                         _______ _______ _______ _____ _____    ______ ____
ROOT
ATOM      1  C   UNL     1       4.439  -1.187   1.484  0.00  0.00    +0.000 C 
ATOM      2  C   UNL     1       4.977   0.266   1.407  0.00  0.00    +0.000 C 
ATOM      3  C   UNL     1       3.205  -1.222   2.415  0.00  0.00    +0.000 C 
ENDROOT
BRANCH   1  16
ATOM      4  C   UNL     1       3.092  -1.066  -0.720  0.00  0.00    +0.000 A 
ATOM      5  C   UNL     1       2.868  -1.554  -2.001  0.00  0.00    +0.000 A 
ATOM      6  C   UNL     1       3.579  -2.652  -2.448  0.00  0.00    +0.000 A 
ATOM      7  C   UNL     1       4.531  -3.254  -1.634  0.00  0.00    +0.000 A 
ATOM      8  N   UNL     1       5.242  -4.314  -2.150  0.00  0.00    +0.000 N 
ATOM      9  C   UNL     1       6.581  -4.634  -1.667  0.00  0.00    +0.000 C 
ATOM     10  C   UNL     1       7.398  -5.184  -2.872  0.00  0.00    +0.000 C 
ATOM     11  N   UNL     1       6.746  -6.333  -3.555  0.00  0.00    +0.000 NA
ATOM     12  C   UNL     1       7.512  -6.741  -4.731  0.00  0.00    +0.000 C 
ATOM     13  C   UNL     1       5.366  -5.965  -3.949  0.00  0.00    +0.000 C 
ATOM     14  C   UNL     1       4.535  -5.448  -2.756  0.00  0.00    +0.000 C 
ATOM     15  N   UNL     1       4.798  -2.762  -0.402  0.00  0.00    +0.000 NA
ATOM     16  C   UNL     1       4.088  -1.684   0.065  0.00  0.00    +0.000 A 
BRANCH   4  18
ATOM     17  C   UNL     1       1.155   0.299  -0.845  0.00  0.00    +0.000 C 
ATOM     18  O   UNL     1       2.408   0.012  -0.226  0.00  0.00    +0.000 OA
ENDBRANCH   4  18
ENDBRANCH   1  16
BRANCH   1  19
ATOM     19  C   UNL     1       5.589  -2.002   2.168  0.00  0.00    +0.000 C 
BRANCH  19  20
ATOM     20  N   UNL     1       5.264  -3.418   2.403  0.00  0.00    +0.000 N 
ATOM     21  H   UNL     1       4.971  -3.835   1.511  0.00  0.00    +0.000 HD
BRANCH  20  22
ATOM     22  C   UNL     1       6.240  -4.206   3.041  0.00  0.00    +0.000 A 
ATOM     23  C   UNL     1       7.121  -3.709   4.007  0.00  0.00    +0.000 A 
ATOM     24  C   UNL     1       8.005  -4.557   4.676  0.00  0.00    +0.000 A 
ATOM     25  C   UNL     1       7.965  -5.911   4.385  0.00  0.00    +0.000 A 
ATOM     26  N   UNL     1       7.108  -6.462   3.484  0.00  0.00    +0.000 NA
ATOM     27  C   UNL     1       6.266  -5.595   2.859  0.00  0.00    +0.000 A 
BRANCH  25  28
ATOM     28  C   UNL     1       8.886  -6.846   5.113  0.00  0.00    +0.000 C 
ATOM     29  N   UNL     1       8.764  -8.167   4.782  0.00  0.00    +0.000 N 
ATOM     30  O   UNL     1       9.696  -6.460   5.948  0.00  0.00    +0.000 OA
ATOM     31  H   UNL     1       8.069  -8.447   4.101  0.00  0.00    +0.000 HD
ATOM     32  H   UNL     1       9.334  -8.853   5.254  0.00  0.00    +0.000 HD
ENDBRANCH  25  28
ENDBRANCH  20  22
ENDBRANCH  19  20
ENDBRANCH   1  19
TORSDOF 6
