REMARK  Name = 
REMARK  5 active torsions:
REMARK  status: ('A' for Active; 'I' for Inactive)
REMARK    1  A    between atoms: C_1  and  O_2
REMARK    2  A    between atoms: O_2  and  C_3
REMARK    3  A    between atoms: C_5  and  C_6
REMARK    4  A    between atoms: C_6  and  N_7
REMARK    5  A    between atoms: C_11  and  C_12
REMARK                            x       y       z     vdW  Elec       q    Type
REMARK                         _______ _______ _______ _____ _____    ______ ____
ROOT
ATOM      1  N   UNL     1       3.368  -3.706  -4.440  0.00  0.00    +0.000 N 
ATOM      2  C   UNL     1       4.577  -4.295  -4.795  0.00  0.00    +0.000 A 
ATOM      3  C   UNL     1       5.820  -3.731  -4.537  0.00  0.00    +0.000 A 
ATOM      4  C   UNL     1       6.982  -4.418  -4.908  0.00  0.00    +0.000 A 
ATOM      5  C   UNL     1       6.871  -5.661  -5.526  0.00  0.00    +0.000 A 
ATOM      6  C   UNL     1       5.596  -6.151  -5.753  0.00  0.00    +0.000 A 
ATOM      7  N   UNL     1       4.460  -5.500  -5.393  0.00  0.00    +0.000 NA
ATOM      8  H   UNL     1       2.619  -4.279  -4.818  0.00  0.00    +0.000 HD
ENDROOT
BRANCH   5   9
ATOM      9  C   UNL     1       8.029  -6.464  -5.969  0.00  0.00    +0.000 C 
ATOM     10  N   UNL     1       9.230  -6.238  -5.359  0.00  0.00    +0.000 N 
ATOM     11  O   UNL     1       7.915  -7.321  -6.835  0.00  0.00    +0.000 OA
ATOM     12  H   UNL     1       9.319  -5.729  -4.490  0.00  0.00    +0.000 HD
ATOM     13  H   UNL     1       9.986  -6.864  -5.611  0.00  0.00    +0.000 HD
ENDBRANCH   5   9
BRANCH   1  14
ATOM     14  C   UNL     1       3.139  -2.278  -4.199  0.00  0.00    +0.000 C 
ATOM     15  C   UNL     1       3.253  -1.273  -5.328  0.00  0.00    +0.000 C 
ATOM     16  C   UNL     1       1.897  -1.693  -4.867  0.00  0.00    +0.000 C 
BRANCH  14  19
ATOM     17  C   UNL     1       4.533  -0.583  -1.057  0.00  0.00    +0.000 A 
ATOM     18  C   UNL     1       4.357  -0.905  -2.395  0.00  0.00    +0.000 A 
ATOM     19  C   UNL     1       3.381  -1.841  -2.755  0.00  0.00    +0.000 A 
ATOM     20  C   UNL     1       2.621  -2.393  -1.714  0.00  0.00    +0.000 A 
ATOM     21  C   UNL     1       2.851  -1.993  -0.408  0.00  0.00    +0.000 A 
ATOM     22  N   UNL     1       3.793  -1.098  -0.056  0.00  0.00    +0.000 NA
BRANCH  17  24
ATOM     23  C   UNL     1       5.912   0.292   0.603  0.00  0.00    +0.000 C 
ATOM     24  O   UNL     1       5.530   0.328  -0.770  0.00  0.00    +0.000 OA
ENDBRANCH  17  24
ENDBRANCH  14  19
ENDBRANCH   1  14
TORSDOF 4
