REMARK  Name = 
REMARK  13 active torsions:
REMARK  status: ('A' for Active; 'I' for Inactive)
REMARK    1  A    between atoms: C_1  and  C_2
REMARK    2  A    between atoms: C_2  and  C_3
REMARK    3  A    between atoms: C_2  and  N_4
REMARK    4  A    between atoms: C_5  and  C_7
REMARK    5  A    between atoms: C_10  and  N_11
REMARK    6  A    between atoms: N_11  and  C_12
REMARK    7  A    between atoms: C_12  and  C_13
REMARK    8  A    between atoms: C_13  and  C_14
REMARK    9  A    between atoms: C_13  and  C_15
REMARK   10  A    between atoms: C_13  and  C_16
REMARK   11  A    between atoms: C_20  and  O_21
REMARK   12  A    between atoms: O_21  and  C_22
REMARK   13  A    between atoms: C_22  and  C_23
REMARK                            x       y       z     vdW  Elec       q    Type
REMARK                         _______ _______ _______ _____ _____    ______ ____
ROOT
ATOM      1  C   UNL     1       5.670   6.145   5.024  0.00  0.00    +0.000 C 
ENDROOT
BRANCH   1   2
ATOM      2  C   UNL     1       6.246   7.496   5.583  0.00  0.00    +0.000 C 
ATOM      3  C   UNL     1       7.794   7.462   5.556  0.00  0.00    +0.000 C 
ATOM      4  C   UNL     1       5.783   8.657   4.667  0.00  0.00    +0.000 C 
BRANCH   2   5
ATOM      5  C   UNL     1       5.797   7.692   7.054  0.00  0.00    +0.000 A 
ATOM      6  C   UNL     1       5.101   8.835   7.485  0.00  0.00    +0.000 A 
ATOM      7  C   UNL     1       4.708   8.989   8.818  0.00  0.00    +0.000 A 
ATOM      8  C   UNL     1       4.988   7.999   9.755  0.00  0.00    +0.000 A 
ATOM      9  C   UNL     1       5.669   6.852   9.361  0.00  0.00    +0.000 A 
ATOM     10  C   UNL     1       6.091   6.717   8.032  0.00  0.00    +0.000 A 
BRANCH   9  11
ATOM     11  O   UNL     1       6.015   5.826  10.200  0.00  0.00    +0.000 OA
BRANCH  11  12
ATOM     12  C   UNL     1       5.083   5.557  11.258  0.00  0.00    +0.000 C 
BRANCH  12  13
ATOM     13  C   UNL     1       5.488   4.329  12.070  0.00  0.00    +0.000 C 
ATOM     14  F   UNL     1       6.649   3.778  11.659  0.00  0.00    +0.000 F 
ATOM     15  F   UNL     1       5.636   4.654  13.378  0.00  0.00    +0.000 F 
ATOM     16  F   UNL     1       4.535   3.369  12.005  0.00  0.00    +0.000 F 
ENDBRANCH  12  13
ENDBRANCH  11  12
ENDBRANCH   9  11
ENDBRANCH   2   5
ENDBRANCH   1   2
BRANCH   1  17
ATOM     17  N   UNL     1       6.026   5.920   3.611  0.00  0.00    +0.000 N 
ATOM     18  H   UNL     1       6.881   6.388   3.334  0.00  0.00    +0.000 HD
BRANCH  17  22
ATOM     19  C   UNL     1       6.248   2.067   2.178  0.00  0.00    +0.000 A 
ATOM     20  C   UNL     1       5.918   2.310   3.503  0.00  0.00    +0.000 A 
ATOM     21  N   UNL     1       5.829   3.566   4.021  0.00  0.00    +0.000 NA
ATOM     22  C   UNL     1       6.092   4.586   3.180  0.00  0.00    +0.000 A 
ATOM     23  C   UNL     1       6.418   4.316   1.840  0.00  0.00    +0.000 A 
ATOM     24  N   UNL     1       6.516   3.071   1.301  0.00  0.00    +0.000 NA
BRANCH  19  26
ATOM     25  N   UNL     1       6.573   0.540   0.322  0.00  0.00    +0.000 N 
ATOM     26  C   UNL     1       6.277   0.669   1.664  0.00  0.00    +0.000 C 
ATOM     27  O   UNL     1       6.036  -0.278   2.408  0.00  0.00    +0.000 OA
ATOM     28  H   UNL     1       6.857   1.389  -0.162  0.00  0.00    +0.000 HD
BRANCH  25  30
ATOM     29  C   UNL     1       6.259  -0.626  -1.809  0.00  0.00    +0.000 C 
ATOM     30  C   UNL     1       6.657  -0.751  -0.342  0.00  0.00    +0.000 C 
ATOM     31  C   UNL     1       8.058  -1.341  -0.210  0.00  0.00    +0.000 C 
ENDBRANCH  25  30
ENDBRANCH  19  26
ENDBRANCH  17  22
ENDBRANCH   1  17
TORSDOF 9
