REMARK  Name = 
REMARK  6 active torsions:
REMARK  status: ('A' for Active; 'I' for Inactive)
REMARK    1  A    between atoms: C_2  and  C_4
REMARK    2  A    between atoms: N_8  and  C_9
REMARK    3  A    between atoms: C_9  and  C_10
REMARK    4  A    between atoms: C_10  and  C_13
REMARK    5  A    between atoms: C_18  and  N_19
REMARK    6  A    between atoms: N_19  and  C_20
REMARK                            x       y       z     vdW  Elec       q    Type
REMARK                         _______ _______ _______ _____ _____    ______ ____
ROOT
ATOM      1  C   UNL     1       6.022  -5.206  -5.118  0.00  0.00    +0.000 C 
ATOM      2  F   UNL     1       7.302  -4.775  -4.900  0.00  0.00    +0.000 F 
ATOM      3  F   UNL     1       5.893  -6.340  -4.366  0.00  0.00    +0.000 F 
ENDROOT
BRANCH   1   4
ATOM      4  C   UNL     1       5.760  -5.485  -6.585  0.00  0.00    +0.000 A 
ATOM      5  C   UNL     1       6.389  -4.739  -7.588  0.00  0.00    +0.000 A 
ATOM      6  C   UNL     1       6.134  -5.029  -8.925  0.00  0.00    +0.000 A 
ATOM      7  F   UNL     1       6.763  -4.332  -9.877  0.00  0.00    +0.000 F 
ATOM      8  C   UNL     1       5.259  -6.047  -9.287  0.00  0.00    +0.000 A 
ATOM      9  C   UNL     1       4.617  -6.809  -8.305  0.00  0.00    +0.000 A 
ATOM     10  C   UNL     1       4.884  -6.522  -6.960  0.00  0.00    +0.000 A 
BRANCH   9  11
ATOM     11  N   UNL     1       3.859  -7.922  -8.692  0.00  0.00    +0.000 N 
ATOM     12  H   UNL     1       3.395  -7.849  -9.594  0.00  0.00    +0.000 HD
BRANCH  11  13
ATOM     13  C   UNL     1       3.540  -9.082  -7.910  0.00  0.00    +0.000 C 
ATOM     14  C   UNL     1       3.279 -10.328  -8.779  0.00  0.00    +0.000 C 
ATOM     15  N   UNL     1       2.003 -10.551  -8.077  0.00  0.00    +0.000 NA
ATOM     16  C   UNL     1       2.061  -9.191  -7.506  0.00  0.00    +0.000 C 
ATOM     17  H   UNL     1       2.053 -11.291  -7.376  0.00  0.00    +0.000 HD
ENDBRANCH  11  13
ENDBRANCH   9  11
ENDBRANCH   1   4
BRANCH   1  18
ATOM     18  C   UNL     1       5.049  -4.128  -4.568  0.00  0.00    +0.000 C 
BRANCH  18  23
ATOM     19  C   UNL     1       2.984  -1.277  -0.837  0.00  0.00    +0.000 A 
ATOM     20  C   UNL     1       2.401  -1.771  -1.999  0.00  0.00    +0.000 A 
ATOM     21  C   UNL     1       3.127  -2.651  -2.804  0.00  0.00    +0.000 A 
ATOM     22  C   UNL     1       4.421  -3.009  -2.443  0.00  0.00    +0.000 A 
ATOM     23  N   UNL     1       5.162  -3.956  -3.116  0.00  0.00    +0.000 N 
ATOM     24  N   UNL     1       5.011  -2.500  -1.345  0.00  0.00    +0.000 NA
ATOM     25  C   UNL     1       4.292  -1.645  -0.568  0.00  0.00    +0.000 A 
ATOM     26  H   UNL     1       6.110  -3.961  -2.740  0.00  0.00    +0.000 HD
BRANCH  19  28
ATOM     27  N   UNL     1       0.907  -0.526   0.167  0.00  0.00    +0.000 N 
ATOM     28  C   UNL     1       2.269  -0.401   0.111  0.00  0.00    +0.000 C 
ATOM     29  O   UNL     1       2.867   0.370   0.849  0.00  0.00    +0.000 OA
ATOM     30  H   UNL     1       0.442  -0.017   0.908  0.00  0.00    +0.000 HD
ATOM     31  H   UNL     1       0.421  -1.321  -0.223  0.00  0.00    +0.000 HD
ENDBRANCH  19  28
ENDBRANCH  18  23
ENDBRANCH   1  18
TORSDOF 6
