REMARK  Name = 
REMARK  6 active torsions:
REMARK  status: ('A' for Active; 'I' for Inactive)
REMARK    1  A    between atoms: C_1  and  O_2
REMARK    2  A    between atoms: O_2  and  C_3
REMARK    3  A    between atoms: C_5  and  C_6
REMARK    4  A    between atoms: N_13  and  C_14
REMARK    5  A    between atoms: C_14  and  C_15
REMARK    6  A    between atoms: C_18  and  C_19
REMARK                            x       y       z     vdW  Elec       q    Type
REMARK                         _______ _______ _______ _____ _____    ______ ____
ROOT
ATOM      1  C   UNL     1       3.114   0.800  -1.165  0.00  0.00    +0.000 A 
ATOM      2  C   UNL     1       2.939   1.989  -1.892  0.00  0.00    +0.000 A 
ATOM      3  C   UNL     1       3.690   2.293  -3.029  0.00  0.00    +0.000 A 
ATOM      4  C   UNL     1       4.706   1.419  -3.427  0.00  0.00    +0.000 A 
ATOM      5  C   UNL     1       4.958   0.248  -2.680  0.00  0.00    +0.000 A 
ATOM      6  C   UNL     1       5.936  -0.774  -2.814  0.00  0.00    +0.000 A 
ATOM      7  C   UNL     1       5.729  -1.682  -1.808  0.00  0.00    +0.000 A 
ATOM      8  N   UNL     1       4.642  -1.269  -1.065  0.00  0.00    +0.000 N 
ATOM      9  C   UNL     1       4.158  -0.063  -1.563  0.00  0.00    +0.000 A 
ENDROOT
BRANCH   3  10
ATOM     10  C   UNL     1       3.327   3.536  -3.769  0.00  0.00    +0.000 C 
ATOM     11  N   UNL     1       3.982   3.831  -4.928  0.00  0.00    +0.000 N 
ATOM     12  O   UNL     1       2.429   4.278  -3.375  0.00  0.00    +0.000 OA
ATOM     13  H   UNL     1       4.691   3.258  -5.358  0.00  0.00    +0.000 HD
ATOM     14  H   UNL     1       3.660   4.645  -5.435  0.00  0.00    +0.000 HD
ENDBRANCH   3  10
BRANCH   1  16
ATOM     15  C   UNL     1       0.996   1.033  -0.145  0.00  0.00    +0.000 C 
ATOM     16  O   UNL     1       2.311   0.472  -0.093  0.00  0.00    +0.000 OA
ENDBRANCH   1  16
BRANCH   8  17
ATOM     17  C   UNL     1       4.256  -1.948   0.165  0.00  0.00    +0.000 C 
BRANCH  17  18
ATOM     18  C   UNL     1       3.362  -3.152  -0.040  0.00  0.00    +0.000 A 
ATOM     19  C   UNL     1       2.034  -2.992  -0.422  0.00  0.00    +0.000 A 
ATOM     20  C   UNL     1       1.159  -4.070  -0.300  0.00  0.00    +0.000 A 
ATOM     21  C   UNL     1       1.624  -5.286   0.197  0.00  0.00    +0.000 A 
ATOM     22  C   UNL     1       0.694  -6.415   0.509  0.00  0.00    +0.000 C 
ATOM     23  C   UNL     1       2.987  -5.395   0.431  0.00  0.00    +0.000 A 
ATOM     24  N   UNL     1       3.857  -4.363   0.336  0.00  0.00    +0.000 NA
ENDBRANCH  17  18
ENDBRANCH   8  17
TORSDOF 4
