REMARK  Name = 
REMARK  6 active torsions:
REMARK  status: ('A' for Active; 'I' for Inactive)
REMARK    1  A    between atoms: C_1  and  C_2
REMARK    2  A    between atoms: C_4  and  C_5
REMARK    3  A    between atoms: C_10  and  O_11
REMARK    4  A    between atoms: O_11  and  C_12
REMARK    5  A    between atoms: C_12  and  C_13
REMARK    6  A    between atoms: C_17  and  C_18
REMARK                            x       y       z     vdW  Elec       q    Type
REMARK                         _______ _______ _______ _____ _____    ______ ____
ROOT
ATOM      1  C   UNL     1       2.325  -2.564   0.050  0.00  0.00    +0.000 C 
ENDROOT
BRANCH   1   2
ATOM      2  C   UNL     1       2.737  -4.010   0.012  0.00  0.00    +0.000 A 
ATOM      3  C   UNL     1       2.953  -4.741   1.177  0.00  0.00    +0.000 A 
ATOM      4  C   UNL     1       3.416  -6.039   1.056  0.00  0.00    +0.000 A 
ATOM      5  N   UNL     1       3.666  -6.644  -0.127  0.00  0.00    +0.000 NA
ATOM      6  C   UNL     1       3.433  -5.939  -1.262  0.00  0.00    +0.000 A 
ATOM      7  C   UNL     1       2.974  -4.625  -1.220  0.00  0.00    +0.000 A 
BRANCH   6   8
ATOM      8  C   UNL     1       3.711  -6.632  -2.536  0.00  0.00    +0.000 A 
ATOM      9  C   UNL     1       3.028  -6.299  -3.724  0.00  0.00    +0.000 A 
ATOM     10  C   UNL     1       3.298  -6.952  -4.927  0.00  0.00    +0.000 A 
ATOM     11  C   UNL     1       4.254  -7.954  -4.956  0.00  0.00    +0.000 A 
ATOM     12  F   UNL     1       4.506  -8.590  -6.109  0.00  0.00    +0.000 F 
ATOM     13  C   UNL     1       4.948  -8.312  -3.809  0.00  0.00    +0.000 A 
ATOM     14  C   UNL     1       4.678  -7.654  -2.607  0.00  0.00    +0.000 A 
ENDBRANCH   6   8
ENDBRANCH   1   2
BRANCH   1  15
ATOM     15  O   UNL     1       0.916  -2.421   0.013  0.00  0.00    +0.000 OA
BRANCH  15  22
ATOM     16  C   UNL     1       2.516   0.329   0.038  0.00  0.00    +0.000 C 
ATOM     17  C   UNL     1       1.031   0.093   0.020  0.00  0.00    +0.000 A 
ATOM     18  C   UNL     1       0.236   1.260   0.013  0.00  0.00    +0.000 A 
ATOM     19  C   UNL     1      -1.163   1.224  -0.017  0.00  0.00    +0.000 A 
ATOM     20  C   UNL     1      -1.796  -0.017  -0.043  0.00  0.00    +0.000 A 
ATOM     21  C   UNL     1      -1.024  -1.187  -0.032  0.00  0.00    +0.000 A 
ATOM     22  C   UNL     1       0.382  -1.157   0.002  0.00  0.00    +0.000 A 
BRANCH  19  23
ATOM     23  C   UNL     1      -1.883   2.531  -0.018  0.00  0.00    +0.000 C 
ATOM     24  N   UNL     1      -3.248   2.531  -0.051  0.00  0.00    +0.000 N 
ATOM     25  O   UNL     1      -1.276   3.595   0.010  0.00  0.00    +0.000 OA
ATOM     26  H   UNL     1      -3.835   1.708  -0.077  0.00  0.00    +0.000 HD
ATOM     27  H   UNL     1      -3.698   3.437  -0.050  0.00  0.00    +0.000 HD
ENDBRANCH  19  23
ENDBRANCH  15  22
ENDBRANCH   1  15
TORSDOF 5
