REMARK  Name = 
REMARK  5 active torsions:
REMARK  status: ('A' for Active; 'I' for Inactive)
REMARK    1  A    between atoms: N_1  and  C_2
REMARK    2  A    between atoms: C_2  and  C_3
REMARK    3  A    between atoms: C_7  and  C_8
REMARK    4  A    between atoms: C_8  and  N_9
REMARK    5  A    between atoms: C_13  and  C_14
REMARK                            x       y       z     vdW  Elec       q    Type
REMARK                         _______ _______ _______ _____ _____    ______ ____
ROOT
ATOM      1  N   UNL     1       3.537   0.562   6.122  0.00  0.00    +0.000 N 
ATOM      2  C   UNL     1       3.641  -0.063   7.353  0.00  0.00    +0.000 A 
ATOM      3  C   UNL     1       4.282  -1.290   7.568  0.00  0.00    +0.000 A 
ATOM      4  N   UNL     1       4.435  -1.877   8.785  0.00  0.00    +0.000 NA
ATOM      5  C   UNL     1       3.933  -1.154   9.821  0.00  0.00    +0.000 A 
ATOM      6  C   UNL     1       3.306   0.068   9.634  0.00  0.00    +0.000 A 
ATOM      7  N   UNL     1       3.142   0.625   8.401  0.00  0.00    +0.000 NA
ATOM      8  H   UNL     1       2.898   1.349   6.206  0.00  0.00    +0.000 HD
ENDROOT
BRANCH   5   9
ATOM      9  C   UNL     1       4.084  -1.715  11.190  0.00  0.00    +0.000 C 
ATOM     10  N   UNL     1       4.709  -2.930  11.271  0.00  0.00    +0.000 N 
ATOM     11  O   UNL     1       3.679  -1.133  12.185  0.00  0.00    +0.000 OA
ATOM     12  H   UNL     1       5.040  -3.388  10.429  0.00  0.00    +0.000 HD
ATOM     13  H   UNL     1       4.850  -3.362  12.175  0.00  0.00    +0.000 HD
ENDBRANCH   5   9
BRANCH   1  14
ATOM     14  C   UNL     1       3.383  -0.239   4.923  0.00  0.00    +0.000 C 
BRANCH  14  19
ATOM     15  C   UNL     1       4.423   2.158   2.125  0.00  0.00    +0.000 A 
ATOM     16  C   UNL     1       3.316   2.064   1.272  0.00  0.00    +0.000 A 
ATOM     17  C   UNL     1       2.217   1.280   1.624  0.00  0.00    +0.000 A 
ATOM     18  C   UNL     1       2.221   0.567   2.825  0.00  0.00    +0.000 A 
ATOM     19  C   UNL     1       3.322   0.632   3.689  0.00  0.00    +0.000 A 
ATOM     20  C   UNL     1       4.414   1.441   3.333  0.00  0.00    +0.000 A 
BRANCH  15  21
ATOM     21  C   UNL     1       5.641   2.942   1.710  0.00  0.00    +0.000 C 
BRANCH  21  22
ATOM     22  N   UNL     1       6.614   2.075   1.056  0.00  0.00    +0.000 NA
ATOM     23  H   UNL     1       7.353   2.644   0.651  0.00  0.00    +0.000 HD
ATOM     24  H   UNL     1       6.158   1.596   0.280  0.00  0.00    +0.000 HD
ENDBRANCH  21  22
ENDBRANCH  15  21
ENDBRANCH  14  19
ENDBRANCH   1  14
TORSDOF 5
