REMARK  Name = 
REMARK  10 active torsions:
REMARK  status: ('A' for Active; 'I' for Inactive)
REMARK    1  A    between atoms: N_1  and  C_2
REMARK    2  A    between atoms: C_2  and  C_3
REMARK    3  A    between atoms: C_3  and  N_4
REMARK    4  A    between atoms: C_3  and  C_20
REMARK    5  A    between atoms: N_4  and  C_5
REMARK    6  A    between atoms: C_5  and  C_6
REMARK    7  A    between atoms: C_9  and  C_10
REMARK    8  A    between atoms: C_10  and  N_11
REMARK    9  A    between atoms: N_11  and  C_12
REMARK   10  A    between atoms: C_12  and  C_13
REMARK                            x       y       z     vdW  Elec       q    Type
REMARK                         _______ _______ _______ _____ _____    ______ ____
ROOT
ATOM      1  N   UNL     1       4.130  -1.631   1.954  0.00  0.00    +0.000 NA
ATOM      2  H   UNL     1       4.138  -1.820   2.955  0.00  0.00    +0.000 HD
ENDROOT
BRANCH   1   3
ATOM      3  C   UNL     1       4.792  -0.336   1.754  0.00  0.00    +0.000 C 
BRANCH   3   4
ATOM      4  C   UNL     1       6.179  -0.438   2.380  0.00  0.00    +0.000 A 
ATOM      5  C   UNL     1       6.964  -1.586   2.389  0.00  0.00    +0.000 A 
ATOM      6  S   UNL     1       8.479  -1.356   3.137  0.00  0.00    +0.000 S 
ATOM      7  C   UNL     1       8.139   0.276   3.460  0.00  0.00    +0.000 A 
ATOM      8  N   UNL     1       9.046   1.075   4.086  0.00  0.00    +0.000 NA
ATOM      9  C   UNL     1       8.654   2.293   4.239  0.00  0.00    +0.000 A 
ATOM     10  N   UNL     1       7.435   2.791   3.843  0.00  0.00    +0.000 N 
ATOM     11  C   UNL     1       6.490   2.028   3.190  0.00  0.00    +0.000 A 
ATOM     12  O   UNL     1       5.428   2.503   2.809  0.00  0.00    +0.000 OA
ATOM     13  C   UNL     1       6.884   0.644   2.999  0.00  0.00    +0.000 A 
ATOM     14  H   UNL     1       7.195   3.759   3.997  0.00  0.00    +0.000 HD
ENDBRANCH   3   4
BRANCH   3  15
ATOM     15  C   UNL     1       4.880   0.109   0.261  0.00  0.00    +0.000 C 
BRANCH  15  16
ATOM     16  N   UNL     1       5.621  -0.815  -0.608  0.00  0.00    +0.000 NA
ATOM     17  H   UNL     1       5.581  -0.496  -1.572  0.00  0.00    +0.000 HD
ATOM     18  H   UNL     1       5.185  -1.736  -0.560  0.00  0.00    +0.000 HD
ENDBRANCH  15  16
ENDBRANCH   3  15
ENDBRANCH   1   3
BRANCH   1  19
ATOM     19  C   UNL     1       2.751  -1.658   1.487  0.00  0.00    +0.000 C 
BRANCH  19  20
ATOM     20  C   UNL     1       2.134  -2.996   1.796  0.00  0.00    +0.000 A 
ATOM     21  C   UNL     1       2.059  -3.441   3.122  0.00  0.00    +0.000 A 
ATOM     22  C   UNL     1       1.476  -4.667   3.423  0.00  0.00    +0.000 A 
ATOM     23  C   UNL     1       0.933  -5.457   2.402  0.00  0.00    +0.000 A 
ATOM     24  C   UNL     1       1.021  -5.019   1.074  0.00  0.00    +0.000 A 
ATOM     25  C   UNL     1       1.623  -3.801   0.771  0.00  0.00    +0.000 A 
BRANCH  23  26
ATOM     26  C   UNL     1       0.253  -6.763   2.722  0.00  0.00    +0.000 C 
BRANCH  26  27
ATOM     27  N   UNL     1      -0.892  -6.538   3.597  0.00  0.00    +0.000 NA
ATOM     28  H   UNL     1      -1.539  -5.899   3.134  0.00  0.00    +0.000 HD
BRANCH  27  29
ATOM     29  C   UNL     1      -1.589  -7.791   3.896  0.00  0.00    +0.000 C 
BRANCH  29  30
ATOM     30  C   UNL     1      -2.787  -7.498   4.834  0.00  0.00    +0.000 C 
ATOM     31  C   UNL     1      -3.554  -8.751   5.208  0.00  0.00    +0.000 C 
ATOM     32  C   UNL     1      -2.714  -9.345   6.321  0.00  0.00    +0.000 C 
ATOM     33  C   UNL     1      -2.067  -8.138   6.993  0.00  0.00    +0.000 C 
ATOM     34  N   UNL     1      -2.359  -6.979   6.145  0.00  0.00    +0.000 NA
ATOM     35  H   UNL     1      -1.519  -6.409   6.008  0.00  0.00    +0.000 HD
ENDBRANCH  29  30
ENDBRANCH  27  29
ENDBRANCH  26  27
ENDBRANCH  23  26
ENDBRANCH  19  20
ENDBRANCH   1  19
TORSDOF 10
