REMARK  Name = 
REMARK  9 active torsions:
REMARK  status: ('A' for Active; 'I' for Inactive)
REMARK    1  A    between atoms: C_1  and  C_2
REMARK    2  A    between atoms: C_2  and  C_3
REMARK    3  A    between atoms: C_2  and  C_4
REMARK    4  A    between atoms: C_2  and  C_15
REMARK    5  A    between atoms: C_5  and  C_6
REMARK    6  A    between atoms: C_9  and  C_10
REMARK    7  A    between atoms: C_19  and  O_20
REMARK    8  A    between atoms: O_20  and  C_21
REMARK    9  A    between atoms: C_21  and  C_22
REMARK                            x       y       z     vdW  Elec       q    Type
REMARK                         _______ _______ _______ _____ _____    ______ ____
ROOT
ATOM      1  C   UNL     1       0.950   0.143  -0.047  0.00  0.00    +0.000 C 
ATOM      2  C   UNL     1       2.493   0.078   0.062  0.00  0.00    +0.000 C 
ATOM      3  C   UNL     1       3.002  -0.219  -1.375  0.00  0.00    +0.000 C 
ENDROOT
BRANCH   2   4
ATOM      4  C   UNL     1       2.954  -1.000   1.066  0.00  0.00    +0.000 A 
ATOM      5  C   UNL     1       4.142  -1.728   0.880  0.00  0.00    +0.000 A 
ATOM      6  C   UNL     1       4.573  -2.669   1.819  0.00  0.00    +0.000 A 
ATOM      7  C   UNL     1       3.842  -2.891   2.984  0.00  0.00    +0.000 A 
ATOM      8  C   UNL     1       2.674  -2.171   3.214  0.00  0.00    +0.000 A 
ATOM      9  C   UNL     1       2.234  -1.250   2.255  0.00  0.00    +0.000 A 
BRANCH   8  10
ATOM     10  O   UNL     1       1.883  -2.260   4.328  0.00  0.00    +0.000 OA
BRANCH  10  11
ATOM     11  C   UNL     1       2.366  -3.084   5.389  0.00  0.00    +0.000 C 
BRANCH  11  12
ATOM     12  C   UNL     1       1.422  -2.977   6.572  0.00  0.00    +0.000 C 
ATOM     13  F   UNL     1       1.866  -3.785   7.571  0.00  0.00    +0.000 F 
ENDBRANCH  11  12
ENDBRANCH  10  11
ENDBRANCH   8  10
ENDBRANCH   2   4
BRANCH   2  14
ATOM     14  C   UNL     1       2.994   1.479   0.430  0.00  0.00    +0.000 C 
ATOM     15  C   UNL     1       3.317   1.949   1.649  0.00  0.00    +0.000 C 
BRANCH  15  16
ATOM     16  C   UNL     1       3.792   3.315   1.910  0.00  0.00    +0.000 A 
ATOM     17  C   UNL     1       3.451   4.409   1.105  0.00  0.00    +0.000 A 
ATOM     18  C   UNL     1       3.924   5.682   1.418  0.00  0.00    +0.000 A 
ATOM     19  C   UNL     1       4.714   5.830   2.547  0.00  0.00    +0.000 A 
ATOM     20  N   UNL     1       5.055   4.803   3.375  0.00  0.00    +0.000 NA
ATOM     21  C   UNL     1       4.581   3.579   3.031  0.00  0.00    +0.000 A 
BRANCH  19  22
ATOM     22  C   UNL     1       5.232   7.187   2.911  0.00  0.00    +0.000 C 
ATOM     23  N   UNL     1       5.988   7.239   4.051  0.00  0.00    +0.000 N 
ATOM     24  O   UNL     1       5.000   8.186   2.243  0.00  0.00    +0.000 OA
ATOM     25  H   UNL     1       6.156   6.390   4.578  0.00  0.00    +0.000 HD
ATOM     26  H   UNL     1       6.364   8.123   4.359  0.00  0.00    +0.000 HD
ENDBRANCH  19  22
ENDBRANCH  15  16
ENDBRANCH   2  14
TORSDOF 7
