REMARK  Name = 
REMARK  5 active torsions:
REMARK  status: ('A' for Active; 'I' for Inactive)
REMARK    1  A    between atoms: C_2  and  C_4
REMARK    2  A    between atoms: C_7  and  N_8
REMARK    3  A    between atoms: N_8  and  C_9
REMARK    4  A    between atoms: C_9  and  C_10
REMARK    5  A    between atoms: C_13  and  N_14
REMARK                            x       y       z     vdW  Elec       q    Type
REMARK                         _______ _______ _______ _____ _____    ______ ____
ROOT
ATOM      1  C   UNL     1       4.916   1.414  -6.005  0.00  0.00    +0.000 C 
ENDROOT
BRANCH   1   2
ATOM      2  C   UNL     1       5.894   1.325  -7.146  0.00  0.00    +0.000 A 
ATOM      3  C   UNL     1       6.470   2.477  -7.693  0.00  0.00    +0.000 A 
ATOM      4  C   UNL     1       7.338   2.389  -8.791  0.00  0.00    +0.000 A 
ATOM      5  C   UNL     1       7.681   1.160  -9.379  0.00  0.00    +0.000 A 
ATOM      6  C   UNL     1       7.117   0.016  -8.782  0.00  0.00    +0.000 A 
ATOM      7  F   UNL     1       7.424  -1.213  -9.229  0.00  0.00    +0.000 F 
ATOM      8  C   UNL     1       6.247   0.089  -7.691  0.00  0.00    +0.000 A 
BRANCH   5   9
ATOM      9  N   UNL     1       8.505   1.115 -10.494  0.00  0.00    +0.000 N 
ATOM     10  C   UNL     1       8.377   0.069 -11.510  0.00  0.00    +0.000 C 
ATOM     11  C   UNL     1       9.650  -0.773 -11.556  0.00  0.00    +0.000 C 
ATOM     12  C   UNL     1      10.879   0.112 -11.761  0.00  0.00    +0.000 C 
ATOM     13  C   UNL     1      10.941   1.214 -10.703  0.00  0.00    +0.000 C 
ATOM     14  C   UNL     1       9.642   2.023 -10.650  0.00  0.00    +0.000 C 
ENDBRANCH   5   9
ENDBRANCH   1   2
BRANCH   1  15
ATOM     15  N   UNL     1       5.620   1.447  -4.737  0.00  0.00    +0.000 N 
ATOM     16  H   UNL     1       6.447   0.857  -4.696  0.00  0.00    +0.000 HD
BRANCH  15  20
ATOM     17  C   UNL     1       3.611   1.861  -1.047  0.00  0.00    +0.000 A 
ATOM     18  C   UNL     1       2.871   1.794  -2.228  0.00  0.00    +0.000 A 
ATOM     19  C   UNL     1       3.524   1.633  -3.456  0.00  0.00    +0.000 A 
ATOM     20  C   UNL     1       4.917   1.505  -3.534  0.00  0.00    +0.000 A 
ATOM     21  C   UNL     1       5.644   1.588  -2.338  0.00  0.00    +0.000 A 
ATOM     22  C   UNL     1       5.004   1.769  -1.106  0.00  0.00    +0.000 A 
BRANCH  17  24
ATOM     23  N   UNL     1       1.675   1.639   0.414  0.00  0.00    +0.000 N 
ATOM     24  C   UNL     1       2.962   2.081   0.271  0.00  0.00    +0.000 C 
ATOM     25  O   UNL     1       3.554   2.607   1.203  0.00  0.00    +0.000 OA
ATOM     26  H   UNL     1       1.280   1.705   1.343  0.00  0.00    +0.000 HD
ATOM     27  H   UNL     1       1.249   0.992  -0.233  0.00  0.00    +0.000 HD
ENDBRANCH  17  24
ENDBRANCH  15  20
ENDBRANCH   1  15
TORSDOF 5
