REMARK  Name = 
REMARK  4 active torsions:
REMARK  status: ('A' for Active; 'I' for Inactive)
REMARK    1  A    between atoms: N_1  and  C_2
REMARK    2  A    between atoms: C_2  and  C_3
REMARK    3  A    between atoms: C_6  and  C_7
REMARK    4  A    between atoms: C_7  and  N_8
REMARK                            x       y       z     vdW  Elec       q    Type
REMARK                         _______ _______ _______ _____ _____    ______ ____
ROOT
ATOM      1  C   UNL     1       2.704   1.204  -0.518  0.00  0.00    +0.000 A 
ATOM      2  C   UNL     1       2.251   1.655  -1.765  0.00  0.00    +0.000 A 
ATOM      3  C   UNL     1       2.682   2.879  -2.285  0.00  0.00    +0.000 A 
ATOM      4  C   UNL     1       3.558   3.695  -1.556  0.00  0.00    +0.000 A 
ATOM      5  C   UNL     1       4.010   3.244  -0.308  0.00  0.00    +0.000 A 
ATOM      6  C   UNL     1       3.592   2.011   0.203  0.00  0.00    +0.000 A 
ENDROOT
BRANCH   1   7
ATOM      7  C   UNL     1       2.218  -0.109   0.043  0.00  0.00    +0.000 C 
BRANCH   7   8
ATOM      8  N   UNL     1       2.530  -1.226  -0.842  0.00  0.00    +0.000 NA
ATOM      9  H   UNL     1       2.270  -2.096  -0.384  0.00  0.00    +0.000 HD
ATOM     10  H   UNL     1       3.539  -1.262  -0.980  0.00  0.00    +0.000 HD
ENDBRANCH   7   8
ENDBRANCH   1   7
BRANCH   4  11
ATOM     11  C   UNL     1       4.019   5.025  -2.098  0.00  0.00    +0.000 C 
BRANCH  11  12
ATOM     12  N   UNL     1       3.151   6.134  -1.704  0.00  0.00    +0.000 N 
ATOM     13  C   UNL     1       3.324   6.884  -0.563  0.00  0.00    +0.000 A 
ATOM     14  C   UNL     1       2.459   7.957  -0.617  0.00  0.00    +0.000 A 
ATOM     15  C   UNL     1       1.743   7.870  -1.842  0.00  0.00    +0.000 A 
ATOM     16  C   UNL     1       0.781   8.677  -2.464  0.00  0.00    +0.000 A 
ATOM     17  N   UNL     1       0.279   8.347  -3.679  0.00  0.00    +0.000 NA
ATOM     18  C   UNL     1       0.712   7.216  -4.272  0.00  0.00    +0.000 A 
ATOM     19  C   UNL     1       1.650   6.344  -3.737  0.00  0.00    +0.000 A 
ATOM     20  C   UNL     1       2.175   6.711  -2.495  0.00  0.00    +0.000 A 
ENDBRANCH  11  12
ENDBRANCH   4  11
TORSDOF 4
