REMARK  Name = 
REMARK  4 active torsions:
REMARK  status: ('A' for Active; 'I' for Inactive)
REMARK    1  A    between atoms: C_2  and  C_4
REMARK    2  A    between atoms: N_8  and  C_9
REMARK    3  A    between atoms: C_9  and  C_10
REMARK    4  A    between atoms: C_14  and  N_15
REMARK                            x       y       z     vdW  Elec       q    Type
REMARK                         _______ _______ _______ _____ _____    ______ ____
ROOT
ATOM      1  C   UNL     1       3.543   2.893  -8.016  0.00  0.00    +0.000 A 
ATOM      2  C   UNL     1       2.822   1.724  -7.804  0.00  0.00    +0.000 A 
ATOM      3  C   UNL     1       3.380   0.709  -7.030  0.00  0.00    +0.000 A 
ATOM      4  C   UNL     1       4.649   0.869  -6.483  0.00  0.00    +0.000 A 
ATOM      5  N   UNL     1       5.228  -0.048  -5.632  0.00  0.00    +0.000 N 
ATOM      6  N   UNL     1       5.375   1.987  -6.712  0.00  0.00    +0.000 NA
ATOM      7  C   UNL     1       4.819   2.966  -7.476  0.00  0.00    +0.000 A 
ATOM      8  H   UNL     1       6.174   0.250  -5.409  0.00  0.00    +0.000 HD
ENDROOT
BRANCH   1  10
ATOM      9  N   UNL     1       1.641   4.192  -8.776  0.00  0.00    +0.000 N 
ATOM     10  C   UNL     1       3.002   4.033  -8.779  0.00  0.00    +0.000 C 
ATOM     11  O   UNL     1       3.735   4.825  -9.358  0.00  0.00    +0.000 OA
ATOM     12  H   UNL     1       1.285   5.033  -9.213  0.00  0.00    +0.000 HD
ATOM     13  H   UNL     1       1.042   3.724  -8.112  0.00  0.00    +0.000 HD
ENDBRANCH   1  10
BRANCH   5  14
ATOM     14  C   UNL     1       5.049  -1.482  -5.794  0.00  0.00    +0.000 C 
BRANCH  14  15
ATOM     15  C   UNL     1       5.940  -2.127  -6.822  0.00  0.00    +0.000 A 
ATOM     16  C   UNL     1       5.841  -3.499  -7.033  0.00  0.00    +0.000 A 
ATOM     17  N   UNL     1       6.545  -4.178  -7.960  0.00  0.00    +0.000 NA
ATOM     18  C   UNL     1       7.404  -3.447  -8.714  0.00  0.00    +0.000 A 
ATOM     19  C   UNL     1       7.624  -2.071  -8.602  0.00  0.00    +0.000 A 
ATOM     20  C   UNL     1       6.863  -1.433  -7.616  0.00  0.00    +0.000 A 
BRANCH  19  21
ATOM     21  N   UNL     1       8.509  -1.384  -9.401  0.00  0.00    +0.000 N 
ATOM     22  C   UNL     1       9.227  -0.177  -8.962  0.00  0.00    +0.000 C 
ATOM     23  C   UNL     1       8.933   0.994  -9.910  0.00  0.00    +0.000 C 
ATOM     24  O   UNL     1       9.219   0.646 -11.277  0.00  0.00    +0.000 OA
ATOM     25  C   UNL     1       8.416  -0.474 -11.683  0.00  0.00    +0.000 C 
ATOM     26  C   UNL     1       8.694  -1.719 -10.820  0.00  0.00    +0.000 C 
ENDBRANCH  19  21
ENDBRANCH  14  15
ENDBRANCH   5  14
TORSDOF 4
