REMARK  Name = 
REMARK  9 active torsions:
REMARK  status: ('A' for Active; 'I' for Inactive)
REMARK    1  A    between atoms: N_1  and  C_2
REMARK    2  A    between atoms: C_2  and  C_3
REMARK    3  A    between atoms: C_6  and  N_7
REMARK    4  A    between atoms: N_7  and  C_8
REMARK    5  A    between atoms: C_8  and  C_9
REMARK    6  A    between atoms: C_13  and  O_14
REMARK    7  A    between atoms: O_14  and  C_15
REMARK    8  A    between atoms: C_15  and  C_16
REMARK    9  A    between atoms: C_16  and  O_17
REMARK                            x       y       z     vdW  Elec       q    Type
REMARK                         _______ _______ _______ _____ _____    ______ ____
ROOT
ATOM      1  N   UNL     1       4.305   4.105  -3.541  0.00  0.00    +0.000 N 
ATOM      2  H   UNL     1       4.511   3.605  -4.404  0.00  0.00    +0.000 HD
ENDROOT
BRANCH   1   6
ATOM      3  C   UNL     1       3.528   1.424  -0.338  0.00  0.00    +0.000 A 
ATOM      4  C   UNL     1       2.755   2.578  -0.493  0.00  0.00    +0.000 A 
ATOM      5  C   UNL     1       2.990   3.465  -1.547  0.00  0.00    +0.000 A 
ATOM      6  C   UNL     1       3.980   3.215  -2.506  0.00  0.00    +0.000 A 
ATOM      7  C   UNL     1       4.762   2.064  -2.336  0.00  0.00    +0.000 A 
ATOM      8  C   UNL     1       4.541   1.177  -1.270  0.00  0.00    +0.000 A 
BRANCH   3   9
ATOM      9  C   UNL     1       3.287   0.503   0.829  0.00  0.00    +0.000 C 
BRANCH   9  10
ATOM     10  N   UNL     1       1.929  -0.031   0.818  0.00  0.00    +0.000 NA
ATOM     11  H   UNL     1       1.826  -0.703   1.576  0.00  0.00    +0.000 HD
ATOM     12  H   UNL     1       1.788  -0.547  -0.049  0.00  0.00    +0.000 HD
ENDBRANCH   9  10
ENDBRANCH   3   9
ENDBRANCH   1   6
BRANCH   1  13
ATOM     13  C   UNL     1       3.465   5.278  -3.736  0.00  0.00    +0.000 C 
BRANCH  13  14
ATOM     14  C   UNL     1       3.943   6.120  -4.885  0.00  0.00    +0.000 A 
ATOM     15  C   UNL     1       3.075   6.455  -5.920  0.00  0.00    +0.000 A 
ATOM     16  N   UNL     1       3.385   7.298  -6.927  0.00  0.00    +0.000 NA
ATOM     17  C   UNL     1       4.625   7.843  -6.894  0.00  0.00    +0.000 A 
ATOM     18  C   UNL     1       5.583   7.566  -5.927  0.00  0.00    +0.000 A 
ATOM     19  C   UNL     1       5.227   6.688  -4.904  0.00  0.00    +0.000 A 
BRANCH  18  20
ATOM     20  O   UNL     1       6.769   8.233  -6.039  0.00  0.00    +0.000 OA
BRANCH  20  21
ATOM     21  C   UNL     1       7.901   7.608  -5.422  0.00  0.00    +0.000 C 
BRANCH  21  22
ATOM     22  C   UNL     1       9.125   8.477  -5.701  0.00  0.00    +0.000 C 
BRANCH  22  23
ATOM     23  O   UNL     1       8.992   9.743  -5.057  0.00  0.00    +0.000 OA
ATOM     24  H   UNL     1       8.147  10.119  -5.368  0.00  0.00    +0.000 HD
ENDBRANCH  22  23
ENDBRANCH  21  22
ENDBRANCH  20  21
ENDBRANCH  18  20
ENDBRANCH  13  14
ENDBRANCH   1  13
TORSDOF 9
