REMARK  Name = 
REMARK  7 active torsions:
REMARK  status: ('A' for Active; 'I' for Inactive)
REMARK    1  A    between atoms: C_2  and  C_4
REMARK    2  A    between atoms: C_7  and  N_8
REMARK    3  A    between atoms: N_8  and  C_9
REMARK    4  A    between atoms: C_9  and  C_10
REMARK    5  A    between atoms: C_10  and  C_13
REMARK    6  A    between atoms: C_18  and  O_19
REMARK    7  A    between atoms: O_19  and  C_20
REMARK                            x       y       z     vdW  Elec       q    Type
REMARK                         _______ _______ _______ _____ _____    ______ ____
ROOT
ATOM      1  C   UNL     1       5.756   2.888  -6.805  0.00  0.00    +0.000 C 
ATOM      2  F   UNL     1       7.052   3.071  -6.415  0.00  0.00    +0.000 F 
ATOM      3  F   UNL     1       5.743   1.682  -7.453  0.00  0.00    +0.000 F 
ENDROOT
BRANCH   1   4
ATOM      4  C   UNL     1       5.273   4.017  -7.694  0.00  0.00    +0.000 A 
ATOM      5  C   UNL     1       5.720   5.332  -7.504  0.00  0.00    +0.000 A 
ATOM      6  C   UNL     1       5.269   6.354  -8.343  0.00  0.00    +0.000 A 
ATOM      7  C   UNL     1       4.367   6.072  -9.372  0.00  0.00    +0.000 A 
ATOM      8  F   UNL     1       3.985   7.076 -10.169  0.00  0.00    +0.000 F 
ATOM      9  C   UNL     1       3.902   4.773  -9.568  0.00  0.00    +0.000 A 
ATOM     10  C   UNL     1       4.358   3.755  -8.728  0.00  0.00    +0.000 A 
BRANCH   9  11
ATOM     11  O   UNL     1       3.052   4.344 -10.554  0.00  0.00    +0.000 OA
BRANCH  11  12
ATOM     12  C   UNL     1       2.177   5.281 -11.216  0.00  0.00    +0.000 C 
ATOM     13  C   UNL     1       1.001   5.871 -10.411  0.00  0.00    +0.000 C 
ATOM     14  N   UNL     1       0.051   5.447 -11.451  0.00  0.00    +0.000 NA
ATOM     15  C   UNL     1       1.083   4.610 -12.078  0.00  0.00    +0.000 C 
ATOM     16  H   UNL     1      -0.279   6.206 -12.047  0.00  0.00    +0.000 HD
ENDBRANCH  11  12
ENDBRANCH   9  11
ENDBRANCH   1   4
BRANCH   1  17
ATOM     17  C   UNL     1       4.860   2.764  -5.548  0.00  0.00    +0.000 C 
BRANCH  17  18
ATOM     18  N   UNL     1       5.262   1.661  -4.662  0.00  0.00    +0.000 N 
ATOM     19  H   UNL     1       5.598   0.829  -5.147  0.00  0.00    +0.000 HD
BRANCH  18  23
ATOM     20  C   UNL     1       3.387   0.895  -0.968  0.00  0.00    +0.000 A 
ATOM     21  C   UNL     1       2.903   1.919  -1.784  0.00  0.00    +0.000 A 
ATOM     22  C   UNL     1       3.503   2.169  -3.023  0.00  0.00    +0.000 A 
ATOM     23  C   UNL     1       4.570   1.391  -3.486  0.00  0.00    +0.000 A 
ATOM     24  C   UNL     1       5.052   0.376  -2.647  0.00  0.00    +0.000 A 
ATOM     25  C   UNL     1       4.473   0.131  -1.397  0.00  0.00    +0.000 A 
BRANCH  20  27
ATOM     26  N   UNL     1       1.487   0.945   0.550  0.00  0.00    +0.000 N 
ATOM     27  C   UNL     1       2.804   0.628   0.371  0.00  0.00    +0.000 C 
ATOM     28  O   UNL     1       3.459   0.115   1.270  0.00  0.00    +0.000 OA
ATOM     29  H   UNL     1       1.075   0.664   1.431  0.00  0.00    +0.000 HD
ATOM     30  H   UNL     1       0.863   1.125  -0.224  0.00  0.00    +0.000 HD
ENDBRANCH  20  27
ENDBRANCH  18  23
ENDBRANCH  17  18
ENDBRANCH   1  17
TORSDOF 7
