REMARK  Name = 
REMARK  4 active torsions:
REMARK  status: ('A' for Active; 'I' for Inactive)
REMARK    1  A    between atoms: C_2  and  C_4
REMARK    2  A    between atoms: C_7  and  N_8
REMARK    3  A    between atoms: N_8  and  C_9
REMARK    4  A    between atoms: C_9  and  C_10
REMARK                            x       y       z     vdW  Elec       q    Type
REMARK                         _______ _______ _______ _____ _____    ______ ____
ROOT
ATOM      1  C   UNL     1       3.255   0.423   1.263  0.00  0.00    +0.000 A 
ATOM      2  C   UNL     1       2.803  -0.025   2.506  0.00  0.00    +0.000 A 
ATOM      3  C   UNL     1       3.547   0.254   3.656  0.00  0.00    +0.000 A 
ATOM      4  C   UNL     1       4.763   0.947   3.587  0.00  0.00    +0.000 A 
ATOM      5  C   UNL     1       5.194   1.407   2.340  0.00  0.00    +0.000 A 
ATOM      6  C   UNL     1       4.453   1.138   1.184  0.00  0.00    +0.000 A 
ENDROOT
BRANCH   1   8
ATOM      7  N   UNL     1       1.156  -0.029   0.113  0.00  0.00    +0.000 N 
ATOM      8  C   UNL     1       2.506   0.149   0.009  0.00  0.00    +0.000 C 
ATOM      9  O   UNL     1       3.065   0.123  -1.080  0.00  0.00    +0.000 OA
ATOM     10  H   UNL     1       0.648  -0.099  -0.759  0.00  0.00    +0.000 HD
ATOM     11  H   UNL     1       0.638   0.232   0.939  0.00  0.00    +0.000 HD
ENDBRANCH   1   8
BRANCH   4  12
ATOM     12  N   UNL     1       5.440   1.177   4.786  0.00  0.00    +0.000 N 
ATOM     13  H   UNL     1       4.955   1.877   5.346  0.00  0.00    +0.000 HD
BRANCH  12  14
ATOM     14  C   UNL     1       6.878   1.453   4.753  0.00  0.00    +0.000 C 
BRANCH  14  15
ATOM     15  C   UNL     1       7.490   1.185   6.116  0.00  0.00    +0.000 A 
ATOM     16  C   UNL     1       7.340  -0.071   6.708  0.00  0.00    +0.000 A 
ATOM     17  C   UNL     1       7.920  -0.308   7.949  0.00  0.00    +0.000 A 
ATOM     18  C   UNL     1       8.640   0.707   8.564  0.00  0.00    +0.000 A 
ATOM     19  C   UNL     1       8.745   1.925   7.912  0.00  0.00    +0.000 A 
ATOM     20  N   UNL     1       8.188   2.188   6.708  0.00  0.00    +0.000 NA
ENDBRANCH  14  15
ENDBRANCH  12  14
ENDBRANCH   4  12
TORSDOF 4
