REMARK  Name = 
REMARK  7 active torsions:
REMARK  status: ('A' for Active; 'I' for Inactive)
REMARK    1  A    between atoms: C_1  and  C_2
REMARK    2  A    between atoms: C_2  and  N_3
REMARK    3  A    between atoms: C_2  and  C_16
REMARK    4  A    between atoms: C_4  and  C_6
REMARK    5  A    between atoms: C_19  and  C_20
REMARK    6  A    between atoms: C_20  and  N_21
REMARK    7  A    between atoms: C_22  and  C_24
REMARK                            x       y       z     vdW  Elec       q    Type
REMARK                         _______ _______ _______ _____ _____    ______ ____
ROOT
ATOM      1  C   UNL     1       3.639  -0.833  -0.760  0.00  0.00    +0.000 C 
ATOM      2  C   UNL     1       2.460  -0.086  -0.135  0.00  0.00    +0.000 C 
ENDROOT
BRANCH   2   3
ATOM      3  C   UNL     1       2.910   0.504   1.196  0.00  0.00    +0.000 A 
ATOM      4  C   UNL     1       2.900   1.888   1.392  0.00  0.00    +0.000 A 
ATOM      5  C   UNL     1       3.222   2.444   2.638  0.00  0.00    +0.000 A 
ATOM      6  C   UNL     1       3.574   1.631   3.728  0.00  0.00    +0.000 A 
ATOM      7  C   UNL     1       3.601   0.243   3.522  0.00  0.00    +0.000 A 
ATOM      8  C   UNL     1       3.292  -0.312   2.272  0.00  0.00    +0.000 A 
BRANCH   6   9
ATOM      9  C   UNL     1       3.908   2.197   5.095  0.00  0.00    +0.000 C 
BRANCH   9  10
ATOM     10  N   UNL     1       2.754   2.315   5.963  0.00  0.00    +0.000 N 
ATOM     11  C   UNL     1       2.846   2.781   7.263  0.00  0.00    +0.000 C 
ATOM     12  O   UNL     1       3.891   3.192   7.772  0.00  0.00    +0.000 OA
ATOM     13  H   UNL     1       1.986   1.670   5.814  0.00  0.00    +0.000 HD
BRANCH  11  14
ATOM     14  C   UNL     1       1.484   2.769   8.003  0.00  0.00    +0.000 C 
ATOM     15  C   UNL     1       1.600   2.586   9.511  0.00  0.00    +0.000 C 
ATOM     16  C   UNL     1       0.352   1.802   9.836  0.00  0.00    +0.000 C 
ATOM     17  C   UNL     1       0.222   0.912   8.624  0.00  0.00    +0.000 C 
ATOM     18  O   UNL     1       0.655   1.696   7.507  0.00  0.00    +0.000 OA
ENDBRANCH  11  14
ENDBRANCH   9  10
ENDBRANCH   6   9
ENDBRANCH   2   3
BRANCH   2  19
ATOM     19  N   UNL     1       1.310  -0.953   0.075  0.00  0.00    +0.000 N 
ATOM     20  C   UNL     1       0.659  -1.621  -0.924  0.00  0.00    +0.000 C 
ATOM     21  O   UNL     1       0.988  -1.560  -2.113  0.00  0.00    +0.000 OA
ATOM     22  H   UNL     1       0.774  -0.764   0.917  0.00  0.00    +0.000 HD
BRANCH  20  23
ATOM     23  C   UNL     1      -0.427  -2.499  -0.491  0.00  0.00    +0.000 A 
ATOM     24  C   UNL     1      -0.748  -3.649  -1.197  0.00  0.00    +0.000 A 
ATOM     25  S   UNL     1      -2.021  -4.540  -0.488  0.00  0.00    +0.000 S 
ATOM     26  C   UNL     1      -2.209  -3.392   0.755  0.00  0.00    +0.000 A 
ATOM     27  N   UNL     1      -3.166  -3.527   1.713  0.00  0.00    +0.000 NA
ATOM     28  C   UNL     1      -3.213  -2.552   2.559  0.00  0.00    +0.000 A 
ATOM     29  N   UNL     1      -2.389  -1.459   2.545  0.00  0.00    +0.000 N 
ATOM     30  C   UNL     1      -1.378  -1.303   1.630  0.00  0.00    +0.000 A 
ATOM     31  O   UNL     1      -0.609  -0.355   1.689  0.00  0.00    +0.000 OA
ATOM     32  C   UNL     1      -1.301  -2.359   0.642  0.00  0.00    +0.000 A 
ATOM     33  H   UNL     1      -2.465  -0.735   3.244  0.00  0.00    +0.000 HD
ENDBRANCH  20  23
ENDBRANCH   2  19
TORSDOF 6
