REMARK  Name = 
REMARK  10 active torsions:
REMARK  status: ('A' for Active; 'I' for Inactive)
REMARK    1  A    between atoms: N_1  and  C_2
REMARK    2  A    between atoms: C_2  and  C_3
REMARK    3  A    between atoms: C_3  and  N_4
REMARK    4  A    between atoms: C_3  and  C_20
REMARK    5  A    between atoms: N_4  and  C_5
REMARK    6  A    between atoms: C_5  and  C_6
REMARK    7  A    between atoms: C_9  and  C_10
REMARK    8  A    between atoms: C_10  and  N_11
REMARK    9  A    between atoms: N_11  and  C_12
REMARK   10  A    between atoms: C_12  and  C_13
REMARK                            x       y       z     vdW  Elec       q    Type
REMARK                         _______ _______ _______ _____ _____    ______ ____
ROOT
ATOM      1  N   UNL     1      -6.837 -13.550   4.738  0.00  0.00    +0.000 NA
ATOM      2  H   UNL     1      -5.908 -13.586   5.156  0.00  0.00    +0.000 HD
ENDROOT
BRANCH   1   3
ATOM      3  C   UNL     1      -7.091 -14.876   4.135  0.00  0.00    +0.000 C 
BRANCH   3   4
ATOM      4  C   UNL     1      -6.794 -15.897   5.232  0.00  0.00    +0.000 A 
ATOM      5  C   UNL     1      -7.103 -15.706   6.574  0.00  0.00    +0.000 A 
ATOM      6  S   UNL     1      -6.665 -17.010   7.576  0.00  0.00    +0.000 S 
ATOM      7  C   UNL     1      -6.090 -17.904   6.247  0.00  0.00    +0.000 A 
ATOM      8  N   UNL     1      -5.604 -19.165   6.413  0.00  0.00    +0.000 NA
ATOM      9  C   UNL     1      -5.243 -19.740   5.318  0.00  0.00    +0.000 A 
ATOM     10  N   UNL     1      -5.293 -19.164   4.070  0.00  0.00    +0.000 N 
ATOM     11  C   UNL     1      -5.726 -17.870   3.861  0.00  0.00    +0.000 A 
ATOM     12  O   UNL     1      -5.694 -17.351   2.751  0.00  0.00    +0.000 OA
ATOM     13  C   UNL     1      -6.195 -17.201   5.061  0.00  0.00    +0.000 A 
ATOM     14  H   UNL     1      -4.978 -19.668   3.260  0.00  0.00    +0.000 HD
ENDBRANCH   3   4
BRANCH   3  15
ATOM     15  C   UNL     1      -8.536 -15.063   3.565  0.00  0.00    +0.000 C 
BRANCH  15  16
ATOM     16  N   UNL     1      -9.619 -14.863   4.538  0.00  0.00    +0.000 NA
ATOM     17  H   UNL     1     -10.521 -14.916   4.071  0.00  0.00    +0.000 HD
ATOM     18  H   UNL     1      -9.532 -13.927   4.935  0.00  0.00    +0.000 HD
ENDBRANCH  15  16
ENDBRANCH   3  15
ENDBRANCH   1   3
BRANCH   1  19
ATOM     19  C   UNL     1      -6.903 -12.428   3.801  0.00  0.00    +0.000 C 
BRANCH  19  20
ATOM     20  C   UNL     1      -6.558 -11.113   4.476  0.00  0.00    +0.000 A 
ATOM     21  C   UNL     1      -5.299 -10.899   5.034  0.00  0.00    +0.000 A 
ATOM     22  N   UNL     1      -4.959  -9.763   5.691  0.00  0.00    +0.000 NA
ATOM     23  C   UNL     1      -5.938  -8.827   5.784  0.00  0.00    +0.000 A 
ATOM     24  C   UNL     1      -7.186  -9.026   5.206  0.00  0.00    +0.000 A 
ATOM     25  N   UNL     1      -7.522 -10.157   4.544  0.00  0.00    +0.000 NA
BRANCH  23  26
ATOM     26  C   UNL     1      -5.622  -7.523   6.486  0.00  0.00    +0.000 C 
BRANCH  26  27
ATOM     27  N   UNL     1      -4.488  -6.784   5.907  0.00  0.00    +0.000 NA
ATOM     28  H   UNL     1      -3.674  -7.403   5.950  0.00  0.00    +0.000 HD
BRANCH  27  29
ATOM     29  C   UNL     1      -4.728  -6.438   4.497  0.00  0.00    +0.000 C 
BRANCH  29  30
ATOM     30  C   UNL     1      -3.525  -5.661   3.909  0.00  0.00    +0.000 C 
ATOM     31  C   UNL     1      -3.748  -5.259   2.461  0.00  0.00    +0.000 C 
ATOM     32  C   UNL     1      -4.572  -3.991   2.573  0.00  0.00    +0.000 C 
ATOM     33  C   UNL     1      -4.170  -3.387   3.911  0.00  0.00    +0.000 C 
ATOM     34  N   UNL     1      -3.315  -4.370   4.583  0.00  0.00    +0.000 NA
ATOM     35  H   UNL     1      -3.586  -4.474   5.564  0.00  0.00    +0.000 HD
ENDBRANCH  29  30
ENDBRANCH  27  29
ENDBRANCH  26  27
ENDBRANCH  23  26
ENDBRANCH  19  20
ENDBRANCH   1  19
TORSDOF 10
