REMARK  Name = 
REMARK  12 active torsions:
REMARK  status: ('A' for Active; 'I' for Inactive)
REMARK    1  A    between atoms: C_1  and  C_2
REMARK    2  A    between atoms: C_2  and  C_3
REMARK    3  A    between atoms: C_2  and  O_4
REMARK    4  A    between atoms: O_4  and  C_5
REMARK    5  A    between atoms: C_7  and  C_8
REMARK    6  A    between atoms: C_13  and  N_14
REMARK    7  A    between atoms: N_14  and  C_15
REMARK    8  A    between atoms: C_15  and  C_16
REMARK    9  A    between atoms: C_16  and  C_17
REMARK   10  A    between atoms: C_16  and  C_18
REMARK   11  A    between atoms: C_16  and  C_19
REMARK   12  A    between atoms: C_22  and  C_23
REMARK                            x       y       z     vdW  Elec       q    Type
REMARK                         _______ _______ _______ _____ _____    ______ ____
ROOT
ATOM      1  C   UNL     1       6.388   1.456   2.125  0.00  0.00    +0.000 A 
ATOM      2  C   UNL     1       7.084   1.363   0.917  0.00  0.00    +0.000 A 
ATOM      3  C   UNL     1       6.375   1.211  -0.262  0.00  0.00    +0.000 A 
ATOM      4  N   UNL     1       5.026   1.132  -0.330  0.00  0.00    +0.000 NA
ATOM      5  C   UNL     1       4.378   1.199   0.858  0.00  0.00    +0.000 A 
ATOM      6  C   UNL     1       4.972   1.377   2.118  0.00  0.00    +0.000 A 
ENDROOT
BRANCH   3   7
ATOM      7  C   UNL     1       7.133   1.131  -1.549  0.00  0.00    +0.000 C 
ATOM      8  N   UNL     1       6.377   0.992  -2.677  0.00  0.00    +0.000 N 
ATOM      9  O   UNL     1       8.357   1.188  -1.602  0.00  0.00    +0.000 OA
ATOM     10  H   UNL     1       5.368   0.956  -2.601  0.00  0.00    +0.000 HD
ATOM     11  H   UNL     1       6.831   0.946  -3.577  0.00  0.00    +0.000 HD
ENDBRANCH   3   7
BRANCH   6  12
ATOM     12  N   UNL     1       4.238   1.336   3.317  0.00  0.00    +0.000 N 
ATOM     13  H   UNL     1       4.717   1.817   4.076  0.00  0.00    +0.000 HD
BRANCH  12  14
ATOM     14  C   UNL     1       2.766   1.347   3.299  0.00  0.00    +0.000 C 
BRANCH  14  15
ATOM     15  C   UNL     1       2.087   1.435   4.706  0.00  0.00    +0.000 C 
ATOM     16  C   UNL     1       2.600   0.307   5.628  0.00  0.00    +0.000 C 
ATOM     17  C   UNL     1       2.477   2.783   5.360  0.00  0.00    +0.000 C 
BRANCH  15  18
ATOM     18  C   UNL     1       0.544   1.283   4.551  0.00  0.00    +0.000 A 
ATOM     19  C   UNL     1      -0.008   0.097   4.020  0.00  0.00    +0.000 A 
ATOM     20  C   UNL     1      -1.394  -0.085   3.907  0.00  0.00    +0.000 A 
ATOM     21  C   UNL     1      -2.271   0.915   4.325  0.00  0.00    +0.000 A 
ATOM     22  C   UNL     1      -1.751   2.101   4.842  0.00  0.00    +0.000 A 
ATOM     23  C   UNL     1      -0.364   2.282   4.949  0.00  0.00    +0.000 A 
BRANCH  21  24
ATOM     24  C   UNL     1      -3.689   0.723   4.236  0.00  0.00    +0.000 C 
ATOM     25  N   UNL     1      -4.839   0.570   4.167  0.00  0.00    +0.000 NA
ENDBRANCH  21  24
ENDBRANCH  15  18
ENDBRANCH  14  15
ENDBRANCH  12  14
ENDBRANCH   6  12
BRANCH   1  26
ATOM     26  O   UNL     1       7.014   1.642   3.345  0.00  0.00    +0.000 OA
BRANCH  26  28
ATOM     27  C   UNL     1       8.949   2.437   4.561  0.00  0.00    +0.000 C 
ATOM     28  C   UNL     1       8.457   1.604   3.382  0.00  0.00    +0.000 C 
ATOM     29  C   UNL     1       8.940   0.161   3.517  0.00  0.00    +0.000 C 
ENDBRANCH  26  28
ENDBRANCH   1  26
TORSDOF 8
