REMARK  Name = 
REMARK  5 active torsions:
REMARK  status: ('A' for Active; 'I' for Inactive)
REMARK    1  A    between atoms: N_1  and  C_2
REMARK    2  A    between atoms: C_2  and  C_3
REMARK    3  A    between atoms: C_3  and  C_4
REMARK    4  A    between atoms: C_8  and  C_9
REMARK    5  A    between atoms: C_9  and  C_10
REMARK                            x       y       z     vdW  Elec       q    Type
REMARK                         _______ _______ _______ _____ _____    ______ ____
ROOT
ATOM      1  C   UNL     1       4.947   1.117  -1.991  0.00  0.00    +0.000 A 
ATOM      2  C   UNL     1       5.232  -0.094  -1.374  0.00  0.00    +0.000 A 
ATOM      3  N   UNL     1       6.087  -0.228  -0.336  0.00  0.00    +0.000 NA
ATOM      4  C   UNL     1       6.694   0.896   0.105  0.00  0.00    +0.000 A 
ATOM      5  C   UNL     1       6.493   2.164  -0.434  0.00  0.00    +0.000 A 
ATOM      6  C   UNL     1       5.617   2.247  -1.518  0.00  0.00    +0.000 A 
ENDROOT
BRANCH   1   7
ATOM      7  C   UNL     1       3.963   1.232  -3.125  0.00  0.00    +0.000 C 
BRANCH   7   8
ATOM      8  C   UNL     1       2.542   0.837  -2.707  0.00  0.00    +0.000 C 
BRANCH   8   9
ATOM      9  N   UNL     1       1.601   1.018  -3.810  0.00  0.00    +0.000 NA
ATOM     10  H   UNL     1       0.679   0.689  -3.524  0.00  0.00    +0.000 HD
ATOM     11  H   UNL     1       1.879   0.440  -4.603  0.00  0.00    +0.000 HD
ENDBRANCH   8   9
ENDBRANCH   7   8
ENDBRANCH   1   7
BRANCH   5  12
ATOM     12  C   UNL     1       7.243   3.366   0.086  0.00  0.00    +0.000 C 
BRANCH  12  13
ATOM     13  C   UNL     1       6.424   4.546   0.655  0.00  0.00    +0.000 C 
ATOM     14  C   UNL     1       5.506   4.162   1.839  0.00  0.00    +0.000 C 
ATOM     15  C   UNL     1       4.086   4.679   1.562  0.00  0.00    +0.000 C 
ATOM     16  C   UNL     1       4.197   5.317   0.219  0.00  0.00    +0.000 A 
ATOM     17  C   UNL     1       3.174   5.913  -0.504  0.00  0.00    +0.000 A 
ATOM     18  C   UNL     1       3.475   6.437  -1.757  0.00  0.00    +0.000 A 
ATOM     19  F   UNL     1       2.502   7.003  -2.484  0.00  0.00    +0.000 F 
ATOM     20  C   UNL     1       4.771   6.384  -2.277  0.00  0.00    +0.000 A 
ATOM     21  C   UNL     1       5.799   5.800  -1.533  0.00  0.00    +0.000 A 
ATOM     22  C   UNL     1       5.495   5.251  -0.292  0.00  0.00    +0.000 A 
ENDBRANCH  12  13
ENDBRANCH   5  12
TORSDOF 5
