REMARK  Name = 
REMARK  4 active torsions:
REMARK  status: ('A' for Active; 'I' for Inactive)
REMARK    1  A    between atoms: C_2  and  C_4
REMARK    2  A    between atoms: N_8  and  C_9
REMARK    3  A    between atoms: C_9  and  C_10
REMARK    4  A    between atoms: C_15  and  C_16
REMARK                            x       y       z     vdW  Elec       q    Type
REMARK                         _______ _______ _______ _____ _____    ______ ____
ROOT
ATOM      1  C   UNL     1       4.927   1.757  -5.697  0.00  0.00    +0.000 C 
ENDROOT
BRANCH   1   6
ATOM      2  C   UNL     1       7.600   0.486  -1.494  0.00  0.00    +0.000 A 
ATOM      3  C   UNL     1       7.130   1.734  -1.885  0.00  0.00    +0.000 A 
ATOM      4  C   UNL     1       6.293   1.830  -2.998  0.00  0.00    +0.000 A 
ATOM      5  C   UNL     1       5.948   0.683  -3.704  0.00  0.00    +0.000 A 
ATOM      6  N   UNL     1       5.042   0.676  -4.740  0.00  0.00    +0.000 N 
ATOM      7  N   UNL     1       6.418  -0.529  -3.348  0.00  0.00    +0.000 NA
ATOM      8  C   UNL     1       7.242  -0.607  -2.267  0.00  0.00    +0.000 A 
ATOM      9  H   UNL     1       4.994  -0.265  -5.116  0.00  0.00    +0.000 HD
BRANCH   2  11
ATOM     10  N   UNL     1       8.321   1.203   0.709  0.00  0.00    +0.000 N 
ATOM     11  C   UNL     1       8.453   0.292  -0.304  0.00  0.00    +0.000 C 
ATOM     12  O   UNL     1       9.216  -0.659  -0.209  0.00  0.00    +0.000 OA
ATOM     13  H   UNL     1       8.830   1.005   1.562  0.00  0.00    +0.000 HD
ATOM     14  H   UNL     1       7.537   1.836   0.774  0.00  0.00    +0.000 HD
ENDBRANCH   2  11
ENDBRANCH   1   6
BRANCH   1  15
ATOM     15  C   UNL     1       5.950   1.717  -6.813  0.00  0.00    +0.000 A 
ATOM     16  C   UNL     1       6.400   2.917  -7.377  0.00  0.00    +0.000 A 
ATOM     17  C   UNL     1       7.262   2.893  -8.466  0.00  0.00    +0.000 A 
ATOM     18  F   UNL     1       7.679   4.051  -8.997  0.00  0.00    +0.000 F 
ATOM     19  C   UNL     1       7.694   1.693  -9.022  0.00  0.00    +0.000 A 
ATOM     20  C   UNL     1       7.276   0.467  -8.485  0.00  0.00    +0.000 A 
ATOM     21  C   UNL     1       6.393   0.510  -7.383  0.00  0.00    +0.000 A 
BRANCH  20  22
ATOM     22  C   UNL     1       7.758  -0.827  -9.024  0.00  0.00    +0.000 A 
ATOM     23  C   UNL     1       6.936  -1.972  -9.044  0.00  0.00    +0.000 A 
ATOM     24  C   UNL     1       7.413  -3.212  -9.485  0.00  0.00    +0.000 A 
ATOM     25  C   UNL     1       8.722  -3.329  -9.936  0.00  0.00    +0.000 A 
ATOM     26  C   UNL     1       9.537  -2.207  -9.947  0.00  0.00    +0.000 A 
ATOM     27  F   UNL     1      10.799  -2.313 -10.385  0.00  0.00    +0.000 F 
ATOM     28  C   UNL     1       9.073  -0.972  -9.498  0.00  0.00    +0.000 A 
ENDBRANCH  20  22
ENDBRANCH   1  15
TORSDOF 4
