REMARK  Name = 
REMARK  6 active torsions:
REMARK  status: ('A' for Active; 'I' for Inactive)
REMARK    1  A    between atoms: C_2  and  C_20
REMARK    2  A    between atoms: N_3  and  C_4
REMARK    3  A    between atoms: C_4  and  C_5
REMARK    4  A    between atoms: C_8  and  C_9
REMARK    5  A    between atoms: C_9  and  O_10
REMARK    6  A    between atoms: C_9  and  C_11
REMARK                            x       y       z     vdW  Elec       q    Type
REMARK                         _______ _______ _______ _____ _____    ______ ____
ROOT
ATOM      1  C   UNL     1       6.667  -9.685  -2.473  0.00  0.00    +0.000 C 
ENDROOT
BRANCH   1   2
ATOM      2  C   UNL     1       6.504  -8.861  -1.221  0.00  0.00    +0.000 A 
ATOM      3  C   UNL     1       5.964  -9.439  -0.067  0.00  0.00    +0.000 A 
ATOM      4  C   UNL     1       5.831  -8.692   1.106  0.00  0.00    +0.000 A 
ATOM      5  C   UNL     1       6.235  -7.350   1.160  0.00  0.00    +0.000 A 
ATOM      6  C   UNL     1       6.739  -6.761  -0.010  0.00  0.00    +0.000 A 
ATOM      7  C   UNL     1       6.869  -7.508  -1.187  0.00  0.00    +0.000 A 
BRANCH   5   8
ATOM      8  C   UNL     1       6.023  -6.574   2.444  0.00  0.00    +0.000 C 
BRANCH   8   9
ATOM      9  C   UNL     1       7.062  -5.451   2.696  0.00  0.00    +0.000 C 
ATOM     10  O   UNL     1       6.849  -4.306   2.286  0.00  0.00    +0.000 OA
ATOM     11  N   UNL     1       8.204  -5.759   3.408  0.00  0.00    +0.000 N 
ATOM     12  C   UNL     1       8.618  -7.051   3.924  0.00  0.00    +0.000 C 
ATOM     13  C   UNL     1       9.421  -6.684   5.157  0.00  0.00    +0.000 C 
ATOM     14  C   UNL     1      10.139  -5.407   4.735  0.00  0.00    +0.000 C 
ATOM     15  C   UNL     1       9.183  -4.741   3.745  0.00  0.00    +0.000 C 
ENDBRANCH   8   9
BRANCH   8  16
ATOM     16  O   UNL     1       4.692  -6.051   2.407  0.00  0.00    +0.000 OA
ATOM     17  H   UNL     1       4.754  -5.233   1.885  0.00  0.00    +0.000 HD
ENDBRANCH   8  16
ENDBRANCH   5   8
ENDBRANCH   1   2
BRANCH   1  20
ATOM     18  O   UNL     1       4.634 -11.649  -2.512  0.00  0.00    +0.000 OA
ATOM     19  C   UNL     1       4.517 -10.650  -3.218  0.00  0.00    +0.000 C 
ATOM     20  N   UNL     1       5.479  -9.678  -3.286  0.00  0.00    +0.000 N 
ATOM     21  H   UNL     1       5.274  -8.808  -3.764  0.00  0.00    +0.000 HD
BRANCH  19  22
ATOM     22  C   UNL     1       3.346 -10.460  -4.085  0.00  0.00    +0.000 A 
ATOM     23  C   UNL     1       2.589 -11.553  -4.485  0.00  0.00    +0.000 A 
ATOM     24  S   UNL     1       1.261 -11.141  -5.473  0.00  0.00    +0.000 S 
ATOM     25  C   UNL     1       1.629  -9.483  -5.372  0.00  0.00    +0.000 A 
ATOM     26  N   UNL     1       0.842  -8.550  -5.974  0.00  0.00    +0.000 NA
ATOM     27  C   UNL     1       1.212  -7.331  -5.774  0.00  0.00    +0.000 A 
ATOM     28  N   UNL     1       2.311  -6.956  -5.044  0.00  0.00    +0.000 N 
ATOM     29  C   UNL     1       3.187  -7.864  -4.504  0.00  0.00    +0.000 A 
ATOM     30  O   UNL     1       4.251  -7.501  -4.014  0.00  0.00    +0.000 OA
ATOM     31  C   UNL     1       2.775  -9.250  -4.631  0.00  0.00    +0.000 A 
ATOM     32  H   UNL     1       2.576  -5.986  -4.963  0.00  0.00    +0.000 HD
ENDBRANCH  19  22
ENDBRANCH   1  20
TORSDOF 6
