REMARK  Name = 
REMARK  3 active torsions:
REMARK  status: ('A' for Active; 'I' for Inactive)
REMARK    1  A    between atoms: C_3  and  N_4
REMARK    2  A    between atoms: N_4  and  C_5
REMARK    3  A    between atoms: C_5  and  C_6
REMARK                            x       y       z     vdW  Elec       q    Type
REMARK                         _______ _______ _______ _____ _____    ______ ____
ROOT
ATOM      1  C   UNL     1       1.483   0.039  -0.011  0.00  0.00    +0.000 A 
ATOM      2  C   UNL     1       0.710   1.192  -0.028  0.00  0.00    +0.000 A 
ATOM      3  C   UNL     1      -0.674   1.084  -0.098  0.00  0.00    +0.000 A 
ATOM      4  N   UNL     1      -1.290  -0.122  -0.113  0.00  0.00    +0.000 NA
ATOM      5  C   UNL     1      -0.548  -1.253  -0.054  0.00  0.00    +0.000 A 
ATOM      6  N   UNL     1      -1.164  -2.477   0.111  0.00  0.00    +0.000 N 
ATOM      7  C   UNL     1      -2.496  -2.548   0.712  0.00  0.00    +0.000 C 
ATOM      8  C   UNL     1      -2.581  -3.869   1.524  0.00  0.00    +0.000 C 
ATOM      9  N   UNL     1      -2.274  -5.084   0.726  0.00  0.00    +0.000 NA
ATOM     10  C   UNL     1      -0.962  -4.917   0.065  0.00  0.00    +0.000 C 
ATOM     11  C   UNL     1      -0.830  -3.611  -0.754  0.00  0.00    +0.000 C 
ATOM     12  C   UNL     1       0.844  -1.194  -0.029  0.00  0.00    +0.000 A 
ATOM     13  H   UNL     1      -2.986  -5.159  -0.001  0.00  0.00    +0.000 HD
ENDROOT
BRANCH   3  14
ATOM     14  N   UNL     1      -1.406   2.264  -0.168  0.00  0.00    +0.000 N 
ATOM     15  H   UNL     1      -1.226   2.921   0.578  0.00  0.00    +0.000 HD
BRANCH  14  16
ATOM     16  C   UNL     1      -2.746   2.260  -0.723  0.00  0.00    +0.000 C 
BRANCH  16  17
ATOM     17  C   UNL     1      -3.892   2.038   0.238  0.00  0.00    +0.000 A 
ATOM     18  C   UNL     1      -5.128   2.644  -0.037  0.00  0.00    +0.000 A 
ATOM     19  C   UNL     1      -6.230   2.332   0.747  0.00  0.00    +0.000 A 
ATOM     20  N   UNL     1      -6.196   1.458   1.772  0.00  0.00    +0.000 NA
ATOM     21  C   UNL     1      -5.002   0.882   2.027  0.00  0.00    +0.000 A 
ATOM     22  C   UNL     1      -3.844   1.143   1.308  0.00  0.00    +0.000 A 
ENDBRANCH  16  17
ENDBRANCH  14  16
ENDBRANCH   3  14
TORSDOF 3
