REMARK  Name = 
REMARK  5 active torsions:
REMARK  status: ('A' for Active; 'I' for Inactive)
REMARK    1  A    between atoms: C_2  and  C_20
REMARK    2  A    between atoms: N_3  and  C_4
REMARK    3  A    between atoms: C_4  and  C_5
REMARK    4  A    between atoms: C_8  and  C_9
REMARK    5  A    between atoms: C_9  and  C_10
REMARK                            x       y       z     vdW  Elec       q    Type
REMARK                         _______ _______ _______ _____ _____    ______ ____
ROOT
ATOM      1  C   UNL     1       2.258  -1.262  -2.140  0.00  0.00    +0.000 C 
ENDROOT
BRANCH   1   2
ATOM      2  C   UNL     1       3.226  -1.766  -3.171  0.00  0.00    +0.000 A 
ATOM      3  C   UNL     1       4.059  -0.907  -3.892  0.00  0.00    +0.000 A 
ATOM      4  C   UNL     1       4.924  -1.423  -4.859  0.00  0.00    +0.000 A 
ATOM      5  C   UNL     1       4.946  -2.798  -5.077  0.00  0.00    +0.000 A 
ATOM      6  N   UNL     1       4.166  -3.651  -4.365  0.00  0.00    +0.000 NA
ATOM      7  C   UNL     1       3.338  -3.124  -3.433  0.00  0.00    +0.000 A 
BRANCH   5   8
ATOM      8  C   UNL     1       5.899  -3.426  -6.056  0.00  0.00    +0.000 C 
BRANCH   8   9
ATOM      9  C   UNL     1       5.700  -3.007  -7.501  0.00  0.00    +0.000 C 
ATOM     10  O   UNL     1       6.308  -2.027  -7.943  0.00  0.00    +0.000 OA
ATOM     11  N   UNL     1       4.903  -3.808  -8.314  0.00  0.00    +0.000 N 
ATOM     12  C   UNL     1       4.879  -3.558  -9.752  0.00  0.00    +0.000 C 
ATOM     13  C   UNL     1       3.604  -2.820 -10.149  0.00  0.00    +0.000 C 
ATOM     14  C   UNL     1       2.370  -3.587  -9.671  0.00  0.00    +0.000 C 
ATOM     15  C   UNL     1       2.455  -3.887  -8.171  0.00  0.00    +0.000 C 
ATOM     16  C   UNL     1       3.769  -4.591  -7.820  0.00  0.00    +0.000 C 
ENDBRANCH   8   9
ENDBRANCH   5   8
ENDBRANCH   1   2
BRANCH   1  19
ATOM     17  O   UNL     1       2.108  -3.177  -0.078  0.00  0.00    +0.000 OA
ATOM     18  C   UNL     1       2.780  -2.165   0.099  0.00  0.00    +0.000 C 
ATOM     19  N   UNL     1       2.865  -1.167  -0.837  0.00  0.00    +0.000 N 
ATOM     20  H   UNL     1       3.561  -0.439  -0.721  0.00  0.00    +0.000 HD
BRANCH  18  21
ATOM     21  C   UNL     1       3.500  -1.928   1.356  0.00  0.00    +0.000 A 
ATOM     22  C   UNL     1       3.090  -2.557   2.523  0.00  0.00    +0.000 A 
ATOM     23  S   UNL     1       4.033  -2.146   3.886  0.00  0.00    +0.000 S 
ATOM     24  C   UNL     1       5.047  -1.149   2.954  0.00  0.00    +0.000 A 
ATOM     25  N   UNL     1       6.102  -0.498   3.516  0.00  0.00    +0.000 NA
ATOM     26  C   UNL     1       6.811   0.190   2.683  0.00  0.00    +0.000 A 
ATOM     27  N   UNL     1       6.556   0.292   1.341  0.00  0.00    +0.000 N 
ATOM     28  C   UNL     1       5.463  -0.281   0.743  0.00  0.00    +0.000 A 
ATOM     29  O   UNL     1       5.185  -0.052  -0.429  0.00  0.00    +0.000 OA
ATOM     30  C   UNL     1       4.657  -1.108   1.628  0.00  0.00    +0.000 A 
ATOM     31  H   UNL     1       7.131   0.873   0.749  0.00  0.00    +0.000 HD
ENDBRANCH  18  21
ENDBRANCH   1  19
TORSDOF 5
