REMARK  Name = 
REMARK  7 active torsions:
REMARK  status: ('A' for Active; 'I' for Inactive)
REMARK    1  A    between atoms: C_1  and  C_2
REMARK    2  A    between atoms: C_2  and  N_3
REMARK    3  A    between atoms: C_2  and  C_16
REMARK    4  A    between atoms: C_4  and  C_6
REMARK    5  A    between atoms: C_19  and  C_20
REMARK    6  A    between atoms: C_20  and  N_21
REMARK    7  A    between atoms: C_22  and  C_24
REMARK                            x       y       z     vdW  Elec       q    Type
REMARK                         _______ _______ _______ _____ _____    ______ ____
ROOT
ATOM      1  C   UNL     1       3.651  -0.876  -0.351  0.00  0.00    +0.000 C 
ATOM      2  C   UNL     1       2.421   0.000  -0.086  0.00  0.00    +0.000 C 
ENDROOT
BRANCH   2   3
ATOM      3  C   UNL     1       2.797   1.188   0.793  0.00  0.00    +0.000 A 
ATOM      4  C   UNL     1       2.675   2.500   0.317  0.00  0.00    +0.000 A 
ATOM      5  C   UNL     1       2.952   3.594   1.150  0.00  0.00    +0.000 A 
ATOM      6  C   UNL     1       3.366   3.402   2.476  0.00  0.00    +0.000 A 
ATOM      7  C   UNL     1       3.506   2.090   2.948  0.00  0.00    +0.000 A 
ATOM      8  C   UNL     1       3.232   0.999   2.116  0.00  0.00    +0.000 A 
BRANCH   6   9
ATOM      9  C   UNL     1       3.637   4.574   3.388  0.00  0.00    +0.000 C 
BRANCH   9  10
ATOM     10  N   UNL     1       2.452   4.999   4.090  0.00  0.00    +0.000 N 
ATOM     11  C   UNL     1       2.479   6.001   5.037  0.00  0.00    +0.000 C 
ATOM     12  O   UNL     1       3.511   6.603   5.331  0.00  0.00    +0.000 OA
ATOM     13  H   UNL     1       1.549   4.617   3.839  0.00  0.00    +0.000 HD
BRANCH  11  14
ATOM     14  C   UNL     1       1.189   6.270   5.648  0.00  0.00    +0.000 A 
ATOM     15  C   UNL     1       0.786   7.213   6.579  0.00  0.00    +0.000 A 
ATOM     16  C   UNL     1      -0.590   6.981   6.821  0.00  0.00    +0.000 A 
ATOM     17  C   UNL     1      -0.947   5.918   6.027  0.00  0.00    +0.000 A 
ATOM     18  O   UNL     1       0.117   5.484   5.305  0.00  0.00    +0.000 OA
ENDBRANCH  11  14
ENDBRANCH   9  10
ENDBRANCH   6   9
ENDBRANCH   2   3
BRANCH   2  19
ATOM     19  N   UNL     1       1.336  -0.735   0.550  0.00  0.00    +0.000 N 
ATOM     20  C   UNL     1       0.734  -1.832  -0.012  0.00  0.00    +0.000 C 
ATOM     21  O   UNL     1       1.081  -2.307  -1.088  0.00  0.00    +0.000 OA
ATOM     22  H   UNL     1       0.801  -0.211   1.237  0.00  0.00    +0.000 HD
BRANCH  20  23
ATOM     23  C   UNL     1      -0.321  -2.467   0.787  0.00  0.00    +0.000 A 
ATOM     24  C   UNL     1      -0.550  -3.831   0.668  0.00  0.00    +0.000 A 
ATOM     25  S   UNL     1      -1.804  -4.402   1.673  0.00  0.00    +0.000 S 
ATOM     26  C   UNL     1      -2.113  -2.838   2.268  0.00  0.00    +0.000 A 
ATOM     27  N   UNL     1      -3.121  -2.610   3.153  0.00  0.00    +0.000 NA
ATOM     28  C   UNL     1      -3.263  -1.371   3.489  0.00  0.00    +0.000 A 
ATOM     29  N   UNL     1      -2.480  -0.341   3.033  0.00  0.00    +0.000 N 
ATOM     30  C   UNL     1      -1.425  -0.530   2.175  0.00  0.00    +0.000 A 
ATOM     31  O   UNL     1      -0.696   0.397   1.841  0.00  0.00    +0.000 OA
ATOM     32  C   UNL     1      -1.247  -1.900   1.735  0.00  0.00    +0.000 A 
ATOM     33  H   UNL     1      -2.631   0.604   3.352  0.00  0.00    +0.000 HD
ENDBRANCH  20  23
ENDBRANCH   2  19
TORSDOF 6
