REMARK  Name = 
REMARK  10 active torsions:
REMARK  status: ('A' for Active; 'I' for Inactive)
REMARK    1  A    between atoms: C_1  and  C_2
REMARK    2  A    between atoms: C_2  and  N_3
REMARK    3  A    between atoms: C_2  and  C_19
REMARK    4  A    between atoms: N_3  and  C_4
REMARK    5  A    between atoms: C_4  and  C_5
REMARK    6  A    between atoms: C_8  and  C_9
REMARK    7  A    between atoms: C_9  and  O_10
REMARK    8  A    between atoms: C_9  and  C_11
REMARK    9  A    between atoms: C_11  and  N_12
REMARK   10  A    between atoms: C_19  and  C_21
REMARK                            x       y       z     vdW  Elec       q    Type
REMARK                         _______ _______ _______ _____ _____    ______ ____
ROOT
ATOM      1  N   UNL     1       9.965  -3.051   6.180  0.00  0.00    +0.000 NA
ATOM      2  H   UNL     1       9.350  -3.862   6.167  0.00  0.00    +0.000 HD
ENDROOT
BRANCH   1   4
ATOM      3  C   UNL     1      11.705  -4.428   7.340  0.00  0.00    +0.000 C 
ATOM      4  C   UNL     1      11.370  -3.524   6.149  0.00  0.00    +0.000 C 
BRANCH   4   5
ATOM      5  C   UNL     1      12.403  -2.376   5.990  0.00  0.00    +0.000 C 
ATOM      6  O   UNL     1      13.225  -2.151   6.881  0.00  0.00    +0.000 OA
BRANCH   5   7
ATOM      7  C   UNL     1      12.396  -1.536   4.776  0.00  0.00    +0.000 A 
ATOM      8  C   UNL     1      11.257  -1.204   4.068  0.00  0.00    +0.000 A 
ATOM      9  S   UNL     1      11.535  -0.028   2.859  0.00  0.00    +0.000 S 
ATOM     10  C   UNL     1      13.194   0.034   3.220  0.00  0.00    +0.000 A 
ATOM     11  N   UNL     1      14.024   0.901   2.583  0.00  0.00    +0.000 NA
ATOM     12  C   UNL     1      15.253   0.837   2.973  0.00  0.00    +0.000 A 
ATOM     13  N   UNL     1      15.736  -0.040   3.912  0.00  0.00    +0.000 N 
ATOM     14  C   UNL     1      14.959  -1.028   4.475  0.00  0.00    +0.000 A 
ATOM     15  O   UNL     1      15.462  -1.985   5.056  0.00  0.00    +0.000 OA
ATOM     16  C   UNL     1      13.542  -0.885   4.192  0.00  0.00    +0.000 A 
ATOM     17  H   UNL     1      16.728  -0.112   4.085  0.00  0.00    +0.000 HD
ENDBRANCH   5   7
ENDBRANCH   4   5
ENDBRANCH   1   4
BRANCH   1  18
ATOM     18  C   UNL     1       9.613  -2.225   7.337  0.00  0.00    +0.000 C 
BRANCH  18  19
ATOM     19  C   UNL     1       8.194  -1.696   7.228  0.00  0.00    +0.000 A 
ATOM     20  C   UNL     1       7.083  -2.555   7.208  0.00  0.00    +0.000 A 
ATOM     21  C   UNL     1       5.773  -2.048   7.237  0.00  0.00    +0.000 A 
ATOM     22  C   UNL     1       5.544  -0.667   7.301  0.00  0.00    +0.000 A 
ATOM     23  C   UNL     1       6.657   0.188   7.235  0.00  0.00    +0.000 A 
ATOM     24  C   UNL     1       7.963  -0.319   7.208  0.00  0.00    +0.000 A 
BRANCH  22  25
ATOM     25  C   UNL     1       4.139  -0.103   7.530  0.00  0.00    +0.000 C 
BRANCH  25  26
ATOM     26  O   UNL     1       3.735   0.673   6.397  0.00  0.00    +0.000 OA
ATOM     27  H   UNL     1       4.490   0.742   5.790  0.00  0.00    +0.000 HD
ENDBRANCH  25  26
BRANCH  25  28
ATOM     28  C   UNL     1       4.147   0.779   8.823  0.00  0.00    +0.000 C 
BRANCH  28  29
ATOM     29  N   UNL     1       2.927   1.377   9.385  0.00  0.00    +0.000 NA
ATOM     30  C   UNL     1       2.243   2.298   8.486  0.00  0.00    +0.000 C 
ATOM     31  C   UNL     1       1.027   1.553   7.965  0.00  0.00    +0.000 C 
ATOM     32  O   UNL     1       0.933   0.332   8.708  0.00  0.00    +0.000 OA
ATOM     33  C   UNL     1       1.906   0.410   9.741  0.00  0.00    +0.000 C 
ENDBRANCH  28  29
ENDBRANCH  25  28
ENDBRANCH  22  25
ENDBRANCH  18  19
ENDBRANCH   1  18
TORSDOF 9
