REMARK  Name = 
REMARK  6 active torsions:
REMARK  status: ('A' for Active; 'I' for Inactive)
REMARK    1  A    between atoms: C_1  and  S_2
REMARK    2  A    between atoms: S_2  and  C_3
REMARK    3  A    between atoms: C_5  and  C_6
REMARK    4  A    between atoms: C_11  and  O_12
REMARK    5  A    between atoms: O_12  and  C_13
REMARK    6  A    between atoms: C_13  and  C_14
REMARK                            x       y       z     vdW  Elec       q    Type
REMARK                         _______ _______ _______ _____ _____    ______ ____
ROOT
ATOM      1  C   UNL     1       3.181   1.530   0.765  0.00  0.00    +0.000 A 
ATOM      2  N   UNL     1       2.747   2.752   0.370  0.00  0.00    +0.000 NA
ATOM      3  C   UNL     1       3.093   3.828   1.130  0.00  0.00    +0.000 A 
ATOM      4  C   UNL     1       3.834   3.750   2.293  0.00  0.00    +0.000 A 
ATOM      5  C   UNL     1       4.270   2.492   2.689  0.00  0.00    +0.000 A 
ATOM      6  C   UNL     1       3.982   1.355   1.917  0.00  0.00    +0.000 A 
ENDROOT
BRANCH   3   7
ATOM      7  C   UNL     1       2.640   5.160   0.612  0.00  0.00    +0.000 C 
ATOM      8  N   UNL     1       1.936   5.109  -0.560  0.00  0.00    +0.000 N 
ATOM      9  O   UNL     1       2.890   6.211   1.180  0.00  0.00    +0.000 OA
ATOM     10  H   UNL     1       1.809   4.216  -1.027  0.00  0.00    +0.000 HD
ATOM     11  H   UNL     1       1.646   5.969  -1.005  0.00  0.00    +0.000 HD
ENDBRANCH   3   7
BRANCH   1  13
ATOM     12  C   UNL     1       1.057   0.775  -0.881  0.00  0.00    +0.000 C 
ATOM     13  S   UNL     1       2.690   0.223  -0.358  0.00  0.00    +0.000 S 
ENDBRANCH   1  13
BRANCH   6  14
ATOM     14  O   UNL     1       4.549   0.224   2.443  0.00  0.00    +0.000 OA
BRANCH  14  15
ATOM     15  C   UNL     1       4.725  -0.887   1.568  0.00  0.00    +0.000 C 
BRANCH  15  16
ATOM     16  C   UNL     1       5.766  -1.868   2.046  0.00  0.00    +0.000 A 
ATOM     17  C   UNL     1       6.802  -1.459   2.900  0.00  0.00    +0.000 A 
ATOM     18  C   UNL     1       7.814  -2.350   3.265  0.00  0.00    +0.000 A 
ATOM     19  C   UNL     1       7.807  -3.656   2.778  0.00  0.00    +0.000 A 
ATOM     20  C   UNL     1       6.794  -4.072   1.916  0.00  0.00    +0.000 A 
ATOM     21  C   UNL     1       5.786  -3.182   1.543  0.00  0.00    +0.000 A 
ATOM     22 CL   UNL     1       4.601  -3.752   0.418  0.00  0.00    +0.000 Cl
ENDBRANCH  15  16
ENDBRANCH  14  15
ENDBRANCH   6  14
TORSDOF 5
