REMARK  Name = 
REMARK  5 active torsions:
REMARK  status: ('A' for Active; 'I' for Inactive)
REMARK    1  A    between atoms: C_2  and  C_3
REMARK    2  A    between atoms: C_6  and  C_7
REMARK    3  A    between atoms: C_11  and  C_12
REMARK    4  A    between atoms: C_12  and  N_13
REMARK    5  A    between atoms: C_17  and  C_18
REMARK                            x       y       z     vdW  Elec       q    Type
REMARK                         _______ _______ _______ _____ _____    ______ ____
ROOT
ATOM      1  C   UNL     1       6.527   1.057   2.305  0.00  0.00    +0.000 C 
ATOM      2  C   UNL     1       6.394   0.620   3.752  0.00  0.00    +0.000 C 
ATOM      3  C   UNL     1       5.815   1.933   3.341  0.00  0.00    +0.000 C 
ENDROOT
BRANCH   1   4
ATOM      4  N   UNL     1       7.783   1.611   1.783  0.00  0.00    +0.000 N 
ATOM      5  C   UNL     1       8.993   0.937   1.654  0.00  0.00    +0.000 A 
ATOM      6  C   UNL     1       9.120  -0.443   1.554  0.00  0.00    +0.000 A 
ATOM      7  C   UNL     1      10.392  -1.009   1.394  0.00  0.00    +0.000 A 
ATOM      8  C   UNL     1      11.509  -0.177   1.337  0.00  0.00    +0.000 A 
ATOM      9  C   UNL     1      11.295   1.186   1.449  0.00  0.00    +0.000 A 
ATOM     10  N   UNL     1      10.069   1.751   1.595  0.00  0.00    +0.000 NA
ATOM     11  H   UNL     1       7.999   2.593   1.927  0.00  0.00    +0.000 HD
BRANCH   8  12
ATOM     12  C   UNL     1      12.899  -0.664   1.202  0.00  0.00    +0.000 C 
ATOM     13  N   UNL     1      13.088  -1.891   0.631  0.00  0.00    +0.000 N 
ATOM     14  O   UNL     1      13.852   0.018   1.558  0.00  0.00    +0.000 OA
ATOM     15  H   UNL     1      12.368  -2.376   0.115  0.00  0.00    +0.000 HD
ATOM     16  H   UNL     1      14.049  -2.164   0.464  0.00  0.00    +0.000 HD
ENDBRANCH   8  12
ENDBRANCH   1   4
BRANCH   1  21
ATOM     17  C   UNL     1       4.853  -1.529   0.164  0.00  0.00    +0.000 A 
ATOM     18  C   UNL     1       3.945  -0.730  -0.530  0.00  0.00    +0.000 A 
ATOM     19  N   UNL     1       3.872   0.611  -0.393  0.00  0.00    +0.000 NA
ATOM     20  C   UNL     1       4.746   1.133   0.496  0.00  0.00    +0.000 A 
ATOM     21  C   UNL     1       5.636   0.375   1.261  0.00  0.00    +0.000 A 
ATOM     22  N   UNL     1       5.687  -0.980   1.089  0.00  0.00    +0.000 NA
BRANCH  17  26
ATOM     23  C   UNL     1       5.232  -5.763  -0.569  0.00  0.00    +0.000 A 
ATOM     24  C   UNL     1       4.845  -4.902  -1.597  0.00  0.00    +0.000 A 
ATOM     25  C   UNL     1       4.730  -3.529  -1.354  0.00  0.00    +0.000 A 
ATOM     26  C   UNL     1       4.988  -2.979  -0.083  0.00  0.00    +0.000 A 
ATOM     27  C   UNL     1       5.392  -3.865   0.934  0.00  0.00    +0.000 A 
ATOM     28  C   UNL     1       5.511  -5.242   0.696  0.00  0.00    +0.000 A 
BRANCH  23  30
ATOM     29  N   UNL     1       5.442  -8.308  -1.020  0.00  0.00    +0.000 NA
ATOM     30  C   UNL     1       5.348  -7.169  -0.816  0.00  0.00    +0.000 C 
ENDBRANCH  23  30
ENDBRANCH  17  26
ENDBRANCH   1  21
TORSDOF 5
