REMARK  Name = 
REMARK  7 active torsions:
REMARK  status: ('A' for Active; 'I' for Inactive)
REMARK    1  A    between atoms: N_1  and  C_2
REMARK    2  A    between atoms: C_2  and  C_3
REMARK    3  A    between atoms: C_3  and  C_4
REMARK    4  A    between atoms: C_7  and  O_8
REMARK    5  A    between atoms: O_8  and  C_9
REMARK    6  A    between atoms: C_9  and  C_10
REMARK    7  A    between atoms: C_10  and  O_11
REMARK                            x       y       z     vdW  Elec       q    Type
REMARK                         _______ _______ _______ _____ _____    ______ ____
ROOT
ATOM      1  C   UNL     1       4.601   2.016  -0.515  0.00  0.00    +0.000 A 
ATOM      2  C   UNL     1       5.102   0.710  -0.543  0.00  0.00    +0.000 A 
ATOM      3  C   UNL     1       6.471   0.488  -0.393  0.00  0.00    +0.000 A 
ATOM      4  C   UNL     1       7.296   1.586  -0.213  0.00  0.00    +0.000 A 
ATOM      5  N   UNL     1       6.841   2.856  -0.169  0.00  0.00    +0.000 NA
ATOM      6  C   UNL     1       5.515   3.044  -0.320  0.00  0.00    +0.000 A 
ENDROOT
BRANCH   1   7
ATOM      7  C   UNL     1       3.136   2.312  -0.670  0.00  0.00    +0.000 C 
BRANCH   7   8
ATOM      8  C   UNL     1       2.407   2.346   0.677  0.00  0.00    +0.000 C 
BRANCH   8   9
ATOM      9  N   UNL     1       0.987   2.637   0.491  0.00  0.00    +0.000 NA
ATOM     10  H   UNL     1       0.520   2.635   1.398  0.00  0.00    +0.000 HD
ATOM     11  H   UNL     1       0.550   1.893  -0.052  0.00  0.00    +0.000 HD
ENDBRANCH   8   9
ENDBRANCH   7   8
ENDBRANCH   1   7
BRANCH   4  12
ATOM     12  O   UNL     1       8.653   1.346  -0.070  0.00  0.00    +0.000 OA
BRANCH  12  13
ATOM     13  C   UNL     1       9.384   2.575   0.079  0.00  0.00    +0.000 C 
BRANCH  13  14
ATOM     14  C   UNL     1      10.892   2.307   0.287  0.00  0.00    +0.000 C 
ATOM     15  C   UNL     1      11.192   1.431   1.513  0.00  0.00    +0.000 C 
ATOM     16  C   UNL     1      10.878   2.134   2.830  0.00  0.00    +0.000 C 
ATOM     17  C   UNL     1      11.577   3.488   2.937  0.00  0.00    +0.000 C 
ATOM     18  C   UNL     1      11.345   4.375   1.715  0.00  0.00    +0.000 C 
ATOM     19  C   UNL     1      11.651   3.640   0.410  0.00  0.00    +0.000 C 
BRANCH  14  20
ATOM     20  O   UNL     1      11.398   1.625  -0.870  0.00  0.00    +0.000 OA
ATOM     21  H   UNL     1      10.807   0.864  -1.022  0.00  0.00    +0.000 HD
ENDBRANCH  14  20
ENDBRANCH  13  14
ENDBRANCH  12  13
ENDBRANCH   4  12
TORSDOF 7
