REMARK  Name = 
REMARK  8 active torsions:
REMARK  status: ('A' for Active; 'I' for Inactive)
REMARK    1  A    between atoms: C_1  and  C_2
REMARK    2  A    between atoms: C_2  and  C_3
REMARK    3  A    between atoms: C_2  and  C_14
REMARK    4  A    between atoms: C_3  and  N_4
REMARK    5  A    between atoms: N_4  and  C_5
REMARK    6  A    between atoms: C_8  and  C_9
REMARK    7  A    between atoms: C_18  and  C_19
REMARK    8  A    between atoms: C_19  and  C_20
REMARK                            x       y       z     vdW  Elec       q    Type
REMARK                         _______ _______ _______ _____ _____    ______ ____
ROOT
ATOM      1  C   UNL     1       2.173  -8.135  -0.593  0.00  0.00    +0.000 C 
ATOM      2  C   UNL     1       2.825  -6.958  -1.328  0.00  0.00    +0.000 C 
ENDROOT
BRANCH   2   3
ATOM      3  C   UNL     1       2.388  -5.660  -0.658  0.00  0.00    +0.000 A 
ATOM      4  C   UNL     1       1.051  -5.241  -0.662  0.00  0.00    +0.000 A 
ATOM      5  C   UNL     1       0.665  -4.116   0.060  0.00  0.00    +0.000 A 
ATOM      6  C   UNL     1       1.611  -3.398   0.792  0.00  0.00    +0.000 A 
ATOM      7  C   UNL     1       2.967  -3.775   0.807  0.00  0.00    +0.000 A 
ATOM      8  C   UNL     1       3.333  -4.906   0.059  0.00  0.00    +0.000 A 
BRANCH   7   9
ATOM      9  C   UNL     1       3.972  -2.986   1.664  0.00  0.00    +0.000 C 
ATOM     10  C   UNL     1       4.004  -1.518   1.212  0.00  0.00    +0.000 C 
ATOM     11  C   UNL     1       3.625  -3.137   3.148  0.00  0.00    +0.000 C 
ATOM     12  C   UNL     1       4.342  -4.415   3.558  0.00  0.00    +0.000 C 
ATOM     13  O   UNL     1       5.400  -4.641   2.616  0.00  0.00    +0.000 OA
ATOM     14  C   UNL     1       5.407  -3.539   1.697  0.00  0.00    +0.000 C 
ENDBRANCH   7   9
ENDBRANCH   2   3
BRANCH   2  15
ATOM     15  C   UNL     1       2.528  -6.943  -2.840  0.00  0.00    +0.000 C 
BRANCH  15  16
ATOM     16  N   UNL     1       3.041  -8.145  -3.518  0.00  0.00    +0.000 N 
ATOM     17  H   UNL     1       2.763  -9.007  -3.049  0.00  0.00    +0.000 HD
BRANCH  16  18
ATOM     18  C   UNL     1       2.784  -8.238  -4.896  0.00  0.00    +0.000 A 
ATOM     19  C   UNL     1       2.658  -9.496  -5.493  0.00  0.00    +0.000 A 
ATOM     20  C   UNL     1       2.420  -9.609  -6.864  0.00  0.00    +0.000 A 
ATOM     21  C   UNL     1       2.349  -8.444  -7.614  0.00  0.00    +0.000 A 
ATOM     22  N   UNL     1       2.531  -7.201  -7.096  0.00  0.00    +0.000 NA
ATOM     23  C   UNL     1       2.764  -7.140  -5.764  0.00  0.00    +0.000 A 
BRANCH  21  24
ATOM     24  C   UNL     1       2.045  -8.500  -9.078  0.00  0.00    +0.000 C 
ATOM     25  N   UNL     1       1.981  -7.280  -9.697  0.00  0.00    +0.000 N 
ATOM     26  O   UNL     1       1.858  -9.548  -9.681  0.00  0.00    +0.000 OA
ATOM     27  H   UNL     1       2.144  -6.442  -9.149  0.00  0.00    +0.000 HD
ATOM     28  H   UNL     1       1.771  -7.221 -10.682  0.00  0.00    +0.000 HD
ENDBRANCH  21  24
ENDBRANCH  16  18
ENDBRANCH  15  16
ENDBRANCH   2  15
TORSDOF 6
