REMARK  Name = 
REMARK  6 active torsions:
REMARK  status: ('A' for Active; 'I' for Inactive)
REMARK    1  A    between atoms: C_2  and  C_3
REMARK    2  A    between atoms: N_10  and  C_11
REMARK    3  A    between atoms: C_11  and  C_12
REMARK    4  A    between atoms: C_15  and  C_16
REMARK    5  A    between atoms: C_16  and  N_17
REMARK    6  A    between atoms: C_18  and  C_20
REMARK                            x       y       z     vdW  Elec       q    Type
REMARK                         _______ _______ _______ _____ _____    ______ ____
ROOT
ATOM      1  C   UNL     1       0.623  -4.271  -0.046  0.00  0.00    +0.000 A 
ATOM      2  C   UNL     1      -0.022  -5.508  -0.033  0.00  0.00    +0.000 A 
ATOM      3  C   UNL     1      -1.417  -5.554  -0.064  0.00  0.00    +0.000 A 
ATOM      4  C   UNL     1      -2.151  -4.369  -0.120  0.00  0.00    +0.000 A 
ATOM      5  C   UNL     1      -1.427  -3.182  -0.111  0.00  0.00    +0.000 A 
ATOM      6  N   UNL     1      -0.071  -3.105  -0.091  0.00  0.00    +0.000 NA
ENDROOT
BRANCH   1   7
ATOM      7  C   UNL     1       2.139  -4.187   0.009  0.00  0.00    +0.000 C 
BRANCH   7  15
ATOM      8  C   UNL     1       4.542  -4.522  -3.721  0.00  0.00    +0.000 A 
ATOM      9  C   UNL     1       4.652  -4.713  -5.087  0.00  0.00    +0.000 A 
ATOM     10  C   UNL     1       3.587  -5.544  -5.501  0.00  0.00    +0.000 A 
ATOM     11  C   UNL     1       2.877  -5.867  -4.369  0.00  0.00    +0.000 A 
ATOM     12  N   UNL     1       3.429  -5.219  -3.273  0.00  0.00    +0.000 N 
ATOM     13  C   UNL     1       2.955  -5.383  -1.959  0.00  0.00    +0.000 C 
ATOM     14  O   UNL     1       2.643  -6.498  -1.571  0.00  0.00    +0.000 OA
ATOM     15  N   UNL     1       2.787  -4.192  -1.297  0.00  0.00    +0.000 N 
ATOM     16  H   UNL     1       2.786  -3.316  -1.803  0.00  0.00    +0.000 HD
BRANCH   8  18
ATOM     17  N   UNL     1       6.254  -3.289  -2.231  0.00  0.00    +0.000 NA
ATOM     18  C   UNL     1       5.473  -3.841  -2.888  0.00  0.00    +0.000 C 
ENDBRANCH   8  18
ENDBRANCH   7  15
ENDBRANCH   1   7
BRANCH   4  19
ATOM     19  C   UNL     1      -3.653  -4.368  -0.164  0.00  0.00    +0.000 C 
BRANCH  19  20
ATOM     20  N   UNL     1      -4.225  -4.277   1.151  0.00  0.00    +0.000 N 
ATOM     21  C   UNL     1      -5.590  -4.195   1.328  0.00  0.00    +0.000 C 
ATOM     22  O   UNL     1      -6.360  -4.053   0.384  0.00  0.00    +0.000 OA
ATOM     23  H   UNL     1      -3.656  -4.593   1.930  0.00  0.00    +0.000 HD
BRANCH  21  24
ATOM     24  C   UNL     1      -6.079  -4.265   2.709  0.00  0.00    +0.000 A 
ATOM     25  C   UNL     1      -7.280  -3.660   3.055  0.00  0.00    +0.000 A 
ATOM     26  S   UNL     1      -7.720  -3.902   4.686  0.00  0.00    +0.000 S 
ATOM     27  C   UNL     1      -6.364  -4.894   4.961  0.00  0.00    +0.000 A 
ATOM     28  N   UNL     1      -6.195  -5.542   6.144  0.00  0.00    +0.000 NA
ATOM     29  C   UNL     1      -5.130  -6.270   6.204  0.00  0.00    +0.000 A 
ATOM     30  N   UNL     1      -4.198  -6.377   5.204  0.00  0.00    +0.000 N 
ATOM     31  C   UNL     1      -4.313  -5.716   4.005  0.00  0.00    +0.000 A 
ATOM     32  O   UNL     1      -3.429  -5.775   3.156  0.00  0.00    +0.000 OA
ATOM     33  C   UNL     1      -5.531  -4.945   3.858  0.00  0.00    +0.000 A 
ATOM     34  H   UNL     1      -3.360  -6.924   5.334  0.00  0.00    +0.000 HD
ENDBRANCH  21  24
ENDBRANCH  19  20
ENDBRANCH   4  19
TORSDOF 6
