REMARK  Name = 
REMARK  8 active torsions:
REMARK  status: ('A' for Active; 'I' for Inactive)
REMARK    1  A    between atoms: C_1  and  C_2
REMARK    2  A    between atoms: C_2  and  C_3
REMARK    3  A    between atoms: C_2  and  C_4
REMARK    4  A    between atoms: C_2  and  C_22
REMARK    5  A    between atoms: C_4  and  N_5
REMARK    6  A    between atoms: N_5  and  C_6
REMARK    7  A    between atoms: C_10  and  C_11
REMARK    8  A    between atoms: C_15  and  C_16
REMARK                            x       y       z     vdW  Elec       q    Type
REMARK                         _______ _______ _______ _____ _____    ______ ____
ROOT
ATOM      1  C   UNL     1       2.844  -3.790  -0.793  0.00  0.00    +0.000 A 
ATOM      2  C   UNL     1       3.467  -3.846  -2.041  0.00  0.00    +0.000 A 
ATOM      3  N   UNL     1       3.701  -4.971  -2.748  0.00  0.00    +0.000 NA
ATOM      4  C   UNL     1       3.324  -6.126  -2.162  0.00  0.00    +0.000 A 
ATOM      5  C   UNL     1       2.723  -6.237  -0.904  0.00  0.00    +0.000 A 
ATOM      6  C   UNL     1       2.502  -5.024  -0.223  0.00  0.00    +0.000 A 
ENDROOT
BRANCH   5   7
ATOM      7  C   UNL     1       2.343  -7.553  -0.347  0.00  0.00    +0.000 A 
ATOM      8  C   UNL     1       1.932  -8.601  -1.180  0.00  0.00    +0.000 A 
ATOM      9  C   UNL     1       1.584  -9.824  -0.626  0.00  0.00    +0.000 A 
ATOM     10  N   UNL     1       1.609 -10.075   0.694  0.00  0.00    +0.000 NA
ATOM     11  C   UNL     1       2.001  -9.070   1.522  0.00  0.00    +0.000 A 
ATOM     12  C   UNL     1       2.375  -7.812   1.032  0.00  0.00    +0.000 A 
BRANCH  11  13
ATOM     13  C   UNL     1       2.024  -9.305   3.025  0.00  0.00    +0.000 C 
ATOM     14  F   UNL     1       1.644 -10.557   3.407  0.00  0.00    +0.000 F 
ATOM     15  F   UNL     1       3.263  -9.111   3.560  0.00  0.00    +0.000 F 
ATOM     16  F   UNL     1       1.204  -8.445   3.698  0.00  0.00    +0.000 F 
ENDBRANCH  11  13
ENDBRANCH   5   7
BRANCH   1  17
ATOM     17  N   UNL     1       2.631  -2.610  -0.059  0.00  0.00    +0.000 N 
ATOM     18  H   UNL     1       1.700  -2.601   0.360  0.00  0.00    +0.000 HD
BRANCH  17  19
ATOM     19  C   UNL     1       2.974  -1.348  -0.724  0.00  0.00    +0.000 C 
BRANCH  19  21
ATOM     20  C   UNL     1       3.560  -0.148   1.410  0.00  0.00    +0.000 C 
ATOM     21  C   UNL     1       2.683  -0.088   0.138  0.00  0.00    +0.000 C 
ATOM     22  C   UNL     1       3.149   1.138  -0.690  0.00  0.00    +0.000 C 
BRANCH  21  23
ATOM     23  C   UNL     1       1.183   0.065   0.448  0.00  0.00    +0.000 A 
ATOM     24  C   UNL     1       0.696   0.142   1.766  0.00  0.00    +0.000 A 
ATOM     25  C   UNL     1      -0.664   0.321   2.036  0.00  0.00    +0.000 A 
ATOM     26  C   UNL     1      -1.566   0.425   0.985  0.00  0.00    +0.000 A 
ATOM     27 CL   UNL     1      -3.237   0.671   1.317  0.00  0.00    +0.000 Cl
ATOM     28  C   UNL     1      -1.119   0.340  -0.326  0.00  0.00    +0.000 A 
ATOM     29  C   UNL     1       0.238   0.160  -0.596  0.00  0.00    +0.000 A 
ENDBRANCH  21  23
ENDBRANCH  19  21
ENDBRANCH  17  19
ENDBRANCH   1  17
TORSDOF 6
