REMARK  Name = 
REMARK  9 active torsions:
REMARK  status: ('A' for Active; 'I' for Inactive)
REMARK    1  A    between atoms: C_1  and  O_2
REMARK    2  A    between atoms: O_2  and  C_3
REMARK    3  A    between atoms: C_10  and  C_11
REMARK    4  A    between atoms: N_13  and  C_14
REMARK    5  A    between atoms: C_14  and  C_15
REMARK    6  A    between atoms: C_18  and  N_19
REMARK    7  A    between atoms: N_19  and  C_20
REMARK    8  A    between atoms: N_19  and  C_21
REMARK    9  A    between atoms: C_21  and  C_22
REMARK                            x       y       z     vdW  Elec       q    Type
REMARK                         _______ _______ _______ _____ _____    ______ ____
ROOT
ATOM      1  C   UNL     1       2.784   1.902   2.861  0.00  0.00    +0.000 C 
ENDROOT
BRANCH   1   2
ATOM      2  C   UNL     1       1.715   2.708   2.180  0.00  0.00    +0.000 A 
ATOM      3  C   UNL     1       0.545   2.115   1.708  0.00  0.00    +0.000 A 
ATOM      4  C   UNL     1      -0.402   2.871   0.995  0.00  0.00    +0.000 A 
ATOM      5  C   UNL     1      -0.244   4.248   0.739  0.00  0.00    +0.000 A 
ATOM      6  C   UNL     1       0.948   4.806   1.222  0.00  0.00    +0.000 A 
ATOM      7  C   UNL     1       1.909   4.064   1.925  0.00  0.00    +0.000 A 
BRANCH   5   8
ATOM      8  N   UNL     1      -1.184   4.972  -0.010  0.00  0.00    +0.000 N 
ATOM      9  C   UNL     1      -2.603   4.635   0.181  0.00  0.00    +0.000 C 
BRANCH   8  10
ATOM     10  C   UNL     1      -0.966   6.397  -0.356  0.00  0.00    +0.000 C 
BRANCH  10  11
ATOM     11  C   UNL     1      -0.345   6.640  -1.750  0.00  0.00    +0.000 C 
ATOM     12  C   UNL     1      -1.245   6.154  -2.896  0.00  0.00    +0.000 C 
ATOM     13  C   UNL     1      -0.574   6.360  -4.250  0.00  0.00    +0.000 C 
ATOM     14  O   UNL     1       0.703   5.727  -4.284  0.00  0.00    +0.000 OA
ATOM     15  C   UNL     1       1.600   6.294  -3.332  0.00  0.00    +0.000 C 
ATOM     16  C   UNL     1       1.081   6.100  -1.912  0.00  0.00    +0.000 C 
ENDBRANCH  10  11
ENDBRANCH   8  10
ENDBRANCH   5   8
ENDBRANCH   1   2
BRANCH   1  19
ATOM     17  C   UNL     1       4.782   0.608   2.276  0.00  0.00    +0.000 C 
ATOM     18  O   UNL     1       4.983   0.351   3.462  0.00  0.00    +0.000 OA
ATOM     19  N   UNL     1       3.717   1.374   1.894  0.00  0.00    +0.000 N 
ATOM     20  H   UNL     1       3.572   1.603   0.919  0.00  0.00    +0.000 HD
BRANCH  17  28
ATOM     21  C   UNL     1       4.781   0.807  -1.177  0.00  0.00    +0.000 A 
ATOM     22  N   UNL     1       5.005   0.671  -2.501  0.00  0.00    +0.000 NA
ATOM     23  C   UNL     1       6.061  -0.044  -2.896  0.00  0.00    +0.000 A 
ATOM     24  N   UNL     1       6.951  -0.649  -2.117  0.00  0.00    +0.000 NA
ATOM     25  C   UNL     1       6.690  -0.500  -0.808  0.00  0.00    +0.000 A 
ATOM     26  S   UNL     1       7.732  -1.208   0.329  0.00  0.00    +0.000 S 
ATOM     27  C   UNL     1       6.790  -0.635   1.619  0.00  0.00    +0.000 A 
ATOM     28  C   UNL     1       5.676   0.100   1.226  0.00  0.00    +0.000 A 
ATOM     29  C   UNL     1       5.629   0.196  -0.234  0.00  0.00    +0.000 A 
BRANCH  21  31
ATOM     30  C   UNL     1       2.968   2.144  -1.852  0.00  0.00    +0.000 C 
ATOM     31  O   UNL     1       3.709   1.578  -0.770  0.00  0.00    +0.000 OA
ENDBRANCH  21  31
ENDBRANCH  17  28
ENDBRANCH   1  19
TORSDOF 7
