REMARK  Name = 
REMARK  6 active torsions:
REMARK  status: ('A' for Active; 'I' for Inactive)
REMARK    1  A    between atoms: C_2  and  C_4
REMARK    2  A    between atoms: N_8  and  C_9
REMARK    3  A    between atoms: C_9  and  C_10
REMARK    4  A    between atoms: C_10  and  C_13
REMARK    5  A    between atoms: C_17  and  S_18
REMARK    6  A    between atoms: S_18  and  C_19
REMARK                            x       y       z     vdW  Elec       q    Type
REMARK                         _______ _______ _______ _____ _____    ______ ____
ROOT
ATOM      1  C   UNL     1       5.059  -2.483  -5.447  0.00  0.00    +0.000 C 
ENDROOT
BRANCH   1   6
ATOM      2  C   UNL     1       3.035  -0.863  -1.025  0.00  0.00    +0.000 A 
ATOM      3  C   UNL     1       2.702  -0.578  -2.345  0.00  0.00    +0.000 A 
ATOM      4  C   UNL     1       3.463  -1.140  -3.369  0.00  0.00    +0.000 A 
ATOM      5  C   UNL     1       4.537  -1.974  -3.065  0.00  0.00    +0.000 A 
ATOM      6  N   UNL     1       5.322  -2.563  -4.018  0.00  0.00    +0.000 N 
ATOM      7  N   UNL     1       4.877  -2.238  -1.789  0.00  0.00    +0.000 NA
ATOM      8  C   UNL     1       4.134  -1.674  -0.800  0.00  0.00    +0.000 A 
ATOM      9  H   UNL     1       6.045  -3.179  -3.659  0.00  0.00    +0.000 HD
BRANCH   2  11
ATOM     10  N   UNL     1       0.962  -0.023  -0.085  0.00  0.00    +0.000 N 
ATOM     11  C   UNL     1       2.280  -0.325   0.122  0.00  0.00    +0.000 C 
ATOM     12  O   UNL     1       2.798  -0.187   1.221  0.00  0.00    +0.000 OA
ATOM     13  H   UNL     1       0.429   0.244   0.734  0.00  0.00    +0.000 HD
ATOM     14  H   UNL     1       0.446  -0.351  -0.889  0.00  0.00    +0.000 HD
ENDBRANCH   2  11
ENDBRANCH   1   6
BRANCH   1  15
ATOM     15  C   UNL     1       6.025  -3.309  -6.330  0.00  0.00    +0.000 C 
ATOM     16  F   UNL     1       7.307  -2.907  -6.088  0.00  0.00    +0.000 F 
ATOM     17  F   UNL     1       5.973  -4.617  -5.944  0.00  0.00    +0.000 F 
BRANCH  15  18
ATOM     18  C   UNL     1       5.624  -3.113  -7.781  0.00  0.00    +0.000 A 
ATOM     19  C   UNL     1       4.717  -3.987  -8.395  0.00  0.00    +0.000 A 
ATOM     20  C   UNL     1       4.280  -3.742  -9.696  0.00  0.00    +0.000 A 
ATOM     21  C   UNL     1       4.738  -2.619 -10.389  0.00  0.00    +0.000 A 
ATOM     22  C   UNL     1       5.635  -1.728  -9.790  0.00  0.00    +0.000 A 
ATOM     23  C   UNL     1       6.096  -2.000  -8.499  0.00  0.00    +0.000 A 
BRANCH  22  24
ATOM     24  S   UNL     1       6.297  -0.362 -10.713  0.00  0.00    +0.000 S 
BRANCH  24  25
ATOM     25  C   UNL     1       5.245   1.052 -10.269  0.00  0.00    +0.000 C 
ATOM     26  C   UNL     1       5.107   1.384  -8.786  0.00  0.00    +0.000 C 
ATOM     27  O   UNL     1       3.658   1.350  -8.874  0.00  0.00    +0.000 OA
ATOM     28  C   UNL     1       3.737   0.830 -10.228  0.00  0.00    +0.000 C 
ENDBRANCH  24  25
ENDBRANCH  22  24
ENDBRANCH  15  18
ENDBRANCH   1  15
TORSDOF 6
