REMARK  Name = 
REMARK  9 active torsions:
REMARK  status: ('A' for Active; 'I' for Inactive)
REMARK    1  A    between atoms: N_1  and  C_2
REMARK    2  A    between atoms: C_2  and  C_3
REMARK    3  A    between atoms: C_2  and  C_19
REMARK    4  A    between atoms: C_3  and  C_4
REMARK    5  A    between atoms: C_7  and  C_8
REMARK    6  A    between atoms: C_8  and  N_9
REMARK    7  A    between atoms: N_9  and  C_10
REMARK    8  A    between atoms: C_10  and  C_11
REMARK    9  A    between atoms: C_15  and  O_16
REMARK                            x       y       z     vdW  Elec       q    Type
REMARK                         _______ _______ _______ _____ _____    ______ ____
ROOT
ATOM      1  C   UNL     1       2.548   2.363  -1.154  0.00  0.00    +0.000 A 
ATOM      2  C   UNL     1       1.833   1.883  -2.258  0.00  0.00    +0.000 A 
ATOM      3  C   UNL     1       1.448   2.754  -3.277  0.00  0.00    +0.000 A 
ATOM      4  C   UNL     1       1.771   4.118  -3.213  0.00  0.00    +0.000 A 
ATOM      5  C   UNL     1       2.506   4.589  -2.120  0.00  0.00    +0.000 A 
ATOM      6  C   UNL     1       2.888   3.721  -1.100  0.00  0.00    +0.000 A 
ENDROOT
BRANCH   1   7
ATOM      7  C   UNL     1       2.924   1.440  -0.023  0.00  0.00    +0.000 C 
BRANCH   7   8
ATOM      8  C   UNL     1       4.310   0.764  -0.103  0.00  0.00    +0.000 C 
BRANCH   8   9
ATOM      9  C   UNL     1       4.458  -0.248  -1.218  0.00  0.00    +0.000 A 
ATOM     10  C   UNL     1       3.988  -1.549  -1.089  0.00  0.00    +0.000 A 
ATOM     11  S   UNL     1       4.370  -2.549  -2.416  0.00  0.00    +0.000 S 
ATOM     12  C   UNL     1       5.173  -1.279  -3.214  0.00  0.00    +0.000 A 
ATOM     13  N   UNL     1       5.809  -1.493  -4.398  0.00  0.00    +0.000 NA
ATOM     14  C   UNL     1       6.393  -0.447  -4.881  0.00  0.00    +0.000 A 
ATOM     15  N   UNL     1       6.368   0.798  -4.310  0.00  0.00    +0.000 N 
ATOM     16  C   UNL     1       5.679   1.080  -3.151  0.00  0.00    +0.000 A 
ATOM     17  O   UNL     1       5.586   2.236  -2.746  0.00  0.00    +0.000 OA
ATOM     18  C   UNL     1       5.087  -0.088  -2.514  0.00  0.00    +0.000 A 
ATOM     19  H   UNL     1       6.803   1.586  -4.764  0.00  0.00    +0.000 HD
ENDBRANCH   8   9
BRANCH   8  20
ATOM     20  N   UNL     1       5.448   1.678  -0.082  0.00  0.00    +0.000 NA
ATOM     21  H   UNL     1       5.316   2.362   0.657  0.00  0.00    +0.000 HD
ATOM     22  H   UNL     1       5.424   2.234  -0.948  0.00  0.00    +0.000 HD
ENDBRANCH   8  20
ENDBRANCH   7   8
ENDBRANCH   1   7
BRANCH   4  23
ATOM     23  C   UNL     1       1.362   5.056  -4.321  0.00  0.00    +0.000 C 
BRANCH  23  24
ATOM     24  N   UNL     1      -0.092   5.067  -4.482  0.00  0.00    +0.000 NA
ATOM     25  H   UNL     1      -0.510   5.368  -3.601  0.00  0.00    +0.000 HD
BRANCH  24  26
ATOM     26  C   UNL     1      -0.549   5.929  -5.574  0.00  0.00    +0.000 C 
BRANCH  26  27
ATOM     27  C   UNL     1      -0.012   5.514  -6.955  0.00  0.00    +0.000 C 
ATOM     28  C   UNL     1      -0.422   4.085  -7.326  0.00  0.00    +0.000 C 
ATOM     29  N   UNL     1      -1.598   4.172  -8.205  0.00  0.00    +0.000 NA
ATOM     30  C   UNL     1      -1.918   5.596  -8.402  0.00  0.00    +0.000 C 
ATOM     31  C   UNL     1      -0.617   6.333  -8.090  0.00  0.00    +0.000 C 
ATOM     32  H   UNL     1      -2.390   3.708  -7.758  0.00  0.00    +0.000 HD
BRANCH  31  33
ATOM     33  O   UNL     1       0.250   6.271  -9.229  0.00  0.00    +0.000 OA
ATOM     34  H   UNL     1       0.164   5.367  -9.589  0.00  0.00    +0.000 HD
ENDBRANCH  31  33
ENDBRANCH  26  27
ENDBRANCH  24  26
ENDBRANCH  23  24
ENDBRANCH   4  23
TORSDOF 9
