REMARK  Name = 
REMARK  6 active torsions:
REMARK  status: ('A' for Active; 'I' for Inactive)
REMARK    1  A    between atoms: N_1  and  C_2
REMARK    2  A    between atoms: C_2  and  C_3
REMARK    3  A    between atoms: C_7  and  C_8
REMARK    4  A    between atoms: C_8  and  C_9
REMARK    5  A    between atoms: C_9  and  N_10
REMARK    6  A    between atoms: C_14  and  C_15
REMARK                            x       y       z     vdW  Elec       q    Type
REMARK                         _______ _______ _______ _____ _____    ______ ____
ROOT
ATOM      1  N   UNL     1       3.452  -0.468   7.466  0.00  0.00    +0.000 N 
ATOM      2  C   UNL     1       3.415   0.274   8.668  0.00  0.00    +0.000 A 
ATOM      3  C   UNL     1       3.470  -0.373   9.913  0.00  0.00    +0.000 A 
ATOM      4  N   UNL     1       3.458   0.268  11.118  0.00  0.00    +0.000 NA
ATOM      5  C   UNL     1       3.369   1.624  11.029  0.00  0.00    +0.000 A 
ATOM      6  C   UNL     1       3.293   2.277   9.811  0.00  0.00    +0.000 A 
ATOM      7  N   UNL     1       3.309   1.619   8.624  0.00  0.00    +0.000 NA
ATOM      8  H   UNL     1       4.284  -1.052   7.471  0.00  0.00    +0.000 HD
ENDROOT
BRANCH   5   9
ATOM      9  C   UNL     1       3.365   2.428  12.281  0.00  0.00    +0.000 C 
ATOM     10  N   UNL     1       3.446   1.733  13.459  0.00  0.00    +0.000 N 
ATOM     11  O   UNL     1       3.294   3.650  12.270  0.00  0.00    +0.000 OA
ATOM     12  H   UNL     1       3.502   0.719  13.457  0.00  0.00    +0.000 HD
ATOM     13  H   UNL     1       3.443   2.244  14.329  0.00  0.00    +0.000 HD
ENDBRANCH   5   9
BRANCH   1  14
ATOM     14  C   UNL     1       3.393   0.391   6.269  0.00  0.00    +0.000 C 
BRANCH  14  15
ATOM     15  C   UNL     1       3.446  -0.435   4.975  0.00  0.00    +0.000 C 
BRANCH  15  20
ATOM     16  C   UNL     1       1.998   1.779   2.209  0.00  0.00    +0.000 A 
ATOM     17  C   UNL     1       3.169   2.275   1.621  0.00  0.00    +0.000 A 
ATOM     18  C   UNL     1       4.420   1.862   2.077  0.00  0.00    +0.000 A 
ATOM     19  C   UNL     1       4.517   0.964   3.143  0.00  0.00    +0.000 A 
ATOM     20  C   UNL     1       3.361   0.459   3.753  0.00  0.00    +0.000 A 
ATOM     21  C   UNL     1       2.107   0.861   3.265  0.00  0.00    +0.000 A 
BRANCH  16  22
ATOM     22  C   UNL     1       0.647   2.279   1.764  0.00  0.00    +0.000 C 
BRANCH  22  23
ATOM     23  N   UNL     1       0.435   2.085   0.335  0.00  0.00    +0.000 NA
ATOM     24  H   UNL     1      -0.531   2.314   0.110  0.00  0.00    +0.000 HD
ATOM     25  H   UNL     1       0.556   1.097   0.118  0.00  0.00    +0.000 HD
ENDBRANCH  22  23
ENDBRANCH  16  22
ENDBRANCH  15  20
ENDBRANCH  14  15
ENDBRANCH   1  14
TORSDOF 6
