REMARK  Name = 
REMARK  6 active torsions:
REMARK  status: ('A' for Active; 'I' for Inactive)
REMARK    1  A    between atoms: C_5  and  C_6
REMARK    2  A    between atoms: C_6  and  C_7
REMARK    3  A    between atoms: C_7  and  C_8
REMARK    4  A    between atoms: C_8  and  C_9
REMARK    5  A    between atoms: C_13  and  O_14
REMARK    6  A    between atoms: O_14  and  C_15
REMARK                            x       y       z     vdW  Elec       q    Type
REMARK                         _______ _______ _______ _____ _____    ______ ____
ROOT
ATOM      1  C   UNL     1       5.303  -3.180  -0.026  0.00  0.00    +0.000 A 
ATOM      2  C   UNL     1       5.727  -1.864  -0.019  0.00  0.00    +0.000 A 
ATOM      3  C   UNL     1       7.088  -1.663  -0.039  0.00  0.00    +0.000 A 
ATOM      4  N   UNL     1       7.986  -2.662  -0.084  0.00  0.00    +0.000 NA
ATOM      5  C   UNL     1       7.473  -3.901  -0.101  0.00  0.00    +0.000 A 
ATOM      6  N   UNL     1       6.169  -4.212  -0.064  0.00  0.00    +0.000 NA
ENDROOT
BRANCH   1   7
ATOM      7  C   UNL     1       3.834  -3.516  -0.005  0.00  0.00    +0.000 C 
BRANCH   7   8
ATOM      8  C   UNL     1       3.438  -4.417   1.169  0.00  0.00    +0.000 C 
BRANCH   8   9
ATOM      9  C   UNL     1       3.676  -3.756   2.530  0.00  0.00    +0.000 C 
BRANCH   9  14
ATOM     10  C   UNL     1       3.689  -6.400   5.257  0.00  0.00    +0.000 A 
ATOM     11  C   UNL     1       2.375  -6.281   5.680  0.00  0.00    +0.000 A 
ATOM     12  N   UNL     1       1.492  -5.406   5.151  0.00  0.00    +0.000 NA
ATOM     13  C   UNL     1       1.946  -4.615   4.155  0.00  0.00    +0.000 A 
ATOM     14  C   UNL     1       3.247  -4.650   3.659  0.00  0.00    +0.000 A 
ATOM     15  C   UNL     1       4.128  -5.572   4.228  0.00  0.00    +0.000 A 
ENDBRANCH   9  14
ENDBRANCH   8   9
ENDBRANCH   7   8
ENDBRANCH   1   7
BRANCH   5  16
ATOM     16  O   UNL     1       8.332  -4.978  -0.176  0.00  0.00    +0.000 OA
BRANCH  16  17
ATOM     17  C   UNL     1       9.623  -4.697  -0.753  0.00  0.00    +0.000 C 
ATOM     18  C   UNL     1       9.644  -4.343  -2.263  0.00  0.00    +0.000 C 
ATOM     19  C   UNL     1      10.876  -5.247  -2.415  0.00  0.00    +0.000 C 
ATOM     20  C   UNL     1      10.458  -5.951  -1.113  0.00  0.00    +0.000 C 
ENDBRANCH  16  17
ENDBRANCH   5  16
TORSDOF 6
