REMARK  Name = 
REMARK  4 active torsions:
REMARK  status: ('A' for Active; 'I' for Inactive)
REMARK    1  A    between atoms: C_2  and  C_4
REMARK    2  A    between atoms: N_8  and  C_9
REMARK    3  A    between atoms: C_9  and  C_10
REMARK    4  A    between atoms: C_14  and  C_15
REMARK                            x       y       z     vdW  Elec       q    Type
REMARK                         _______ _______ _______ _____ _____    ______ ____
ROOT
ATOM      1  C   UNL     1       5.065   0.174   5.921  0.00  0.00    +0.000 C 
ATOM      2  C   UNL     1       5.035  -1.274   6.396  0.00  0.00    +0.000 C 
ATOM      3  C   UNL     1       3.814  -0.425   6.531  0.00  0.00    +0.000 C 
ENDROOT
BRANCH   1   8
ATOM      4  C   UNL     1       3.376   3.068   1.943  0.00  0.00    +0.000 A 
ATOM      5  C   UNL     1       2.623   2.498   2.967  0.00  0.00    +0.000 A 
ATOM      6  C   UNL     1       3.240   1.608   3.854  0.00  0.00    +0.000 A 
ATOM      7  C   UNL     1       4.586   1.303   3.697  0.00  0.00    +0.000 A 
ATOM      8  N   UNL     1       5.247   0.338   4.465  0.00  0.00    +0.000 N 
ATOM      9  N   UNL     1       5.325   1.853   2.709  0.00  0.00    +0.000 NA
ATOM     10  C   UNL     1       4.712   2.715   1.856  0.00  0.00    +0.000 A 
ATOM     11  H   UNL     1       6.219   0.391   4.160  0.00  0.00    +0.000 HD
BRANCH   4  13
ATOM     12  N   UNL     1       1.671   4.664   1.263  0.00  0.00    +0.000 N 
ATOM     13  C   UNL     1       2.803   3.972   0.925  0.00  0.00    +0.000 C 
ATOM     14  O   UNL     1       3.334   4.126  -0.166  0.00  0.00    +0.000 OA
ATOM     15  H   UNL     1       1.341   5.344   0.589  0.00  0.00    +0.000 HD
ATOM     16  H   UNL     1       1.347   4.755   2.215  0.00  0.00    +0.000 HD
ENDBRANCH   4  13
ENDBRANCH   1   8
BRANCH   1  17
ATOM     17  C   UNL     1       5.861   1.193   6.731  0.00  0.00    +0.000 A 
ATOM     18  C   UNL     1       7.156   0.919   7.197  0.00  0.00    +0.000 A 
ATOM     19  C   UNL     1       7.929   1.904   7.808  0.00  0.00    +0.000 A 
ATOM     20  C   UNL     1       7.429   3.199   7.941  0.00  0.00    +0.000 A 
ATOM     21  C   UNL     1       6.145   3.533   7.483  0.00  0.00    +0.000 A 
ATOM     22  C   UNL     1       5.369   2.500   6.921  0.00  0.00    +0.000 A 
BRANCH  21  23
ATOM     23  C   UNL     1       5.663   4.926   7.486  0.00  0.00    +0.000 A 
ATOM     24  C   UNL     1       6.511   5.997   7.159  0.00  0.00    +0.000 A 
ATOM     25  C   UNL     1       6.024   7.301   7.094  0.00  0.00    +0.000 A 
ATOM     26  C   UNL     1       4.685   7.513   7.358  0.00  0.00    +0.000 A 
ATOM     27  N   UNL     1       3.825   6.525   7.686  0.00  0.00    +0.000 NA
ATOM     28  C   UNL     1       4.335   5.269   7.748  0.00  0.00    +0.000 A 
ENDBRANCH  21  23
ENDBRANCH   1  17
TORSDOF 4
