REMARK  Name = 
REMARK  12 active torsions:
REMARK  status: ('A' for Active; 'I' for Inactive)
REMARK    1  A    between atoms: C_1  and  O_2
REMARK    2  A    between atoms: O_2  and  C_3
REMARK    3  A    between atoms: C_10  and  C_11
REMARK    4  A    between atoms: N_13  and  C_14
REMARK    5  A    between atoms: C_14  and  C_15
REMARK    6  A    between atoms: C_18  and  N_19
REMARK    7  A    between atoms: N_19  and  C_20
REMARK    8  A    between atoms: N_19  and  C_21
REMARK    9  A    between atoms: C_21  and  C_22
REMARK   10  A    between atoms: N_25  and  C_26
REMARK   11  A    between atoms: C_26  and  C_27
REMARK   12  A    between atoms: C_26  and  C_28
REMARK                            x       y       z     vdW  Elec       q    Type
REMARK                         _______ _______ _______ _____ _____    ______ ____
ROOT
ATOM      1  C   UNL     1       2.176  -2.200   2.654  0.00  0.00    +0.000 A 
ATOM      2  C   UNL     1       1.230  -2.917   3.392  0.00  0.00    +0.000 A 
ATOM      3  C   UNL     1       0.330  -2.258   4.237  0.00  0.00    +0.000 A 
ATOM      4  C   UNL     1       0.340  -0.865   4.397  0.00  0.00    +0.000 A 
ATOM      5  C   UNL     1       1.328  -0.169   3.685  0.00  0.00    +0.000 A 
ATOM      6  C   UNL     1       2.226  -0.814   2.817  0.00  0.00    +0.000 A 
ENDROOT
BRANCH   4   7
ATOM      7  N   UNL     1      -0.625  -0.233   5.171  0.00  0.00    +0.000 N 
ATOM      8  C   UNL     1      -1.040  -0.815   6.444  0.00  0.00    +0.000 C 
BRANCH   7   9
ATOM      9  C   UNL     1      -1.118   1.116   4.864  0.00  0.00    +0.000 C 
BRANCH   9  10
ATOM     10  C   UNL     1      -2.455   1.073   4.084  0.00  0.00    +0.000 C 
ATOM     11  C   UNL     1      -2.369   0.361   2.732  0.00  0.00    +0.000 C 
ATOM     12  C   UNL     1      -1.517   1.133   1.720  0.00  0.00    +0.000 C 
ATOM     13  N   UNL     1      -1.946   2.533   1.518  0.00  0.00    +0.000 NA
ATOM     14  C   UNL     1      -2.107   3.242   2.801  0.00  0.00    +0.000 C 
ATOM     15  C   UNL     1      -2.987   2.483   3.799  0.00  0.00    +0.000 C 
BRANCH  13  16
ATOM     16  C   UNL     1      -1.019   3.253   0.601  0.00  0.00    +0.000 C 
ATOM     17  C   UNL     1      -0.921   2.576  -0.777  0.00  0.00    +0.000 C 
ATOM     18  C   UNL     1      -1.432   4.716   0.365  0.00  0.00    +0.000 C 
ENDBRANCH  13  16
ENDBRANCH   9  10
ENDBRANCH   7   9
ENDBRANCH   4   7
BRANCH   1  19
ATOM     19  C   UNL     1       3.063  -2.916   1.671  0.00  0.00    +0.000 C 
BRANCH  19  22
ATOM     20  C   UNL     1       1.461  -3.663  -0.066  0.00  0.00    +0.000 C 
ATOM     21  O   UNL     1       0.855  -4.383   0.721  0.00  0.00    +0.000 OA
ATOM     22  N   UNL     1       2.530  -2.897   0.325  0.00  0.00    +0.000 N 
ATOM     23  H   UNL     1       3.075  -2.422  -0.376  0.00  0.00    +0.000 HD
BRANCH  20  31
ATOM     24  C   UNL     1       2.813  -2.156  -2.857  0.00  0.00    +0.000 A 
ATOM     25  N   UNL     1       3.153  -1.749  -4.098  0.00  0.00    +0.000 NA
ATOM     26  C   UNL     1       2.377  -2.128  -5.117  0.00  0.00    +0.000 A 
ATOM     27  N   UNL     1       1.274  -2.865  -5.052  0.00  0.00    +0.000 NA
ATOM     28  C   UNL     1       0.975  -3.257  -3.802  0.00  0.00    +0.000 A 
ATOM     29  S   UNL     1      -0.406  -4.206  -3.534  0.00  0.00    +0.000 S 
ATOM     30  C   UNL     1      -0.084  -4.286  -1.868  0.00  0.00    +0.000 A 
ATOM     31  C   UNL     1       1.071  -3.611  -1.485  0.00  0.00    +0.000 A 
ATOM     32  C   UNL     1       1.689  -2.970  -2.642  0.00  0.00    +0.000 A 
BRANCH  24  34
ATOM     33  C   UNL     1       4.358  -0.583  -2.076  0.00  0.00    +0.000 C 
ATOM     34  O   UNL     1       3.627  -1.780  -1.807  0.00  0.00    +0.000 OA
ENDBRANCH  24  34
ENDBRANCH  20  31
ENDBRANCH  19  22
ENDBRANCH   1  19
TORSDOF 8
