REMARK  Name = 
REMARK  4 active torsions:
REMARK  status: ('A' for Active; 'I' for Inactive)
REMARK    1  A    between atoms: C_2  and  C_4
REMARK    2  A    between atoms: N_8  and  C_9
REMARK    3  A    between atoms: C_9  and  C_10
REMARK    4  A    between atoms: C_14  and  C_15
REMARK                            x       y       z     vdW  Elec       q    Type
REMARK                         _______ _______ _______ _____ _____    ______ ____
ROOT
ATOM      1  C   UNL     1       5.079  -4.210  -4.337  0.00  0.00    +0.000 C 
ENDROOT
BRANCH   1   6
ATOM      2  C   UNL     1       3.068  -2.065  -8.594  0.00  0.00    +0.000 A 
ATOM      3  C   UNL     1       2.782  -3.276  -7.977  0.00  0.00    +0.000 A 
ATOM      4  C   UNL     1       3.487  -3.637  -6.826  0.00  0.00    +0.000 A 
ATOM      5  C   UNL     1       4.460  -2.785  -6.314  0.00  0.00    +0.000 A 
ATOM      6  N   UNL     1       5.140  -3.020  -5.152  0.00  0.00    +0.000 N 
ATOM      7  N   UNL     1       4.774  -1.629  -6.933  0.00  0.00    +0.000 NA
ATOM      8  C   UNL     1       4.085  -1.295  -8.055  0.00  0.00    +0.000 A 
ATOM      9  H   UNL     1       5.856  -2.330  -4.966  0.00  0.00    +0.000 HD
BRANCH   2  11
ATOM     10  N   UNL     1       1.053  -2.021  -9.945  0.00  0.00    +0.000 N 
ATOM     11  C   UNL     1       2.337  -1.580  -9.782  0.00  0.00    +0.000 C 
ATOM     12  O   UNL     1       2.842  -0.786 -10.566  0.00  0.00    +0.000 OA
ATOM     13  H   UNL     1       0.523  -1.601 -10.699  0.00  0.00    +0.000 HD
ATOM     14  H   UNL     1       0.531  -2.464  -9.201  0.00  0.00    +0.000 HD
ENDBRANCH   2  11
ENDBRANCH   1   6
BRANCH   1  15
ATOM     15  C   UNL     1       5.923  -5.331  -4.880  0.00  0.00    +0.000 A 
ATOM     16  C   UNL     1       5.517  -6.651  -4.728  0.00  0.00    +0.000 A 
ATOM     17  N   UNL     1       6.222  -7.713  -5.166  0.00  0.00    +0.000 NA
ATOM     18  C   UNL     1       7.400  -7.449  -5.786  0.00  0.00    +0.000 A 
ATOM     19  C   UNL     1       7.941  -6.176  -5.984  0.00  0.00    +0.000 A 
ATOM     20  C   UNL     1       7.166  -5.114  -5.492  0.00  0.00    +0.000 A 
BRANCH  19  21
ATOM     21  C   UNL     1       9.233  -5.954  -6.672  0.00  0.00    +0.000 A 
ATOM     22  C   UNL     1       9.467  -4.790  -7.434  0.00  0.00    +0.000 A 
ATOM     23  C   UNL     1      10.687  -4.565  -8.084  0.00  0.00    +0.000 A 
ATOM     24  C   UNL     1      11.701  -5.511  -7.999  0.00  0.00    +0.000 A 
ATOM     25  C   UNL     1      11.486  -6.666  -7.261  0.00  0.00    +0.000 A 
ATOM     26  F   UNL     1      12.458  -7.584  -7.180  0.00  0.00    +0.000 F 
ATOM     27  C   UNL     1      10.279  -6.890  -6.600  0.00  0.00    +0.000 A 
ENDBRANCH  19  21
ENDBRANCH   1  15
TORSDOF 4
