REMARK  Name = 
REMARK  7 active torsions:
REMARK  status: ('A' for Active; 'I' for Inactive)
REMARK    1  A    between atoms: C_1  and  C_2
REMARK    2  A    between atoms: C_2  and  C_3
REMARK    3  A    between atoms: C_2  and  C_14
REMARK    4  A    between atoms: C_3  and  N_4
REMARK    5  A    between atoms: N_4  and  C_5
REMARK    6  A    between atoms: C_8  and  C_9
REMARK    7  A    between atoms: C_18  and  C_19
REMARK                            x       y       z     vdW  Elec       q    Type
REMARK                         _______ _______ _______ _____ _____    ______ ____
ROOT
ATOM      1  C   UNL     1       2.975   1.098   1.121  0.00  0.00    +0.000 C 
ENDROOT
BRANCH   1   3
ATOM      2  C   UNL     1       0.891   0.019   0.048  0.00  0.00    +0.000 C 
ATOM      3  C   UNL     1       2.366  -0.048   0.352  0.00  0.00    +0.000 C 
BRANCH   3   4
ATOM      4  C   UNL     1       2.903  -1.415   0.596  0.00  0.00    +0.000 A 
ATOM      5  C   UNL     1       3.520  -1.747   1.811  0.00  0.00    +0.000 A 
ATOM      6  C   UNL     1       3.851  -3.068   2.116  0.00  0.00    +0.000 A 
ATOM      7  C   UNL     1       3.561  -4.084   1.212  0.00  0.00    +0.000 A 
ATOM      8  C   UNL     1       2.980  -3.780  -0.026  0.00  0.00    +0.000 A 
ATOM      9  C   UNL     1       2.695  -2.437  -0.341  0.00  0.00    +0.000 A 
BRANCH   8  10
ATOM     10  C   UNL     1       2.587  -4.879  -0.983  0.00  0.00    +0.000 C 
ATOM     11  F   UNL     1       2.804  -6.130  -0.488  0.00  0.00    +0.000 F 
ATOM     12  F   UNL     1       1.253  -4.837  -1.289  0.00  0.00    +0.000 F 
ATOM     13  F   UNL     1       3.245  -4.815  -2.164  0.00  0.00    +0.000 F 
ENDBRANCH   8  10
ENDBRANCH   3   4
ENDBRANCH   1   3
BRANCH   1  14
ATOM     14  N   UNL     1       2.847   2.353   0.392  0.00  0.00    +0.000 N 
ATOM     15  H   UNL     1       3.120   2.243  -0.586  0.00  0.00    +0.000 HD
BRANCH  14  16
ATOM     16  C   UNL     1       3.478   3.467   0.982  0.00  0.00    +0.000 A 
ATOM     17  C   UNL     1       3.541   3.675   2.364  0.00  0.00    +0.000 A 
ATOM     18  C   UNL     1       4.134   4.826   2.886  0.00  0.00    +0.000 A 
ATOM     19  C   UNL     1       4.629   5.771   2.000  0.00  0.00    +0.000 A 
ATOM     20  N   UNL     1       4.562   5.642   0.648  0.00  0.00    +0.000 NA
ATOM     21  C   UNL     1       3.973   4.507   0.190  0.00  0.00    +0.000 A 
BRANCH  19  22
ATOM     22  C   UNL     1       5.271   7.018   2.526  0.00  0.00    +0.000 C 
ATOM     23  N   UNL     1       5.736   7.881   1.574  0.00  0.00    +0.000 N 
ATOM     24  O   UNL     1       5.378   7.254   3.723  0.00  0.00    +0.000 OA
ATOM     25  H   UNL     1       5.624   7.650   0.593  0.00  0.00    +0.000 HD
ATOM     26  H   UNL     1       6.172   8.748   1.853  0.00  0.00    +0.000 HD
ENDBRANCH  19  22
ENDBRANCH  14  16
ENDBRANCH   1  14
TORSDOF 6
