REMARK  Name = 
REMARK  3 active torsions:
REMARK  status: ('A' for Active; 'I' for Inactive)
REMARK    1  A    between atoms: C_2  and  C_4
REMARK    2  A    between atoms: N_11  and  C_12
REMARK    3  A    between atoms: C_12  and  C_13
REMARK                            x       y       z     vdW  Elec       q    Type
REMARK                         _______ _______ _______ _____ _____    ______ ____
ROOT
ATOM      1  C   UNL     1       3.315   0.456   1.107  0.00  0.00    +0.000 A 
ATOM      2  C   UNL     1       2.921   0.141   2.403  0.00  0.00    +0.000 A 
ATOM      3  N   UNL     1       3.589   0.477   3.538  0.00  0.00    +0.000 NA
ATOM      4  C   UNL     1       4.702   1.202   3.302  0.00  0.00    +0.000 A 
ATOM      5  C   UNL     1       5.182   1.617   2.060  0.00  0.00    +0.000 A 
ATOM      6  C   UNL     1       6.358   2.376   2.297  0.00  0.00    +0.000 A 
ATOM      7  C   UNL     1       6.580   2.387   3.657  0.00  0.00    +0.000 A 
ATOM      8  N   UNL     1       5.574   1.666   4.259  0.00  0.00    +0.000 N 
ATOM      9  C   UNL     1       4.463   1.230   0.917  0.00  0.00    +0.000 A 
ENDROOT
BRANCH   1  11
ATOM     10  N   UNL     1       3.141  -0.231  -1.219  0.00  0.00    +0.000 N 
ATOM     11  C   UNL     1       2.502  -0.042  -0.023  0.00  0.00    +0.000 C 
ATOM     12  O   UNL     1       1.317  -0.317   0.112  0.00  0.00    +0.000 OA
ATOM     13  H   UNL     1       2.602  -0.674  -1.952  0.00  0.00    +0.000 HD
ATOM     14  H   UNL     1       4.147  -0.246  -1.305  0.00  0.00    +0.000 HD
ENDBRANCH   1  11
BRANCH   8  15
ATOM     15  C   UNL     1       5.487   1.379   5.685  0.00  0.00    +0.000 C 
BRANCH  15  16
ATOM     16  C   UNL     1       4.857   2.519   6.446  0.00  0.00    +0.000 A 
ATOM     17  C   UNL     1       3.496   2.821   6.275  0.00  0.00    +0.000 A 
ATOM     18  C   UNL     1       2.919   3.905   6.939  0.00  0.00    +0.000 A 
ATOM     19  C   UNL     1       3.695   4.688   7.789  0.00  0.00    +0.000 A 
ATOM     20 CL   UNL     1       2.994   6.045   8.580  0.00  0.00    +0.000 Cl
ATOM     21  C   UNL     1       5.039   4.384   7.996  0.00  0.00    +0.000 A 
ATOM     22  C   UNL     1       5.619   3.302   7.328  0.00  0.00    +0.000 A 
ENDBRANCH  15  16
ENDBRANCH   8  15
TORSDOF 3
