REMARK  Name = 
REMARK  9 active torsions:
REMARK  status: ('A' for Active; 'I' for Inactive)
REMARK    1  A    between atoms: C_1  and  O_2
REMARK    2  A    between atoms: O_2  and  C_3
REMARK    3  A    between atoms: C_6  and  C_7
REMARK    4  A    between atoms: C_7  and  N_8
REMARK    5  A    between atoms: N_8  and  C_9
REMARK    6  A    between atoms: C_12  and  C_13
REMARK    7  A    between atoms: C_21  and  C_22
REMARK    8  A    between atoms: C_25  and  C_26
REMARK    9  A    between atoms: C_26  and  O_27
REMARK                            x       y       z     vdW  Elec       q    Type
REMARK                         _______ _______ _______ _____ _____    ______ ____
ROOT
ATOM      1  C   UNL     1       2.933  -0.949   0.380  0.00  0.00    +0.000 A 
ATOM      2  C   UNL     1       2.658  -2.276   0.022  0.00  0.00    +0.000 A 
ATOM      3  C   UNL     1       3.505  -3.315   0.421  0.00  0.00    +0.000 A 
ATOM      4  C   UNL     1       4.679  -3.064   1.142  0.00  0.00    +0.000 A 
ATOM      5  C   UNL     1       4.965  -1.725   1.431  0.00  0.00    +0.000 A 
ATOM      6  C   UNL     1       4.086  -0.659   1.143  0.00  0.00    +0.000 A 
ENDROOT
BRANCH   6   7
ATOM      7  C   UNL     1       4.361   0.657   1.775  0.00  0.00    +0.000 A 
ATOM      8  C   UNL     1       4.132   1.884   1.137  0.00  0.00    +0.000 A 
ATOM      9  C   UNL     1       4.320   3.099   1.810  0.00  0.00    +0.000 A 
ATOM     10  C   UNL     1       4.773   3.121   3.134  0.00  0.00    +0.000 A 
ATOM     11  C   UNL     1       5.047   1.910   3.770  0.00  0.00    +0.000 A 
ATOM     12  C   UNL     1       4.832   0.704   3.104  0.00  0.00    +0.000 A 
BRANCH  10  13
ATOM     13  C   UNL     1       4.978   4.417   3.867  0.00  0.00    +0.000 C 
BRANCH  13  14
ATOM     14  O   UNL     1       4.170   4.458   5.039  0.00  0.00    +0.000 OA
ATOM     15  H   UNL     1       3.300   4.098   4.794  0.00  0.00    +0.000 HD
ENDBRANCH  13  14
ENDBRANCH  10  13
ENDBRANCH   6   7
BRANCH   4  16
ATOM     16  C   UNL     1       5.573  -4.182   1.664  0.00  0.00    +0.000 C 
ATOM     17  C   UNL     1       4.930  -5.108   2.688  0.00  0.00    +0.000 C 
ATOM     18  C   UNL     1       6.018  -4.183   3.119  0.00  0.00    +0.000 C 
BRANCH  16  19
ATOM     19  N   UNL     1       6.459  -4.777   0.645  0.00  0.00    +0.000 N 
ATOM     20  H   UNL     1       5.985  -5.166  -0.165  0.00  0.00    +0.000 HD
BRANCH  19  21
ATOM     21  C   UNL     1       7.732  -4.261   0.319  0.00  0.00    +0.000 A 
ATOM     22  C   UNL     1       8.372  -3.240   1.027  0.00  0.00    +0.000 A 
ATOM     23  C   UNL     1       9.681  -2.867   0.715  0.00  0.00    +0.000 A 
ATOM     24  C   UNL     1      10.338  -3.554  -0.295  0.00  0.00    +0.000 A 
ATOM     25  N   UNL     1       9.770  -4.567  -1.008  0.00  0.00    +0.000 NA
ATOM     26  C   UNL     1       8.497  -4.887  -0.672  0.00  0.00    +0.000 A 
BRANCH  24  27
ATOM     27  C   UNL     1      11.758  -3.220  -0.619  0.00  0.00    +0.000 C 
ATOM     28  N   UNL     1      12.329  -3.996  -1.591  0.00  0.00    +0.000 N 
ATOM     29  O   UNL     1      12.381  -2.334  -0.050  0.00  0.00    +0.000 OA
ATOM     30  H   UNL     1      11.787  -4.744  -2.010  0.00  0.00    +0.000 HD
ATOM     31  H   UNL     1      13.302  -3.865  -1.828  0.00  0.00    +0.000 HD
ENDBRANCH  24  27
ENDBRANCH  19  21
ENDBRANCH  16  19
ENDBRANCH   4  16
BRANCH   1  33
ATOM     32  C   UNL     1       1.021  -0.122  -0.809  0.00  0.00    +0.000 C 
ATOM     33  O   UNL     1       2.107   0.104   0.077  0.00  0.00    +0.000 OA
ENDBRANCH   1  33
TORSDOF 8
