REMARK  Name = 
REMARK  3 active torsions:
REMARK  status: ('A' for Active; 'I' for Inactive)
REMARK    1  A    between atoms: C_2  and  C_4
REMARK    2  A    between atoms: N_8  and  C_9
REMARK    3  A    between atoms: C_9  and  C_10
REMARK                            x       y       z     vdW  Elec       q    Type
REMARK                         _______ _______ _______ _____ _____    ______ ____
ROOT
ATOM      1  C   UNL     1       3.697   3.726   0.112  0.00  0.00    +0.000 A 
ATOM      2  C   UNL     1       2.915   3.772   1.263  0.00  0.00    +0.000 A 
ATOM      3  C   UNL     1       3.482   3.425   2.491  0.00  0.00    +0.000 A 
ATOM      4  C   UNL     1       4.813   3.028   2.546  0.00  0.00    +0.000 A 
ATOM      5  N   UNL     1       5.425   2.556   3.709  0.00  0.00    +0.000 N 
ATOM      6  N   UNL     1       5.580   2.980   1.436  0.00  0.00    +0.000 NA
ATOM      7  C   UNL     1       5.013   3.324   0.249  0.00  0.00    +0.000 A 
ATOM      8  H   UNL     1       6.400   2.401   3.455  0.00  0.00    +0.000 HD
ENDROOT
BRANCH   1  10
ATOM      9  N   UNL     1       2.084   4.864  -1.303  0.00  0.00    +0.000 N 
ATOM     10  C   UNL     1       3.172   4.038  -1.236  0.00  0.00    +0.000 C 
ATOM     11  O   UNL     1       3.699   3.595  -2.245  0.00  0.00    +0.000 OA
ATOM     12  H   UNL     1       1.778   5.135  -2.229  0.00  0.00    +0.000 HD
ATOM     13  H   UNL     1       1.782   5.435  -0.528  0.00  0.00    +0.000 HD
ENDBRANCH   1  10
BRANCH   5  14
ATOM     14  C   UNL     1       5.188   3.088   5.062  0.00  0.00    +0.000 C 
ATOM     15  C   UNL     1       5.070   2.013   6.138  0.00  0.00    +0.000 C 
ATOM     16  C   UNL     1       3.895   2.876   5.827  0.00  0.00    +0.000 C 
BRANCH  14  17
ATOM     17  C   UNL     1       6.004   4.335   5.374  0.00  0.00    +0.000 A 
ATOM     18  C   UNL     1       7.295   4.275   5.920  0.00  0.00    +0.000 A 
ATOM     19  C   UNL     1       8.035   5.437   6.138  0.00  0.00    +0.000 A 
ATOM     20  C   UNL     1       7.462   6.650   5.803  0.00  0.00    +0.000 A 
ATOM     21  N   UNL     1       6.220   6.772   5.292  0.00  0.00    +0.000 NA
ATOM     22  C   UNL     1       5.534   5.620   5.090  0.00  0.00    +0.000 A 
ENDBRANCH  14  17
ENDBRANCH   5  14
TORSDOF 3
