REMARK  Name = 
REMARK  8 active torsions:
REMARK  status: ('A' for Active; 'I' for Inactive)
REMARK    1  A    between atoms: C_1  and  O_2
REMARK    2  A    between atoms: O_2  and  C_3
REMARK    3  A    between atoms: C_5  and  O_6
REMARK    4  A    between atoms: O_6  and  C_7
REMARK    5  A    between atoms: C_10  and  C_11
REMARK    6  A    between atoms: C_11  and  N_12
REMARK    7  A    between atoms: C_13  and  C_15
REMARK    8  A    between atoms: C_29  and  C_30
REMARK                            x       y       z     vdW  Elec       q    Type
REMARK                         _______ _______ _______ _____ _____    ______ ____
ROOT
ATOM      1  C   UNL     1       6.037   3.099  -1.300  0.00  0.00    +0.000 A 
ATOM      2  C   UNL     1       5.146   3.277  -2.362  0.00  0.00    +0.000 A 
ATOM      3  C   UNL     1       5.507   2.895  -3.655  0.00  0.00    +0.000 A 
ATOM      4  C   UNL     1       6.786   2.385  -3.913  0.00  0.00    +0.000 A 
ATOM      5  C   UNL     1       7.713   2.321  -2.863  0.00  0.00    +0.000 A 
ATOM      6  C   UNL     1       7.336   2.664  -1.561  0.00  0.00    +0.000 A 
ENDROOT
BRANCH   1   7
ATOM      7  O   UNL     1       5.731   3.382   0.013  0.00  0.00    +0.000 OA
BRANCH   7  10
ATOM      8  C   UNL     1       2.354   1.946   0.572  0.00  0.00    +0.000 A 
ATOM      9  C   UNL     1       3.619   2.127   0.010  0.00  0.00    +0.000 A 
ATOM     10  C   UNL     1       4.469   3.119   0.492  0.00  0.00    +0.000 A 
ATOM     11  C   UNL     1       4.029   3.862   1.576  0.00  0.00    +0.000 A 
ATOM     12  N   UNL     1       2.812   3.722   2.151  0.00  0.00    +0.000 NA
ATOM     13  C   UNL     1       1.984   2.770   1.641  0.00  0.00    +0.000 A 
ATOM     14  C   UNL     1       0.647   2.629   2.309  0.00  0.00    +0.000 C 
BRANCH   8  16
ATOM     15  C   UNL     1       2.039  -0.116  -0.526  0.00  0.00    +0.000 C 
ATOM     16  O   UNL     1       1.456   1.012   0.126  0.00  0.00    +0.000 OA
ENDBRANCH   8  16
ENDBRANCH   7  10
ENDBRANCH   1   7
BRANCH   4  17
ATOM     17  C   UNL     1       7.173   1.946  -5.300  0.00  0.00    +0.000 C 
BRANCH  17  18
ATOM     18  N   UNL     1       7.710   3.040  -6.063  0.00  0.00    +0.000 N 
ATOM     19  C   UNL     1       8.052   2.879  -7.381  0.00  0.00    +0.000 C 
ATOM     20  O   UNL     1       7.876   1.818  -7.973  0.00  0.00    +0.000 OA
ATOM     21  H   UNL     1       8.075   3.833  -5.543  0.00  0.00    +0.000 HD
BRANCH  19  22
ATOM     22  C   UNL     1       8.579   4.063  -8.069  0.00  0.00    +0.000 A 
ATOM     23  C   UNL     1       8.485   4.153  -9.451  0.00  0.00    +0.000 A 
ATOM     24  S   UNL     1       9.086   5.617 -10.083  0.00  0.00    +0.000 S 
ATOM     25  C   UNL     1       9.553   6.152  -8.535  0.00  0.00    +0.000 A 
ATOM     26  N   UNL     1      10.155   7.360  -8.370  0.00  0.00    +0.000 NA
ATOM     27  C   UNL     1      10.475   7.633  -7.148  0.00  0.00    +0.000 A 
ATOM     28  N   UNL     1      10.238   6.811  -6.077  0.00  0.00    +0.000 N 
ATOM     29  C   UNL     1       9.598   5.601  -6.192  0.00  0.00    +0.000 A 
ATOM     30  O   UNL     1       9.357   4.908  -5.204  0.00  0.00    +0.000 OA
ATOM     31  C   UNL     1       9.230   5.239  -7.546  0.00  0.00    +0.000 A 
ATOM     32  H   UNL     1      10.504   7.089  -5.143  0.00  0.00    +0.000 HD
ENDBRANCH  19  22
ENDBRANCH  17  18
ENDBRANCH   4  17
TORSDOF 6
