REMARK  Name = 
REMARK  5 active torsions:
REMARK  status: ('A' for Active; 'I' for Inactive)
REMARK    1  A    between atoms: C_1  and  C_2
REMARK    2  A    between atoms: C_2  and  N_3
REMARK    3  A    between atoms: C_2  and  C_14
REMARK    4  A    between atoms: N_3  and  C_4
REMARK    5  A    between atoms: C_7  and  C_8
REMARK                            x       y       z     vdW  Elec       q    Type
REMARK                         _______ _______ _______ _____ _____    ______ ____
ROOT
ATOM      1  C   UNL     1       2.260   1.940   1.656  0.00  0.00    +0.000 A 
ATOM      2  N   UNL     1       2.310   2.773   0.592  0.00  0.00    +0.000 NA
ATOM      3  C   UNL     1       1.977   4.078   0.777  0.00  0.00    +0.000 A 
ATOM      4  C   UNL     1       1.575   4.617   1.988  0.00  0.00    +0.000 A 
ATOM      5  C   UNL     1       1.532   3.756   3.085  0.00  0.00    +0.000 A 
ATOM      6  C   UNL     1       1.901   2.418   2.926  0.00  0.00    +0.000 A 
ATOM      7 BR   UNL     1       1.850   1.290   4.451  0.00  0.00    +0.000 Br
ENDROOT
BRANCH   4   8
ATOM      8  C   UNL     1       1.183   6.034   2.170  0.00  0.00    +0.000 C 
ATOM      9  N   UNL     1       1.345   6.912   1.135  0.00  0.00    +0.000 N 
ATOM     10  O   UNL     1       0.730   6.432   3.238  0.00  0.00    +0.000 OA
ATOM     11  H   UNL     1       1.773   6.713   0.242  0.00  0.00    +0.000 HD
ATOM     12  H   UNL     1       1.087   7.878   1.319  0.00  0.00    +0.000 HD
ENDBRANCH   4   8
BRANCH   1  13
ATOM     13  N   UNL     1       2.579   0.583   1.480  0.00  0.00    +0.000 N 
ATOM     14  H   UNL     1       3.448   0.407   1.980  0.00  0.00    +0.000 HD
BRANCH  13  16
ATOM     15  C   UNL     1       1.104   0.018  -0.390  0.00  0.00    +0.000 C 
ATOM     16  C   UNL     1       2.558   0.051   0.110  0.00  0.00    +0.000 C 
BRANCH  16  17
ATOM     17  C   UNL     1       3.182  -1.380   0.040  0.00  0.00    +0.000 C 
ATOM     18  C   UNL     1       2.440  -2.436   0.883  0.00  0.00    +0.000 C 
ATOM     19  C   UNL     1       3.086  -3.818   0.776  0.00  0.00    +0.000 C 
ATOM     20  C   UNL     1       4.566  -3.775   1.134  0.00  0.00    +0.000 C 
ATOM     21  C   UNL     1       5.308  -2.768   0.263  0.00  0.00    +0.000 C 
ATOM     22  C   UNL     1       4.689  -1.374   0.367  0.00  0.00    +0.000 C 
ENDBRANCH  16  17
ENDBRANCH  13  16
ENDBRANCH   1  13
TORSDOF 4
