REMARK  Name = 
REMARK  8 active torsions:
REMARK  status: ('A' for Active; 'I' for Inactive)
REMARK    1  A    between atoms: C_2  and  C_20
REMARK    2  A    between atoms: N_3  and  C_4
REMARK    3  A    between atoms: C_4  and  C_5
REMARK    4  A    between atoms: C_8  and  C_9
REMARK    5  A    between atoms: C_9  and  C_10
REMARK    6  A    between atoms: C_10  and  O_11
REMARK    7  A    between atoms: C_10  and  C_12
REMARK    8  A    between atoms: C_12  and  N_13
REMARK                            x       y       z     vdW  Elec       q    Type
REMARK                         _______ _______ _______ _____ _____    ______ ____
ROOT
ATOM      1  C   UNL     1       2.146  -1.493   1.840  0.00  0.00    +0.000 C 
ENDROOT
BRANCH   1   2
ATOM      2  C   UNL     1       3.091  -2.193   2.783  0.00  0.00    +0.000 A 
ATOM      3  C   UNL     1       3.975  -1.460   3.588  0.00  0.00    +0.000 A 
ATOM      4  C   UNL     1       4.793  -2.103   4.527  0.00  0.00    +0.000 A 
ATOM      5  C   UNL     1       4.758  -3.497   4.667  0.00  0.00    +0.000 A 
ATOM      6  C   UNL     1       3.911  -4.231   3.824  0.00  0.00    +0.000 A 
ATOM      7  C   UNL     1       3.092  -3.588   2.888  0.00  0.00    +0.000 A 
BRANCH   5   8
ATOM      8  C   UNL     1       5.555  -4.197   5.755  0.00  0.00    +0.000 C 
BRANCH   8   9
ATOM      9  C   UNL     1       4.760  -4.312   7.074  0.00  0.00    +0.000 C 
BRANCH   9  10
ATOM     10  O   UNL     1       3.593  -5.119   6.854  0.00  0.00    +0.000 OA
ATOM     11  H   UNL     1       3.889  -6.020   6.650  0.00  0.00    +0.000 HD
ENDBRANCH   9  10
BRANCH   9  12
ATOM     12  C   UNL     1       5.608  -4.915   8.241  0.00  0.00    +0.000 C 
BRANCH  12  13
ATOM     13  N   UNL     1       4.846  -5.096   9.497  0.00  0.00    +0.000 NA
ATOM     14  C   UNL     1       4.385  -3.840  10.101  0.00  0.00    +0.000 C 
ATOM     15  C   UNL     1       5.487  -3.425  11.055  0.00  0.00    +0.000 C 
ATOM     16  C   UNL     1       5.992  -4.744  11.603  0.00  0.00    +0.000 C 
ATOM     17  C   UNL     1       5.608  -5.784  10.553  0.00  0.00    +0.000 C 
ENDBRANCH  12  13
ENDBRANCH   9  12
ENDBRANCH   8   9
ENDBRANCH   5   8
ENDBRANCH   1   2
BRANCH   1  20
ATOM     18  O   UNL     1       0.802  -0.417  -0.327  0.00  0.00    +0.000 OA
ATOM     19  C   UNL     1       1.989  -0.689  -0.458  0.00  0.00    +0.000 C 
ATOM     20  N   UNL     1       2.716  -1.303   0.531  0.00  0.00    +0.000 N 
ATOM     21  H   UNL     1       3.730  -1.327   0.469  0.00  0.00    +0.000 HD
BRANCH  19  22
ATOM     22  C   UNL     1       2.702  -0.391  -1.709  0.00  0.00    +0.000 A 
ATOM     23  C   UNL     1       2.002  -0.293  -2.903  0.00  0.00    +0.000 A 
ATOM     24  S   UNL     1       2.988   0.095  -4.241  0.00  0.00    +0.000 S 
ATOM     25  C   UNL     1       4.376   0.186  -3.260  0.00  0.00    +0.000 A 
ATOM     26  N   UNL     1       5.582   0.538  -3.782  0.00  0.00    +0.000 NA
ATOM     27  C   UNL     1       6.538   0.599  -2.918  0.00  0.00    +0.000 A 
ATOM     28  N   UNL     1       6.404   0.321  -1.580  0.00  0.00    +0.000 N 
ATOM     29  C   UNL     1       5.217  -0.081  -1.019  0.00  0.00    +0.000 A 
ATOM     30  O   UNL     1       5.151  -0.394   0.164  0.00  0.00    +0.000 OA
ATOM     31  C   UNL     1       4.099  -0.121  -1.940  0.00  0.00    +0.000 A 
ATOM     32  H   UNL     1       7.198   0.360  -0.962  0.00  0.00    +0.000 HD
ENDBRANCH  19  22
ENDBRANCH   1  20
TORSDOF 8
