REMARK  Name = 
REMARK  5 active torsions:
REMARK  status: ('A' for Active; 'I' for Inactive)
REMARK    1  A    between atoms: C_2  and  C_4
REMARK    2  A    between atoms: C_7  and  O_8
REMARK    3  A    between atoms: O_8  and  C_9
REMARK    4  A    between atoms: C_9  and  C_10
REMARK    5  A    between atoms: C_14  and  C_15
REMARK                            x       y       z     vdW  Elec       q    Type
REMARK                         _______ _______ _______ _____ _____    ______ ____
ROOT
ATOM      1  C   UNL     1       4.903   5.936  -1.058  0.00  0.00    +0.000 C 
ENDROOT
BRANCH   1   2
ATOM      2  C   UNL     1       5.742   7.110  -1.517  0.00  0.00    +0.000 A 
ATOM      3  C   UNL     1       5.264   8.422  -1.492  0.00  0.00    +0.000 A 
ATOM      4  C   UNL     1       6.094   9.474  -1.865  0.00  0.00    +0.000 A 
ATOM      5  C   UNL     1       7.421   9.228  -2.233  0.00  0.00    +0.000 A 
ATOM      6  C   UNL     1       7.961   7.930  -2.215  0.00  0.00    +0.000 A 
ATOM      7  C   UNL     1       7.086   6.882  -1.873  0.00  0.00    +0.000 A 
BRANCH   6   8
ATOM      8  C   UNL     1       9.408   7.688  -2.445  0.00  0.00    +0.000 A 
ATOM      9  C   UNL     1      10.366   8.617  -1.991  0.00  0.00    +0.000 A 
ATOM     10  C   UNL     1      11.740   8.383  -2.116  0.00  0.00    +0.000 A 
ATOM     11  C   UNL     1      12.197   7.204  -2.693  0.00  0.00    +0.000 A 
ATOM     12  C   UNL     1      11.278   6.272  -3.164  0.00  0.00    +0.000 A 
ATOM     13  C   UNL     1       9.907   6.519  -3.047  0.00  0.00    +0.000 A 
ATOM     14  F   UNL     1       9.071   5.585  -3.530  0.00  0.00    +0.000 F 
ENDBRANCH   6   8
ENDBRANCH   1   2
BRANCH   1  15
ATOM     15  O   UNL     1       3.502   6.205  -1.182  0.00  0.00    +0.000 OA
BRANCH  15  19
ATOM     16  C   UNL     1       1.155   3.099   0.158  0.00  0.00    +0.000 A 
ATOM     17  C   UNL     1       0.552   4.252  -0.350  0.00  0.00    +0.000 A 
ATOM     18  C   UNL     1       1.358   5.301  -0.796  0.00  0.00    +0.000 A 
ATOM     19  C   UNL     1       2.735   5.156  -0.717  0.00  0.00    +0.000 A 
ATOM     20  N   UNL     1       3.342   4.058  -0.216  0.00  0.00    +0.000 NA
ATOM     21  C   UNL     1       2.540   3.060   0.223  0.00  0.00    +0.000 A 
BRANCH  16  23
ATOM     22  N   UNL     1      -0.829   1.704   0.079  0.00  0.00    +0.000 N 
ATOM     23  C   UNL     1       0.397   1.923   0.637  0.00  0.00    +0.000 C 
ATOM     24  O   UNL     1       0.871   1.154   1.460  0.00  0.00    +0.000 OA
ATOM     25  H   UNL     1      -1.270   0.823   0.322  0.00  0.00    +0.000 HD
ATOM     26  H   UNL     1      -1.124   2.147  -0.777  0.00  0.00    +0.000 HD
ENDBRANCH  16  23
ENDBRANCH  15  19
ENDBRANCH   1  15
TORSDOF 5
