REMARK  Name = 
REMARK  5 active torsions:
REMARK  status: ('A' for Active; 'I' for Inactive)
REMARK    1  A    between atoms: N_1  and  C_2
REMARK    2  A    between atoms: C_2  and  C_3
REMARK    3  A    between atoms: C_3  and  C_4
REMARK    4  A    between atoms: C_7  and  C_8
REMARK    5  A    between atoms: C_8  and  N_9
REMARK                            x       y       z     vdW  Elec       q    Type
REMARK                         _______ _______ _______ _____ _____    ______ ____
ROOT
ATOM      1  C   UNL     1       4.636   1.141  -0.989  0.00  0.00    +0.000 A 
ATOM      2  C   UNL     1       5.413   1.297  -2.145  0.00  0.00    +0.000 A 
ATOM      3  C   UNL     1       6.808   1.359  -2.056  0.00  0.00    +0.000 A 
ATOM      4  C   UNL     1       7.453   1.273  -0.810  0.00  0.00    +0.000 A 
ATOM      5  C   UNL     1       6.678   1.128   0.338  0.00  0.00    +0.000 A 
ATOM      6  C   UNL     1       5.276   1.050   0.248  0.00  0.00    +0.000 A 
ENDROOT
BRANCH   1   7
ATOM      7  C   UNL     1       3.120   1.072  -1.080  0.00  0.00    +0.000 C 
BRANCH   7   8
ATOM      8  C   UNL     1       2.583  -0.341  -1.292  0.00  0.00    +0.000 C 
BRANCH   8   9
ATOM      9  N   UNL     1       1.118  -0.338  -1.340  0.00  0.00    +0.000 NA
ATOM     10  H   UNL     1       0.780  -1.285  -1.503  0.00  0.00    +0.000 HD
ATOM     11  H   UNL     1       0.802   0.219  -2.134  0.00  0.00    +0.000 HD
ENDBRANCH   8   9
ENDBRANCH   7   8
ENDBRANCH   1   7
BRANCH   4  12
ATOM     12  C   UNL     1       8.969   1.288  -0.730  0.00  0.00    +0.000 C 
BRANCH  12  13
ATOM     13  N   UNL     1       9.533   2.622  -0.532  0.00  0.00    +0.000 N 
ATOM     14  C   UNL     1       9.507   3.618  -1.479  0.00  0.00    +0.000 A 
ATOM     15  C   UNL     1      10.138   4.721  -0.950  0.00  0.00    +0.000 A 
ATOM     16  C   UNL     1      10.950   4.225   0.096  0.00  0.00    +0.000 A 
ATOM     17  C   UNL     1      12.109   4.703   0.737  0.00  0.00    +0.000 A 
ATOM     18  C   UNL     1      12.666   3.940   1.761  0.00  0.00    +0.000 A 
ATOM     19 CL   UNL     1      14.210   4.369   2.393  0.00  0.00    +0.000 Cl
ATOM     20  C   UNL     1      12.012   2.811   2.250  0.00  0.00    +0.000 A 
ATOM     21  C   UNL     1      10.862   2.319   1.625  0.00  0.00    +0.000 A 
ATOM     22  C   UNL     1      10.421   2.985   0.471  0.00  0.00    +0.000 A 
ENDBRANCH  12  13
ENDBRANCH   4  12
TORSDOF 5
