REMARK  Name = 
REMARK  4 active torsions:
REMARK  status: ('A' for Active; 'I' for Inactive)
REMARK    1  A    between atoms: C_2  and  C_5
REMARK    2  A    between atoms: N_10  and  C_11
REMARK    3  A    between atoms: C_11  and  C_12
REMARK    4  A    between atoms: C_16  and  C_17
REMARK                            x       y       z     vdW  Elec       q    Type
REMARK                         _______ _______ _______ _____ _____    ______ ____
ROOT
ATOM      1  C   UNL     1       2.152  -5.979  -0.305  0.00  0.00    +0.000 C 
ENDROOT
BRANCH   1   7
ATOM      2  C   UNL     1       2.213  -3.187  -4.038  0.00  0.00    +0.000 A 
ATOM      3  C   UNL     1       3.556  -2.897  -3.886  0.00  0.00    +0.000 A 
ATOM      4  C   UNL     1       4.216  -3.609  -2.917  0.00  0.00    +0.000 A 
ATOM      5  N   UNL     1       3.625  -4.541  -2.150  0.00  0.00    +0.000 NA
ATOM      6  C   UNL     1       2.325  -4.779  -2.361  0.00  0.00    +0.000 A 
ATOM      7  N   UNL     1       1.660  -5.759  -1.645  0.00  0.00    +0.000 N 
ATOM      8  N   UNL     1       1.593  -4.123  -3.268  0.00  0.00    +0.000 NA
ATOM      9  H   UNL     1       0.668  -5.577  -1.728  0.00  0.00    +0.000 HD
BRANCH   2  11
ATOM     10  F   UNL     1       2.136  -1.566  -5.820  0.00  0.00    +0.000 F 
ATOM     11  C   UNL     1       1.397  -2.455  -5.090  0.00  0.00    +0.000 C 
ATOM     12  F   UNL     1       0.376  -1.725  -4.559  0.00  0.00    +0.000 F 
ATOM     13  F   UNL     1       0.830  -3.290  -6.006  0.00  0.00    +0.000 F 
ENDBRANCH   2  11
ENDBRANCH   1   7
BRANCH   1  14
ATOM     14  C   UNL     1       1.353  -7.081   0.349  0.00  0.00    +0.000 A 
ATOM     15  C   UNL     1       0.219  -6.808   1.113  0.00  0.00    +0.000 A 
ATOM     16  C   UNL     1      -0.444  -7.870   1.705  0.00  0.00    +0.000 A 
ATOM     17  N   UNL     1      -0.062  -9.161   1.590  0.00  0.00    +0.000 NA
ATOM     18  C   UNL     1       1.025  -9.436   0.825  0.00  0.00    +0.000 A 
ATOM     19  C   UNL     1       1.742  -8.419   0.193  0.00  0.00    +0.000 A 
BRANCH  18  20
ATOM     20  C   UNL     1       1.425 -10.858   0.743  0.00  0.00    +0.000 A 
ATOM     21  C   UNL     1       2.062 -11.389  -0.394  0.00  0.00    +0.000 A 
ATOM     22  C   UNL     1       2.479 -12.724  -0.443  0.00  0.00    +0.000 A 
ATOM     23  C   UNL     1       2.257 -13.563   0.644  0.00  0.00    +0.000 A 
ATOM     24  C   UNL     1       1.609 -13.072   1.773  0.00  0.00    +0.000 A 
ATOM     25  C   UNL     1       1.196 -11.736   1.819  0.00  0.00    +0.000 A 
ENDBRANCH  18  20
ENDBRANCH   1  14
TORSDOF 4
