REMARK  Name = 
REMARK  4 active torsions:
REMARK  status: ('A' for Active; 'I' for Inactive)
REMARK    1  A    between atoms: C_2  and  C_3
REMARK    2  A    between atoms: N_7  and  C_8
REMARK    3  A    between atoms: C_8  and  C_9
REMARK    4  A    between atoms: C_11  and  C_12
REMARK                            x       y       z     vdW  Elec       q    Type
REMARK                         _______ _______ _______ _____ _____    ______ ____
ROOT
ATOM      1  C   UNL     1      -5.896   1.108  -0.259  0.00  0.00    +0.000 A 
ATOM      2  C   UNL     1      -6.411  -0.191  -0.293  0.00  0.00    +0.000 A 
ATOM      3  C   UNL     1      -7.795  -0.402  -0.378  0.00  0.00    +0.000 A 
ATOM      4  C   UNL     1      -8.604   0.740  -0.436  0.00  0.00    +0.000 A 
ATOM      5  C   UNL     1      -8.017   1.996  -0.411  0.00  0.00    +0.000 A 
ATOM      6  N   UNL     1      -6.689   2.205  -0.320  0.00  0.00    +0.000 NA
ENDROOT
BRANCH   3   7
ATOM      7  C   UNL     1      -8.368  -1.764  -0.399  0.00  0.00    +0.000 A 
ATOM      8  C   UNL     1      -9.534  -2.077  -1.113  0.00  0.00    +0.000 A 
ATOM      9  C   UNL     1     -10.045  -3.375  -1.112  0.00  0.00    +0.000 A 
ATOM     10  C   UNL     1      -9.368  -4.347  -0.399  0.00  0.00    +0.000 A 
ATOM     11  N   UNL     1      -8.246  -4.106   0.306  0.00  0.00    +0.000 NA
ATOM     12  C   UNL     1      -7.783  -2.831   0.291  0.00  0.00    +0.000 A 
ENDBRANCH   3   7
BRANCH   1  13
ATOM     13  C   UNL     1      -4.404   1.327  -0.125  0.00  0.00    +0.000 C 
BRANCH  13  18
ATOM     14  C   UNL     1      -2.573   2.710  -4.744  0.00  0.00    +0.000 A 
ATOM     15  C   UNL     1      -3.387   3.402  -3.856  0.00  0.00    +0.000 A 
ATOM     16  C   UNL     1      -3.778   2.782  -2.669  0.00  0.00    +0.000 A 
ATOM     17  C   UNL     1      -3.360   1.485  -2.395  0.00  0.00    +0.000 A 
ATOM     18  N   UNL     1      -3.673   0.803  -1.257  0.00  0.00    +0.000 N 
ATOM     19  N   UNL     1      -2.574   0.805  -3.257  0.00  0.00    +0.000 NA
ATOM     20  C   UNL     1      -2.193   1.426  -4.401  0.00  0.00    +0.000 A 
ATOM     21  H   UNL     1      -3.356  -0.156  -1.253  0.00  0.00    +0.000 HD
BRANCH  14  23
ATOM     22  N   UNL     1      -1.797   3.776  -6.970  0.00  0.00    +0.000 NA
ATOM     23  C   UNL     1      -2.144   3.296  -5.971  0.00  0.00    +0.000 C 
ENDBRANCH  14  23
ENDBRANCH  13  18
ENDBRANCH   1  13
TORSDOF 4
