REMARK  Name = 
REMARK  6 active torsions:
REMARK  status: ('A' for Active; 'I' for Inactive)
REMARK    1  A    between atoms: C_2  and  C_21
REMARK    2  A    between atoms: N_3  and  C_4
REMARK    3  A    between atoms: C_4  and  C_5
REMARK    4  A    between atoms: C_8  and  C_9
REMARK    5  A    between atoms: C_9  and  N_10
REMARK    6  A    between atoms: C_11  and  C_13
REMARK                            x       y       z     vdW  Elec       q    Type
REMARK                         _______ _______ _______ _____ _____    ______ ____
ROOT
ATOM      1  C   UNL     1       0.532 -10.260  -0.233  0.00  0.00    +0.000 C 
ATOM      2  C   UNL     1       1.873  -9.808  -0.841  0.00  0.00    +0.000 C 
ATOM      3  C   UNL     1       1.723  -8.600  -1.764  0.00  0.00    +0.000 C 
ATOM      4  C   UNL     1       1.044  -7.409  -1.069  0.00  0.00    +0.000 C 
ATOM      5  C   UNL     1      -0.299  -7.852  -0.457  0.00  0.00    +0.000 C 
ATOM      6  C   UNL     1      -0.169  -9.077   0.453  0.00  0.00    +0.000 C 
ENDROOT
BRANCH   1   7
ATOM      7  C   UNL     1      -0.409 -10.905  -1.267  0.00  0.00    +0.000 C 
BRANCH   7  10
ATOM      8  O   UNL     1      -0.394 -13.529  -0.224  0.00  0.00    +0.000 OA
ATOM      9  C   UNL     1       0.105 -13.325  -1.327  0.00  0.00    +0.000 C 
ATOM     10  N   UNL     1       0.165 -12.075  -1.885  0.00  0.00    +0.000 N 
ATOM     11  H   UNL     1       0.514 -11.963  -2.831  0.00  0.00    +0.000 HD
BRANCH   9  12
ATOM     12  C   UNL     1       0.710 -14.409  -2.111  0.00  0.00    +0.000 A 
ATOM     13  C   UNL     1       1.083 -15.588  -1.481  0.00  0.00    +0.000 A 
ATOM     14  S   UNL     1       1.765 -16.740  -2.536  0.00  0.00    +0.000 S 
ATOM     15  C   UNL     1       1.552 -15.718  -3.880  0.00  0.00    +0.000 A 
ATOM     16  N   UNL     1       1.907 -16.120  -5.128  0.00  0.00    +0.000 NA
ATOM     17  C   UNL     1       1.652 -15.267  -6.060  0.00  0.00    +0.000 A 
ATOM     18  N   UNL     1       1.086 -14.034  -5.857  0.00  0.00    +0.000 N 
ATOM     19  C   UNL     1       0.780 -13.555  -4.605  0.00  0.00    +0.000 A 
ATOM     20  O   UNL     1       0.401 -12.397  -4.451  0.00  0.00    +0.000 OA
ATOM     21  C   UNL     1       0.997 -14.501  -3.526  0.00  0.00    +0.000 A 
ATOM     22  H   UNL     1       0.948 -13.396  -6.625  0.00  0.00    +0.000 HD
ENDBRANCH   9  12
ENDBRANCH   7  10
ENDBRANCH   1   7
BRANCH   4  23
ATOM     23  C   UNL     1       1.923  -6.739   0.001  0.00  0.00    +0.000 C 
BRANCH  23  24
ATOM     24  N   UNL     1       3.149  -6.173  -0.534  0.00  0.00    +0.000 N 
ATOM     25  C   UNL     1       3.722  -5.068   0.072  0.00  0.00    +0.000 C 
ATOM     26  O   UNL     1       3.167  -4.468   0.989  0.00  0.00    +0.000 OA
ATOM     27  H   UNL     1       3.762  -6.772  -1.064  0.00  0.00    +0.000 HD
BRANCH  25  28
ATOM     28  C   UNL     1       5.065  -4.602  -0.549  0.00  0.00    +0.000 C 
ATOM     29  C   UNL     1       5.631  -3.376   0.182  0.00  0.00    +0.000 C 
ATOM     30  C   UNL     1       6.173  -3.729   1.567  0.00  0.00    +0.000 C 
ATOM     31  C   UNL     1       7.147  -4.897   1.486  0.00  0.00    +0.000 C 
ATOM     32  C   UNL     1       6.560  -6.076   0.712  0.00  0.00    +0.000 C 
ATOM     33  N   UNL     1       6.079  -5.678  -0.609  0.00  0.00    +0.000 NA
ATOM     34  H   UNL     1       5.746  -6.482  -1.129  0.00  0.00    +0.000 HD
ENDBRANCH  25  28
ENDBRANCH  23  24
ENDBRANCH   4  23
TORSDOF 6
