REMARK  Name = 
REMARK  5 active torsions:
REMARK  status: ('A' for Active; 'I' for Inactive)
REMARK    1  A    between atoms: C_2  and  C_18
REMARK    2  A    between atoms: N_3  and  C_4
REMARK    3  A    between atoms: C_4  and  C_5
REMARK    4  A    between atoms: C_8  and  C_9
REMARK    5  A    between atoms: C_9  and  C_10
REMARK                            x       y       z     vdW  Elec       q    Type
REMARK                         _______ _______ _______ _____ _____    ______ ____
ROOT
ATOM      1  O   UNL     1       3.683   0.294   0.739  0.00  0.00    +0.000 OA
ATOM      2  C   UNL     1       3.498  -0.531  -0.152  0.00  0.00    +0.000 C 
ATOM      3  N   UNL     1       2.791  -1.686   0.053  0.00  0.00    +0.000 N 
ATOM      4  H   UNL     1       2.781  -2.404  -0.664  0.00  0.00    +0.000 HD
ENDROOT
BRANCH   2   5
ATOM      5  C   UNL     1       3.994  -0.301  -1.515  0.00  0.00    +0.000 A 
ATOM      6  C   UNL     1       4.298   0.989  -1.929  0.00  0.00    +0.000 A 
ATOM      7  S   UNL     1       4.893   1.075  -3.524  0.00  0.00    +0.000 S 
ATOM      8  C   UNL     1       4.802  -0.614  -3.708  0.00  0.00    +0.000 A 
ATOM      9  N   UNL     1       5.222  -1.215  -4.854  0.00  0.00    +0.000 NA
ATOM     10  C   UNL     1       5.136  -2.503  -4.842  0.00  0.00    +0.000 A 
ATOM     11  N   UNL     1       4.645  -3.243  -3.798  0.00  0.00    +0.000 N 
ATOM     12  C   UNL     1       4.127  -2.674  -2.659  0.00  0.00    +0.000 A 
ATOM     13  O   UNL     1       3.552  -3.353  -1.815  0.00  0.00    +0.000 OA
ATOM     14  C   UNL     1       4.274  -1.230  -2.586  0.00  0.00    +0.000 A 
ATOM     15  H   UNL     1       4.562  -4.246  -3.871  0.00  0.00    +0.000 HD
ENDBRANCH   2   5
BRANCH   3  16
ATOM     16  C   UNL     1       2.280  -2.066   1.345  0.00  0.00    +0.000 C 
BRANCH  16  17
ATOM     17  C   UNL     1       3.205  -3.022   2.053  0.00  0.00    +0.000 A 
ATOM     18  C   UNL     1       4.260  -2.536   2.835  0.00  0.00    +0.000 A 
ATOM     19  C   UNL     1       5.092  -3.415   3.534  0.00  0.00    +0.000 A 
ATOM     20  C   UNL     1       4.895  -4.800   3.455  0.00  0.00    +0.000 A 
ATOM     21  C   UNL     1       3.858  -5.287   2.648  0.00  0.00    +0.000 A 
ATOM     22  C   UNL     1       3.028  -4.407   1.945  0.00  0.00    +0.000 A 
BRANCH  20  23
ATOM     23  C   UNL     1       5.793  -5.749   4.213  0.00  0.00    +0.000 C 
BRANCH  23  24
ATOM     24  C   UNL     1       5.332  -6.098   5.603  0.00  0.00    +0.000 A 
ATOM     25  C   UNL     1       5.725  -5.352   6.718  0.00  0.00    +0.000 A 
ATOM     26  C   UNL     1       5.332  -5.750   7.994  0.00  0.00    +0.000 A 
ATOM     27  C   UNL     1       4.545  -6.883   8.114  0.00  0.00    +0.000 A 
ATOM     28  N   UNL     1       4.123  -7.615   7.064  0.00  0.00    +0.000 NA
ATOM     29  C   UNL     1       4.519  -7.204   5.837  0.00  0.00    +0.000 A 
ENDBRANCH  23  24
ENDBRANCH  20  23
ENDBRANCH  16  17
ENDBRANCH   3  16
TORSDOF 5
