REMARK  Name = 
REMARK  11 active torsions:
REMARK  status: ('A' for Active; 'I' for Inactive)
REMARK    1  A    between atoms: C_1  and  O_2
REMARK    2  A    between atoms: O_2  and  C_3
REMARK    3  A    between atoms: C_10  and  C_11
REMARK    4  A    between atoms: N_13  and  C_14
REMARK    5  A    between atoms: C_14  and  C_15
REMARK    6  A    between atoms: C_18  and  O_19
REMARK    7  A    between atoms: O_19  and  C_20
REMARK    8  A    between atoms: C_20  and  C_21
REMARK    9  A    between atoms: C_21  and  C_22
REMARK   10  A    between atoms: C_25  and  C_26
REMARK   11  A    between atoms: C_26  and  O_28
REMARK                            x       y       z     vdW  Elec       q    Type
REMARK                         _______ _______ _______ _____ _____    ______ ____
ROOT
ATOM      1  C   UNL     1       1.657  -1.397  -3.029  0.00  0.00    +0.000 A 
ATOM      2  C   UNL     1       1.742  -2.795  -3.020  0.00  0.00    +0.000 A 
ATOM      3  C   UNL     1       0.630  -3.581  -2.686  0.00  0.00    +0.000 A 
ATOM      4  C   UNL     1      -0.589  -2.984  -2.359  0.00  0.00    +0.000 A 
ATOM      5  C   UNL     1      -0.694  -1.593  -2.420  0.00  0.00    +0.000 A 
ATOM      6  C   UNL     1       0.418  -0.805  -2.750  0.00  0.00    +0.000 A 
ENDROOT
BRANCH   1   7
ATOM      7  C   UNL     1       2.867  -0.556  -3.354  0.00  0.00    +0.000 C 
BRANCH   7  10
ATOM      8  C   UNL     1       4.036   0.374  -5.308  0.00  0.00    +0.000 C 
ATOM      9  O   UNL     1       4.914   0.852  -4.598  0.00  0.00    +0.000 OA
ATOM     10  N   UNL     1       2.989  -0.329  -4.775  0.00  0.00    +0.000 N 
ATOM     11  H   UNL     1       2.240  -0.651  -5.365  0.00  0.00    +0.000 HD
BRANCH   8  19
ATOM     12  C   UNL     1       1.980  -0.718  -7.857  0.00  0.00    +0.000 A 
ATOM     13  N   UNL     1       1.420  -1.082  -9.029  0.00  0.00    +0.000 NA
ATOM     14  C   UNL     1       2.018  -0.705 -10.160  0.00  0.00    +0.000 A 
ATOM     15  N   UNL     1       3.131   0.012 -10.274  0.00  0.00    +0.000 NA
ATOM     16  C   UNL     1       3.668   0.341  -9.087  0.00  0.00    +0.000 A 
ATOM     17  S   UNL     1       5.088   1.270  -9.044  0.00  0.00    +0.000 S 
ATOM     18  C   UNL     1       5.120   1.232  -7.346  0.00  0.00    +0.000 A 
ATOM     19  C   UNL     1       4.073   0.518  -6.777  0.00  0.00    +0.000 A 
ATOM     20  C   UNL     1       3.183   0.011  -7.823  0.00  0.00    +0.000 A 
BRANCH  12  22
ATOM     21  C   UNL     1       0.083  -1.723  -6.908  0.00  0.00    +0.000 C 
ATOM     22  O   UNL     1       1.327  -1.059  -6.689  0.00  0.00    +0.000 OA
ENDBRANCH  12  22
ENDBRANCH   8  19
ENDBRANCH   7  10
ENDBRANCH   1   7
BRANCH   4  23
ATOM     23  O   UNL     1      -1.730  -3.667  -2.010  0.00  0.00    +0.000 OA
BRANCH  23  24
ATOM     24  C   UNL     1      -1.507  -4.913  -1.330  0.00  0.00    +0.000 C 
BRANCH  24  25
ATOM     25  C   UNL     1      -2.845  -5.560  -0.952  0.00  0.00    +0.000 C 
BRANCH  25  26
ATOM     26  C   UNL     1      -2.661  -6.888  -0.245  0.00  0.00    +0.000 A 
ATOM     27  C   UNL     1      -2.548  -6.953   1.152  0.00  0.00    +0.000 A 
ATOM     28  C   UNL     1      -2.389  -8.185   1.806  0.00  0.00    +0.000 A 
ATOM     29  C   UNL     1      -2.322  -9.370   1.062  0.00  0.00    +0.000 A 
ATOM     30  C   UNL     1      -2.434  -9.309  -0.331  0.00  0.00    +0.000 A 
ATOM     31  C   UNL     1      -2.596  -8.079  -0.980  0.00  0.00    +0.000 A 
BRANCH  29  32
ATOM     32  C   UNL     1      -2.202 -10.715   1.689  0.00  0.00    +0.000 C 
ATOM     33  O   UNL     1      -2.645 -11.724   1.167  0.00  0.00    +0.000 OA
BRANCH  32  34
ATOM     34  O   UNL     1      -1.528 -10.737   2.859  0.00  0.00    +0.000 OA
ATOM     35  H   UNL     1      -1.083  -9.908   3.106  0.00  0.00    +0.000 HD
ENDBRANCH  32  34
ENDBRANCH  29  32
ENDBRANCH  25  26
ENDBRANCH  24  25
ENDBRANCH  23  24
ENDBRANCH   4  23
TORSDOF 10
