REMARK  Name = 
REMARK  7 active torsions:
REMARK  status: ('A' for Active; 'I' for Inactive)
REMARK    1  A    between atoms: C_2  and  C_20
REMARK    2  A    between atoms: N_3  and  C_4
REMARK    3  A    between atoms: C_4  and  C_5
REMARK    4  A    between atoms: C_9  and  C_10
REMARK    5  A    between atoms: C_10  and  N_11
REMARK    6  A    between atoms: N_11  and  C_12
REMARK    7  A    between atoms: C_12  and  C_13
REMARK                            x       y       z     vdW  Elec       q    Type
REMARK                         _______ _______ _______ _____ _____    ______ ____
ROOT
ATOM      1  C   UNL     1       2.256   1.094   2.146  0.00  0.00    +0.000 C 
ENDROOT
BRANCH   1   2
ATOM      2  C   UNL     1       3.183   1.618   3.210  0.00  0.00    +0.000 A 
ATOM      3  C   UNL     1       3.346   2.999   3.382  0.00  0.00    +0.000 A 
ATOM      4  C   UNL     1       4.142   3.493   4.413  0.00  0.00    +0.000 A 
ATOM      5  C   UNL     1       4.777   2.612   5.287  0.00  0.00    +0.000 A 
ATOM      6  C   UNL     1       4.634   1.224   5.133  0.00  0.00    +0.000 A 
ATOM      7  C   UNL     1       3.863   0.738   4.066  0.00  0.00    +0.000 A 
BRANCH   6   8
ATOM      8  C   UNL     1       5.228   0.277   6.152  0.00  0.00    +0.000 C 
BRANCH   8   9
ATOM      9  N   UNL     1       4.614   0.511   7.457  0.00  0.00    +0.000 NA
ATOM     10  H   UNL     1       3.604   0.408   7.375  0.00  0.00    +0.000 HD
BRANCH   9  11
ATOM     11  C   UNL     1       5.107  -0.397   8.484  0.00  0.00    +0.000 C 
BRANCH  11  12
ATOM     12  C   UNL     1       4.476  -0.087   9.825  0.00  0.00    +0.000 A 
ATOM     13  C   UNL     1       3.729  -1.052  10.515  0.00  0.00    +0.000 A 
ATOM     14  C   UNL     1       3.188  -0.765  11.773  0.00  0.00    +0.000 A 
ATOM     15  C   UNL     1       3.384   0.489  12.350  0.00  0.00    +0.000 A 
ATOM     16  C   UNL     1       4.109   1.462  11.667  0.00  0.00    +0.000 A 
ATOM     17  C   UNL     1       4.651   1.176  10.413  0.00  0.00    +0.000 A 
ENDBRANCH  11  12
ENDBRANCH   9  11
ENDBRANCH   8   9
ENDBRANCH   6   8
ENDBRANCH   1   2
BRANCH   1  20
ATOM     18  O   UNL     1       2.183   3.012   0.096  0.00  0.00    +0.000 OA
ATOM     19  C   UNL     1       2.840   1.988  -0.070  0.00  0.00    +0.000 C 
ATOM     20  N   UNL     1       2.902   0.989   0.866  0.00  0.00    +0.000 N 
ATOM     21  H   UNL     1       3.588   0.249   0.764  0.00  0.00    +0.000 HD
BRANCH  19  22
ATOM     22  C   UNL     1       3.562   1.742  -1.323  0.00  0.00    +0.000 A 
ATOM     23  C   UNL     1       3.149   2.372  -2.490  0.00  0.00    +0.000 A 
ATOM     24  S   UNL     1       4.113   1.994  -3.845  0.00  0.00    +0.000 S 
ATOM     25  C   UNL     1       5.134   1.003  -2.910  0.00  0.00    +0.000 A 
ATOM     26  N   UNL     1       6.216   0.393  -3.465  0.00  0.00    +0.000 NA
ATOM     27  C   UNL     1       6.920  -0.301  -2.631  0.00  0.00    +0.000 A 
ATOM     28  N   UNL     1       6.631  -0.453  -1.301  0.00  0.00    +0.000 N 
ATOM     29  C   UNL     1       5.505   0.075  -0.717  0.00  0.00    +0.000 A 
ATOM     30  O   UNL     1       5.190  -0.212   0.432  0.00  0.00    +0.000 OA
ATOM     31  C   UNL     1       4.717   0.924  -1.595  0.00  0.00    +0.000 A 
ATOM     32  H   UNL     1       7.197  -1.046  -0.715  0.00  0.00    +0.000 HD
ENDBRANCH  19  22
ENDBRANCH   1  20
TORSDOF 7
