REMARK  Name = 
REMARK  6 active torsions:
REMARK  status: ('A' for Active; 'I' for Inactive)
REMARK    1  A    between atoms: C_1  and  C_2
REMARK    2  A    between atoms: C_2  and  C_3
REMARK    3  A    between atoms: C_2  and  C_14
REMARK    4  A    between atoms: C_3  and  N_4
REMARK    5  A    between atoms: N_4  and  C_5
REMARK    6  A    between atoms: C_8  and  C_9
REMARK                            x       y       z     vdW  Elec       q    Type
REMARK                         _______ _______ _______ _____ _____    ______ ____
ROOT
ATOM      1  N   UNL     1       2.679   0.417   2.370  0.00  0.00    +0.000 N 
ATOM      2  H   UNL     1       1.670   0.554   2.389  0.00  0.00    +0.000 HD
ENDROOT
BRANCH   1   3
ATOM      3  C   UNL     1       3.181   0.185   3.657  0.00  0.00    +0.000 A 
ATOM      4  C   UNL     1       2.441   0.606   4.767  0.00  0.00    +0.000 A 
ATOM      5  C   UNL     1       2.933   0.420   6.059  0.00  0.00    +0.000 A 
ATOM      6  C   UNL     1       4.186  -0.155   6.203  0.00  0.00    +0.000 A 
ATOM      7  N   UNL     1       4.973  -0.531   5.158  0.00  0.00    +0.000 NA
ATOM      8  C   UNL     1       4.453  -0.330   3.924  0.00  0.00    +0.000 A 
BRANCH   6   9
ATOM      9  C   UNL     1       4.746  -0.399   7.570  0.00  0.00    +0.000 C 
ATOM     10  N   UNL     1       5.987  -0.975   7.595  0.00  0.00    +0.000 N 
ATOM     11  O   UNL     1       4.143  -0.113   8.596  0.00  0.00    +0.000 OA
ATOM     12  H   UNL     1       6.448  -1.195   6.719  0.00  0.00    +0.000 HD
ATOM     13  H   UNL     1       6.431  -1.178   8.478  0.00  0.00    +0.000 HD
ENDBRANCH   6   9
ENDBRANCH   1   3
BRANCH   1  14
ATOM     14  C   UNL     1       3.055  -0.529   1.323  0.00  0.00    +0.000 C 
BRANCH  14  16
ATOM     15  C   UNL     1       2.674   1.078  -0.642  0.00  0.00    +0.000 C 
ATOM     16  C   UNL     1       2.274  -0.160   0.098  0.00  0.00    +0.000 C 
BRANCH  16  17
ATOM     17  C   UNL     1       0.914  -0.698  -0.064  0.00  0.00    +0.000 A 
ATOM     18  C   UNL     1       0.675  -2.077  -0.068  0.00  0.00    +0.000 A 
ATOM     19  C   UNL     1      -0.629  -2.568  -0.186  0.00  0.00    +0.000 A 
ATOM     20  C   UNL     1      -1.702  -1.685  -0.290  0.00  0.00    +0.000 A 
ATOM     21  C   UNL     1      -1.474  -0.313  -0.292  0.00  0.00    +0.000 A 
ATOM     22  C   UNL     1      -0.172   0.177  -0.185  0.00  0.00    +0.000 A 
ENDBRANCH  16  17
ENDBRANCH  14  16
ENDBRANCH   1  14
TORSDOF 5
