REMARK  Name = 
REMARK  6 active torsions:
REMARK  status: ('A' for Active; 'I' for Inactive)
REMARK    1  A    between atoms: C_2  and  C_4
REMARK    2  A    between atoms: N_8  and  C_9
REMARK    3  A    between atoms: C_9  and  C_10
REMARK    4  A    between atoms: C_10  and  C_13
REMARK    5  A    between atoms: C_17  and  O_18
REMARK    6  A    between atoms: O_18  and  C_19
REMARK                            x       y       z     vdW  Elec       q    Type
REMARK                         _______ _______ _______ _____ _____    ______ ____
ROOT
ATOM      1  C   UNL     1       5.120   2.022  -5.588  0.00  0.00    +0.000 C 
ENDROOT
BRANCH   1   6
ATOM      2  C   UNL     1       3.037   0.159  -1.287  0.00  0.00    +0.000 A 
ATOM      3  C   UNL     1       2.721   1.277  -2.050  0.00  0.00    +0.000 A 
ATOM      4  C   UNL     1       3.493   1.569  -3.173  0.00  0.00    +0.000 A 
ATOM      5  C   UNL     1       4.568   0.751  -3.514  0.00  0.00    +0.000 A 
ATOM      6  N   UNL     1       5.361   0.973  -4.605  0.00  0.00    +0.000 N 
ATOM      7  N   UNL     1       4.893  -0.322  -2.767  0.00  0.00    +0.000 NA
ATOM      8  C   UNL     1       4.135  -0.592  -1.670  0.00  0.00    +0.000 A 
ATOM      9  H   UNL     1       6.105   0.298  -4.744  0.00  0.00    +0.000 HD
BRANCH   2  11
ATOM     10  N   UNL     1       0.943   0.126  -0.064  0.00  0.00    +0.000 N 
ATOM     11  C   UNL     1       2.263  -0.237  -0.095  0.00  0.00    +0.000 C 
ATOM     12  O   UNL     1       2.764  -0.890   0.809  0.00  0.00    +0.000 OA
ATOM     13  H   UNL     1       0.395  -0.243   0.705  0.00  0.00    +0.000 HD
ATOM     14  H   UNL     1       0.442   0.437  -0.883  0.00  0.00    +0.000 HD
ENDBRANCH   2  11
ENDBRANCH   1   6
BRANCH   1  15
ATOM     15  C   UNL     1       6.095   2.014  -6.792  0.00  0.00    +0.000 C 
ATOM     16  F   UNL     1       7.373   2.126  -6.328  0.00  0.00    +0.000 F 
ATOM     17  F   UNL     1       6.034   0.794  -7.403  0.00  0.00    +0.000 F 
BRANCH  15  18
ATOM     18  C   UNL     1       5.719   3.147  -7.727  0.00  0.00    +0.000 A 
ATOM     19  C   UNL     1       4.810   2.945  -8.775  0.00  0.00    +0.000 A 
ATOM     20  C   UNL     1       4.387   4.023  -9.556  0.00  0.00    +0.000 A 
ATOM     21  C   UNL     1       4.870   5.312  -9.307  0.00  0.00    +0.000 A 
ATOM     22  C   UNL     1       5.790   5.517  -8.281  0.00  0.00    +0.000 A 
ATOM     23  C   UNL     1       6.208   4.442  -7.496  0.00  0.00    +0.000 A 
BRANCH  22  24
ATOM     24  O   UNL     1       6.307   6.732  -7.915  0.00  0.00    +0.000 OA
BRANCH  24  25
ATOM     25  C   UNL     1       6.364   7.796  -8.890  0.00  0.00    +0.000 C 
ATOM     26  C   UNL     1       7.328   7.646 -10.075  0.00  0.00    +0.000 C 
ATOM     27  O   UNL     1       8.033   8.860  -9.727  0.00  0.00    +0.000 OA
ATOM     28  C   UNL     1       7.269   8.976  -8.505  0.00  0.00    +0.000 C 
ENDBRANCH  24  25
ENDBRANCH  22  24
ENDBRANCH  15  18
ENDBRANCH   1  15
TORSDOF 6
