REMARK  Name = 
REMARK  8 active torsions:
REMARK  status: ('A' for Active; 'I' for Inactive)
REMARK    1  A    between atoms: C_2  and  C_3
REMARK    2  A    between atoms: C_3  and  N_4
REMARK    3  A    between atoms: C_5  and  C_7
REMARK    4  A    between atoms: N_17  and  C_18
REMARK    5  A    between atoms: C_18  and  C_19
REMARK    6  A    between atoms: C_22  and  C_23
REMARK    7  A    between atoms: C_23  and  N_24
REMARK    8  A    between atoms: C_25  and  C_27
REMARK                            x       y       z     vdW  Elec       q    Type
REMARK                         _______ _______ _______ _____ _____    ______ ____
ROOT
ATOM      1  O   UNL     1       4.248  -1.721  -1.821  0.00  0.00    +0.000 OA
ATOM      2  C   UNL     1       3.306  -0.946  -1.961  0.00  0.00    +0.000 C 
ATOM      3  N   UNL     1       3.332   0.368  -1.551  0.00  0.00    +0.000 N 
ATOM      4  H   UNL     1       2.463   0.893  -1.553  0.00  0.00    +0.000 HD
ENDROOT
BRANCH   2   5
ATOM      5  C   UNL     1       1.963  -1.396  -2.536  0.00  0.00    +0.000 C 
BRANCH   5   6
ATOM      6  N   UNL     1       1.119  -1.941  -1.493  0.00  0.00    +0.000 N 
ATOM      7  C   UNL     1       0.208  -1.166  -0.824  0.00  0.00    +0.000 C 
ATOM      8  O   UNL     1       0.051   0.023  -1.096  0.00  0.00    +0.000 OA
ATOM      9  H   UNL     1       1.413  -2.827  -1.087  0.00  0.00    +0.000 HD
BRANCH   7  10
ATOM     10  C   UNL     1      -0.610  -1.837   0.194  0.00  0.00    +0.000 A 
ATOM     11  C   UNL     1      -1.871  -1.344   0.502  0.00  0.00    +0.000 A 
ATOM     12  S   UNL     1      -2.688  -2.250   1.694  0.00  0.00    +0.000 S 
ATOM     13  C   UNL     1      -1.370  -3.311   1.870  0.00  0.00    +0.000 A 
ATOM     14  N   UNL     1      -1.403  -4.324   2.776  0.00  0.00    +0.000 NA
ATOM     15  C   UNL     1      -0.321  -5.030   2.828  0.00  0.00    +0.000 A 
ATOM     16  N   UNL     1       0.785  -4.819   2.045  0.00  0.00    +0.000 N 
ATOM     17  C   UNL     1       0.841  -3.842   1.080  0.00  0.00    +0.000 A 
ATOM     18  O   UNL     1       1.807  -3.735   0.330  0.00  0.00    +0.000 OA
ATOM     19  C   UNL     1      -0.333  -2.996   1.008  0.00  0.00    +0.000 A 
ATOM     20  H   UNL     1       1.592  -5.421   2.119  0.00  0.00    +0.000 HD
ENDBRANCH   7  10
ENDBRANCH   5   6
ENDBRANCH   2   5
BRANCH   3  21
ATOM     21  C   UNL     1       4.498   0.968  -0.944  0.00  0.00    +0.000 C 
BRANCH  21  22
ATOM     22  C   UNL     1       4.940   2.190  -1.711  0.00  0.00    +0.000 A 
ATOM     23  C   UNL     1       4.386   3.447  -1.440  0.00  0.00    +0.000 A 
ATOM     24  C   UNL     1       4.765   4.570  -2.185  0.00  0.00    +0.000 A 
ATOM     25  C   UNL     1       5.697   4.459  -3.227  0.00  0.00    +0.000 A 
ATOM     26  C   UNL     1       6.271   3.206  -3.480  0.00  0.00    +0.000 A 
ATOM     27  C   UNL     1       5.889   2.082  -2.737  0.00  0.00    +0.000 A 
BRANCH  25  28
ATOM     28  C   UNL     1       6.057   5.657  -4.069  0.00  0.00    +0.000 C 
BRANCH  28  29
ATOM     29  N   UNL     1       7.174   6.397  -3.523  0.00  0.00    +0.000 N 
ATOM     30  C   UNL     1       7.701   7.474  -4.211  0.00  0.00    +0.000 C 
ATOM     31  O   UNL     1       7.295   7.815  -5.318  0.00  0.00    +0.000 OA
ATOM     32  H   UNL     1       7.389   6.272  -2.543  0.00  0.00    +0.000 HD
BRANCH  30  33
ATOM     33  C   UNL     1       8.785   8.228  -3.451  0.00  0.00    +0.000 C 
ATOM     34  C   UNL     1       9.308   9.448  -4.181  0.00  0.00    +0.000 C 
ATOM     35  C   UNL     1      10.487   8.912  -4.963  0.00  0.00    +0.000 C 
ATOM     36  O   UNL     1      11.024   7.827  -4.202  0.00  0.00    +0.000 OA
ATOM     37  C   UNL     1      10.032   7.381  -3.266  0.00  0.00    +0.000 C 
ENDBRANCH  30  33
ENDBRANCH  28  29
ENDBRANCH  25  28
ENDBRANCH  21  22
ENDBRANCH   3  21
TORSDOF 8
