REMARK  Name = 
REMARK  5 active torsions:
REMARK  status: ('A' for Active; 'I' for Inactive)
REMARK    1  A    between atoms: C_2  and  C_3
REMARK    2  A    between atoms: C_8  and  N_9
REMARK    3  A    between atoms: N_9  and  C_10
REMARK    4  A    between atoms: C_10  and  C_11
REMARK    5  A    between atoms: C_15  and  C_16
REMARK                            x       y       z     vdW  Elec       q    Type
REMARK                         _______ _______ _______ _____ _____    ______ ____
ROOT
ATOM      1  C   UNL     1       2.309   4.061   0.097  0.00  0.00    +0.000 A 
ATOM      2  C   UNL     1       1.495   5.100  -0.365  0.00  0.00    +0.000 A 
ATOM      3  C   UNL     1       1.909   6.425  -0.236  0.00  0.00    +0.000 A 
ATOM      4  C   UNL     1       3.131   6.723   0.374  0.00  0.00    +0.000 A 
ATOM      5  C   UNL     1       3.964   5.707   0.873  0.00  0.00    +0.000 A 
ATOM      6  C   UNL     1       3.532   4.378   0.708  0.00  0.00    +0.000 A 
ENDROOT
BRANCH   5   7
ATOM      7  C   UNL     1       5.229   6.008   1.569  0.00  0.00    +0.000 A 
ATOM      8  C   UNL     1       6.348   5.166   1.491  0.00  0.00    +0.000 A 
ATOM      9  C   UNL     1       7.510   5.457   2.201  0.00  0.00    +0.000 A 
ATOM     10  C   UNL     1       7.536   6.604   2.973  0.00  0.00    +0.000 A 
ATOM     11  N   UNL     1       6.496   7.453   3.081  0.00  0.00    +0.000 NA
ATOM     12  C   UNL     1       5.378   7.134   2.386  0.00  0.00    +0.000 A 
ENDBRANCH   5   7
BRANCH   1  13
ATOM     13  C   UNL     1       1.903   2.615  -0.051  0.00  0.00    +0.000 C 
BRANCH  13  14
ATOM     14  N   UNL     1       1.170   2.163   1.126  0.00  0.00    +0.000 N 
ATOM     15  H   UNL     1       1.515   2.571   1.993  0.00  0.00    +0.000 HD
BRANCH  14  21
ATOM     16  C   UNL     1       0.688  -0.195   0.340  0.00  0.00    +0.000 A 
ATOM     17  N   UNL     1       0.118  -1.419   0.551  0.00  0.00    +0.000 NA
ATOM     18  C   UNL     1      -0.501  -1.626   1.727  0.00  0.00    +0.000 A 
ATOM     19  C   UNL     1      -0.577  -0.667   2.715  0.00  0.00    +0.000 A 
ATOM     20  C   UNL     1       0.020   0.573   2.480  0.00  0.00    +0.000 A 
ATOM     21  C   UNL     1       0.698   0.855   1.277  0.00  0.00    +0.000 A 
BRANCH  16  23
ATOM     22  N   UNL     1       1.849  -0.047  -1.981  0.00  0.00    +0.000 NA
ATOM     23  C   UNL     1       1.317  -0.124  -0.953  0.00  0.00    +0.000 C 
ENDBRANCH  16  23
ENDBRANCH  14  21
ENDBRANCH  13  14
ENDBRANCH   1  13
TORSDOF 5
