REMARK  Name = 
REMARK  6 active torsions:
REMARK  status: ('A' for Active; 'I' for Inactive)
REMARK    1  A    between atoms: C_5  and  N_6
REMARK    2  A    between atoms: N_6  and  C_7
REMARK    3  A    between atoms: C_7  and  C_8
REMARK    4  A    between atoms: C_8  and  C_11
REMARK    5  A    between atoms: C_13  and  O_14
REMARK    6  A    between atoms: O_14  and  C_15
REMARK                            x       y       z     vdW  Elec       q    Type
REMARK                         _______ _______ _______ _____ _____    ______ ____
ROOT
ATOM      1  C   UNL     1      -5.603   1.060   0.020  0.00  0.00    +0.000 C 
ATOM      2  F   UNL     1      -5.900   0.255  -1.048  0.00  0.00    +0.000 F 
ATOM      3  F   UNL     1      -5.963   0.315   1.117  0.00  0.00    +0.000 F 
ENDROOT
BRANCH   1   4
ATOM      4  C   UNL     1      -6.386   2.368  -0.030  0.00  0.00    +0.000 A 
ATOM      5  C   UNL     1      -7.777   2.306  -0.118  0.00  0.00    +0.000 A 
ATOM      6  C   UNL     1      -8.494   3.495  -0.161  0.00  0.00    +0.000 A 
ATOM      7  C   UNL     1      -7.823   4.709  -0.090  0.00  0.00    +0.000 A 
ATOM      8  C   UNL     1      -6.445   4.689  -0.005  0.00  0.00    +0.000 A 
ATOM      9  N   UNL     1      -5.717   3.554   0.019  0.00  0.00    +0.000 NA
BRANCH   6  10
ATOM     10  O   UNL     1      -9.862   3.577  -0.234  0.00  0.00    +0.000 OA
BRANCH  10  11
ATOM     11  C   UNL     1     -10.587   2.484  -0.843  0.00  0.00    +0.000 C 
ATOM     12  C   UNL     1     -10.399   2.244  -2.358  0.00  0.00    +0.000 C 
ATOM     13  N   UNL     1     -11.861   2.112  -2.513  0.00  0.00    +0.000 NA
ATOM     14  C   UNL     1     -12.050   2.800  -1.221  0.00  0.00    +0.000 C 
ATOM     15  H   UNL     1     -12.189   1.146  -2.513  0.00  0.00    +0.000 HD
ENDBRANCH  10  11
ENDBRANCH   6  10
ENDBRANCH   1   4
BRANCH   1  16
ATOM     16  C   UNL     1      -4.067   1.258   0.084  0.00  0.00    +0.000 C 
BRANCH  16  17
ATOM     17  N   UNL     1      -3.484   1.867  -1.129  0.00  0.00    +0.000 N 
ATOM     18  H   UNL     1      -4.030   2.675  -1.444  0.00  0.00    +0.000 HD
BRANCH  17  23
ATOM     19  F   UNL     1       1.940   2.824  -1.711  0.00  0.00    +0.000 F 
ATOM     20  C   UNL     1       0.628   2.613  -1.543  0.00  0.00    +0.000 A 
ATOM     21  C   UNL     1       0.174   2.022  -0.373  0.00  0.00    +0.000 A 
ATOM     22  C   UNL     1      -1.193   1.777  -0.207  0.00  0.00    +0.000 A 
ATOM     23  C   UNL     1      -2.118   2.146  -1.194  0.00  0.00    +0.000 A 
ATOM     24  C   UNL     1      -1.625   2.740  -2.368  0.00  0.00    +0.000 A 
ATOM     25  C   UNL     1      -0.259   2.974  -2.546  0.00  0.00    +0.000 A 
ENDBRANCH  17  23
ENDBRANCH  16  17
ENDBRANCH   1  16
TORSDOF 6
