REMARK  Name = 
REMARK  6 active torsions:
REMARK  status: ('A' for Active; 'I' for Inactive)
REMARK    1  A    between atoms: C_2  and  C_3
REMARK    2  A    between atoms: C_6  and  C_7
REMARK    3  A    between atoms: C_11  and  C_12
REMARK    4  A    between atoms: C_12  and  N_13
REMARK    5  A    between atoms: N_13  and  C_14
REMARK    6  A    between atoms: C_17  and  C_18
REMARK                            x       y       z     vdW  Elec       q    Type
REMARK                         _______ _______ _______ _____ _____    ______ ____
ROOT
ATOM      1  C   UNL     1      -6.731   0.781  -2.172  0.00  0.00    +0.000 C 
ATOM      2  C   UNL     1      -6.642   0.400  -3.637  0.00  0.00    +0.000 C 
ATOM      3  C   UNL     1      -6.169   1.749  -3.223  0.00  0.00    +0.000 C 
ENDROOT
BRANCH   1   8
ATOM      4  C   UNL     1      -4.728  -1.813  -0.148  0.00  0.00    +0.000 A 
ATOM      5  C   UNL     1      -3.776  -0.942   0.381  0.00  0.00    +0.000 A 
ATOM      6  N   UNL     1      -3.792   0.398   0.231  0.00  0.00    +0.000 NA
ATOM      7  C   UNL     1      -4.780   0.896  -0.544  0.00  0.00    +0.000 A 
ATOM      8  C   UNL     1      -5.740   0.142  -1.217  0.00  0.00    +0.000 A 
ATOM      9  C   UNL     1      -5.715  -1.234  -0.962  0.00  0.00    +0.000 A 
BRANCH   4  13
ATOM     10  C   UNL     1      -4.676  -5.957   0.580  0.00  0.00    +0.000 A 
ATOM     11  C   UNL     1      -4.205  -5.130   1.579  0.00  0.00    +0.000 A 
ATOM     12  C   UNL     1      -4.220  -3.763   1.352  0.00  0.00    +0.000 A 
ATOM     13  C   UNL     1      -4.696  -3.251   0.130  0.00  0.00    +0.000 A 
ATOM     14  C   UNL     1      -5.143  -4.190  -0.800  0.00  0.00    +0.000 A 
ATOM     15  N   UNL     1      -5.149  -5.525  -0.607  0.00  0.00    +0.000 NA
BRANCH  10  17
ATOM     16  N   UNL     1      -4.678  -8.519   0.949  0.00  0.00    +0.000 NA
ATOM     17  C   UNL     1      -4.681  -7.375   0.775  0.00  0.00    +0.000 C 
ENDBRANCH  10  17
ENDBRANCH   4  13
ENDBRANCH   1   8
BRANCH   1  18
ATOM     18  N   UNL     1      -7.924   1.313  -1.524  0.00  0.00    +0.000 N 
ATOM     19  H   UNL     1      -7.855   2.263  -1.175  0.00  0.00    +0.000 HD
BRANCH  18  20
ATOM     20  C   UNL     1      -9.131   0.681  -1.203  0.00  0.00    +0.000 A 
ATOM     21  C   UNL     1      -9.486  -0.617  -1.564  0.00  0.00    +0.000 A 
ATOM     22  C   UNL     1     -10.770  -1.108  -1.266  0.00  0.00    +0.000 A 
ATOM     23  C   UNL     1     -11.699  -0.316  -0.576  0.00  0.00    +0.000 A 
ATOM     24  C   UNL     1     -11.334   0.965  -0.168  0.00  0.00    +0.000 A 
ATOM     25  C   UNL     1     -10.066   1.449  -0.486  0.00  0.00    +0.000 A 
BRANCH  23  26
ATOM     26  C   UNL     1     -13.072  -0.835  -0.352  0.00  0.00    +0.000 C 
ATOM     27  N   UNL     1     -13.757  -0.376   0.740  0.00  0.00    +0.000 N 
ATOM     28  O   UNL     1     -13.580  -1.643  -1.116  0.00  0.00    +0.000 OA
ATOM     29  H   UNL     1     -13.379   0.254   1.431  0.00  0.00    +0.000 HD
ATOM     30  H   UNL     1     -14.691  -0.740   0.881  0.00  0.00    +0.000 HD
ENDBRANCH  23  26
ENDBRANCH  18  20
ENDBRANCH   1  18
TORSDOF 6
