REMARK  Name = 
REMARK  7 active torsions:
REMARK  status: ('A' for Active; 'I' for Inactive)
REMARK    1  A    between atoms: C_1  and  C_2
REMARK    2  A    between atoms: C_2  and  C_3
REMARK    3  A    between atoms: C_7  and  C_8
REMARK    4  A    between atoms: C_14  and  C_15
REMARK    5  A    between atoms: C_14  and  N_20
REMARK    6  A    between atoms: C_15  and  C_16
REMARK    7  A    between atoms: C_24  and  C_25
REMARK                            x       y       z     vdW  Elec       q    Type
REMARK                         _______ _______ _______ _____ _____    ______ ____
ROOT
ATOM      1  C   UNL     1       0.914  -0.045  -0.297  0.00  0.00    +0.000 C 
ATOM      2  C   UNL     1       2.406  -0.194  -0.018  0.00  0.00    +0.000 C 
ATOM      3  C   UNL     1       3.340   0.503  -0.981  0.00  0.00    +0.000 C 
ATOM      4  C   UNL     1       3.270  -1.005  -1.043  0.00  0.00    +0.000 C 
ENDROOT
BRANCH   4   5
ATOM      5  N   UNL     1       2.503  -1.666  -2.158  0.00  0.00    +0.000 N 
ATOM      6  C   UNL     1       1.824  -2.862  -1.843  0.00  0.00    +0.000 A 
ATOM      7  C   UNL     1       1.032  -3.480  -2.807  0.00  0.00    +0.000 A 
ATOM      8  C   UNL     1       0.288  -4.609  -2.451  0.00  0.00    +0.000 A 
ATOM      9  C   UNL     1       0.332  -5.096  -1.145  0.00  0.00    +0.000 A 
ATOM     10  C   UNL     1       1.145  -4.423  -0.252  0.00  0.00    +0.000 A 
ATOM     11  N   UNL     1       1.875  -3.333  -0.579  0.00  0.00    +0.000 NA
ATOM     12  H   UNL     1       2.962  -1.724  -3.060  0.00  0.00    +0.000 HD
BRANCH   9  13
ATOM     13  C   UNL     1      -0.481  -6.269  -0.757  0.00  0.00    +0.000 C 
ATOM     14  N   UNL     1      -0.433  -6.728   0.530  0.00  0.00    +0.000 N 
ATOM     15  O   UNL     1      -1.198  -6.837  -1.579  0.00  0.00    +0.000 OA
ATOM     16  H   UNL     1       0.104  -6.328   1.284  0.00  0.00    +0.000 HD
ATOM     17  H   UNL     1      -1.011  -7.524   0.750  0.00  0.00    +0.000 HD
ENDBRANCH   9  13
ENDBRANCH   4   5
BRANCH   2  18
ATOM     18  C   UNL     1       2.674  -0.132   1.482  0.00  0.00    +0.000 A 
ATOM     19  C   UNL     1       2.902   1.099   2.125  0.00  0.00    +0.000 A 
ATOM     20  C   UNL     1       2.821   1.235   3.512  0.00  0.00    +0.000 A 
ATOM     21  C   UNL     1       2.510   0.132   4.302  0.00  0.00    +0.000 A 
ATOM     22  C   UNL     1       2.305  -1.121   3.710  0.00  0.00    +0.000 A 
ATOM     23  C   UNL     1       2.416  -1.241   2.309  0.00  0.00    +0.000 A 
BRANCH  22  24
ATOM     24  C   UNL     1       1.897  -2.310   4.538  0.00  0.00    +0.000 C 
ATOM     25  F   UNL     1       1.732  -2.033   5.860  0.00  0.00    +0.000 F 
ATOM     26  F   UNL     1       0.713  -2.852   4.125  0.00  0.00    +0.000 F 
ATOM     27  F   UNL     1       2.802  -3.329   4.481  0.00  0.00    +0.000 F 
ENDBRANCH  22  24
ENDBRANCH   2  18
BRANCH   4  28
ATOM     28  C   UNL     1       4.542  -1.745  -0.648  0.00  0.00    +0.000 C 
BRANCH  28  29
ATOM     29  C   UNL     1       5.690  -1.589  -1.639  0.00  0.00    +0.000 C 
ATOM     30  F   UNL     1       5.450  -0.670  -2.599  0.00  0.00    +0.000 F 
ATOM     31  F   UNL     1       6.831  -1.216  -1.005  0.00  0.00    +0.000 F 
ATOM     32  F   UNL     1       5.955  -2.757  -2.272  0.00  0.00    +0.000 F 
ENDBRANCH  28  29
ENDBRANCH   4  28
TORSDOF 6
