REMARK  Name = 
REMARK  9 active torsions:
REMARK  status: ('A' for Active; 'I' for Inactive)
REMARK    1  A    between atoms: C_2  and  C_3
REMARK    2  A    between atoms: C_7  and  C_8
REMARK    3  A    between atoms: N_10  and  C_11
REMARK    4  A    between atoms: C_11  and  C_12
REMARK    5  A    between atoms: C_15  and  C_16
REMARK    6  A    between atoms: C_16  and  O_17
REMARK    7  A    between atoms: C_16  and  C_18
REMARK    8  A    between atoms: C_18  and  N_19
REMARK    9  A    between atoms: C_20  and  C_22
REMARK                            x       y       z     vdW  Elec       q    Type
REMARK                         _______ _______ _______ _____ _____    ______ ____
ROOT
ATOM      1  C   UNL     1       4.876   6.131  -1.556  0.00  0.00    +0.000 A 
ATOM      2  C   UNL     1       4.274   5.923  -0.308  0.00  0.00    +0.000 A 
ATOM      3  C   UNL     1       3.914   7.010   0.503  0.00  0.00    +0.000 A 
ATOM      4  C   UNL     1       4.130   8.330   0.076  0.00  0.00    +0.000 A 
ATOM      5  C   UNL     1       4.715   8.525  -1.184  0.00  0.00    +0.000 A 
ATOM      6  C   UNL     1       5.067   7.443  -1.995  0.00  0.00    +0.000 A 
ENDROOT
BRANCH   1   7
ATOM      7  C   UNL     1       5.332   4.978  -2.411  0.00  0.00    +0.000 C 
BRANCH   7  10
ATOM      8  C   UNL     1       4.527   3.521  -4.219  0.00  0.00    +0.000 C 
ATOM      9  O   UNL     1       5.617   2.970  -4.342  0.00  0.00    +0.000 OA
ATOM     10  N   UNL     1       4.294   4.513  -3.295  0.00  0.00    +0.000 N 
ATOM     11  H   UNL     1       3.372   4.928  -3.233  0.00  0.00    +0.000 HD
BRANCH   8  16
ATOM     12  C   UNL     1       1.381   3.926  -6.576  0.00  0.00    +0.000 C 
ATOM     13  C   UNL     1       1.588   2.599  -7.188  0.00  0.00    +0.000 C 
ATOM     14  N   UNL     1       2.541   1.763  -6.912  0.00  0.00    +0.000 NA
ATOM     15  C   UNL     1       3.486   2.181  -5.999  0.00  0.00    +0.000 C 
ATOM     16  C   UNL     1       3.355   3.170  -5.093  0.00  0.00    +0.000 C 
ATOM     17  S   UNL     1       1.896   4.103  -4.939  0.00  0.00    +0.000 S 
BRANCH  12  19
ATOM     18  N   UNL     1       0.895   5.954  -8.082  0.00  0.00    +0.000 NA
ATOM     19  C   UNL     1       1.086   5.034  -7.399  0.00  0.00    +0.000 C 
ENDBRANCH  12  19
ENDBRANCH   8  16
ENDBRANCH   7  10
ENDBRANCH   1   7
BRANCH   4  20
ATOM     20  C   UNL     1       3.774   9.495   0.989  0.00  0.00    +0.000 C 
BRANCH  20  21
ATOM     21  O   UNL     1       4.901   9.779   1.822  0.00  0.00    +0.000 OA
ATOM     22  H   UNL     1       5.672   9.886   1.238  0.00  0.00    +0.000 HD
ENDBRANCH  20  21
BRANCH  20  23
ATOM     23  C   UNL     1       3.372  10.769   0.221  0.00  0.00    +0.000 C 
BRANCH  23  24
ATOM     24  N   UNL     1       3.005  11.892   1.062  0.00  0.00    +0.000 N 
ATOM     25  C   UNL     1       2.583  13.052   0.450  0.00  0.00    +0.000 C 
ATOM     26  O   UNL     1       2.425  13.116  -0.768  0.00  0.00    +0.000 OA
ATOM     27  H   UNL     1       3.454  11.955   1.975  0.00  0.00    +0.000 HD
BRANCH  25  28
ATOM     28  C   UNL     1       2.273  14.195   1.308  0.00  0.00    +0.000 A 
ATOM     29  C   UNL     1       1.357  15.142   0.871  0.00  0.00    +0.000 A 
ATOM     30  S   UNL     1       1.094  16.402   1.987  0.00  0.00    +0.000 S 
ATOM     31  C   UNL     1       2.229  15.752   3.072  0.00  0.00    +0.000 A 
ATOM     32  N   UNL     1       2.523  16.381   4.242  0.00  0.00    +0.000 NA
ATOM     33  C   UNL     1       3.424  15.793   4.951  0.00  0.00    +0.000 A 
ATOM     34  N   UNL     1       4.056  14.623   4.602  0.00  0.00    +0.000 N 
ATOM     35  C   UNL     1       3.775  13.939   3.443  0.00  0.00    +0.000 A 
ATOM     36  O   UNL     1       4.328  12.879   3.170  0.00  0.00    +0.000 OA
ATOM     37  C   UNL     1       2.781  14.570   2.602  0.00  0.00    +0.000 A 
ATOM     38  H   UNL     1       4.748  14.210   5.210  0.00  0.00    +0.000 HD
ENDBRANCH  25  28
ENDBRANCH  23  24
ENDBRANCH  20  23
ENDBRANCH   4  20
TORSDOF 9
