REMARK  Name = 
REMARK  5 active torsions:
REMARK  status: ('A' for Active; 'I' for Inactive)
REMARK    1  A    between atoms: C_2  and  C_17
REMARK    2  A    between atoms: N_3  and  C_4
REMARK    3  A    between atoms: C_4  and  C_5
REMARK    4  A    between atoms: C_8  and  C_9
REMARK    5  A    between atoms: C_9  and  N_10
REMARK                            x       y       z     vdW  Elec       q    Type
REMARK                         _______ _______ _______ _____ _____    ______ ____
ROOT
ATOM      1  O   UNL     1       0.106  -2.949   1.978  0.00  0.00    +0.000 OA
ATOM      2  C   UNL     1       0.805  -1.959   2.177  0.00  0.00    +0.000 C 
ATOM      3  N   UNL     1       1.947  -1.709   1.469  0.00  0.00    +0.000 N 
ATOM      4  H   UNL     1       2.513  -0.893   1.668  0.00  0.00    +0.000 HD
ENDROOT
BRANCH   2   5
ATOM      5  C   UNL     1       0.512  -0.992   3.227  0.00  0.00    +0.000 A 
ATOM      6  C   UNL     1      -0.133  -1.376   4.389  0.00  0.00    +0.000 A 
ATOM      7  S   UNL     1      -0.319  -0.093   5.507  0.00  0.00    +0.000 S 
ATOM      8  C   UNL     1       0.416   1.013   4.439  0.00  0.00    +0.000 A 
ATOM      9  N   UNL     1       0.586   2.321   4.782  0.00  0.00    +0.000 NA
ATOM     10  C   UNL     1       1.140   3.041   3.870  0.00  0.00    +0.000 A 
ATOM     11  N   UNL     1       1.538   2.587   2.642  0.00  0.00    +0.000 N 
ATOM     12  C   UNL     1       1.382   1.280   2.240  0.00  0.00    +0.000 A 
ATOM     13  O   UNL     1       1.756   0.905   1.134  0.00  0.00    +0.000 OA
ATOM     14  C   UNL     1       0.788   0.418   3.252  0.00  0.00    +0.000 A 
ATOM     15  H   UNL     1       1.966   3.203   1.967  0.00  0.00    +0.000 HD
ENDBRANCH   2   5
BRANCH   3  16
ATOM     16  C   UNL     1       2.348  -2.497   0.337  0.00  0.00    +0.000 C 
BRANCH  16  17
ATOM     17  C   UNL     1       3.271  -3.614   0.732  0.00  0.00    +0.000 A 
ATOM     18  C   UNL     1       2.745  -4.838   1.128  0.00  0.00    +0.000 A 
ATOM     19  N   UNL     1       3.517  -5.916   1.387  0.00  0.00    +0.000 NA
ATOM     20  C   UNL     1       4.856  -5.736   1.249  0.00  0.00    +0.000 A 
ATOM     21  C   UNL     1       5.384  -4.487   0.935  0.00  0.00    +0.000 A 
ATOM     22  N   UNL     1       4.612  -3.404   0.673  0.00  0.00    +0.000 NA
BRANCH  20  23
ATOM     23  C   UNL     1       5.735  -6.966   1.305  0.00  0.00    +0.000 C 
BRANCH  23  24
ATOM     24  N   UNL     1       6.275  -7.402   2.598  0.00  0.00    +0.000 NA
ATOM     25  C   UNL     1       5.257  -7.738   3.594  0.00  0.00    +0.000 C 
ATOM     26  C   UNL     1       5.201  -6.552   4.535  0.00  0.00    +0.000 C 
ATOM     27  C   UNL     1       6.614  -6.000   4.519  0.00  0.00    +0.000 C 
ATOM     28  C   UNL     1       7.230  -6.486   3.214  0.00  0.00    +0.000 C 
ENDBRANCH  23  24
ENDBRANCH  20  23
ENDBRANCH  16  17
ENDBRANCH   3  16
TORSDOF 5
