REMARK  Name = 
REMARK  7 active torsions:
REMARK  status: ('A' for Active; 'I' for Inactive)
REMARK    1  A    between atoms: C_2  and  C_3
REMARK    2  A    between atoms: C_3  and  N_4
REMARK    3  A    between atoms: C_3  and  C_17
REMARK    4  A    between atoms: C_5  and  C_7
REMARK    5  A    between atoms: C_20  and  O_21
REMARK    6  A    between atoms: O_21  and  C_22
REMARK    7  A    between atoms: C_22  and  C_23
REMARK                            x       y       z     vdW  Elec       q    Type
REMARK                         _______ _______ _______ _____ _____    ______ ____
ROOT
ATOM      1  C   UNL     1       3.848   0.049   0.082  0.00  0.00    +0.000 C 
ENDROOT
BRANCH   1   2
ATOM      2  C   UNL     1       4.261  -0.792  -1.118  0.00  0.00    +0.000 A 
ATOM      3  C   UNL     1       5.049  -0.234  -2.139  0.00  0.00    +0.000 A 
ATOM      4  C   UNL     1       5.474  -1.020  -3.215  0.00  0.00    +0.000 A 
ATOM      5  C   UNL     1       5.125  -2.369  -3.283  0.00  0.00    +0.000 A 
ATOM      6  C   UNL     1       4.275  -2.908  -2.320  0.00  0.00    +0.000 A 
ATOM      7  C   UNL     1       3.846  -2.127  -1.249  0.00  0.00    +0.000 A 
BRANCH   5   8
ATOM      8  O   UNL     1       5.661  -3.078  -4.324  0.00  0.00    +0.000 OA
BRANCH   8   9
ATOM      9  C   UNL     1       5.729  -4.494  -4.109  0.00  0.00    +0.000 C 
BRANCH   9  10
ATOM     10  C   UNL     1       6.737  -5.112  -5.046  0.00  0.00    +0.000 A 
ATOM     11  C   UNL     1       8.051  -4.646  -5.059  0.00  0.00    +0.000 A 
ATOM     12  C   UNL     1       8.970  -5.252  -5.907  0.00  0.00    +0.000 A 
ATOM     13  C   UNL     1       8.558  -6.308  -6.710  0.00  0.00    +0.000 A 
ATOM     14  C   UNL     1       7.238  -6.720  -6.627  0.00  0.00    +0.000 A 
ATOM     15  N   UNL     1       6.324  -6.154  -5.811  0.00  0.00    +0.000 NA
ENDBRANCH   9  10
ENDBRANCH   8   9
ENDBRANCH   5   8
ENDBRANCH   1   2
BRANCH   1  16
ATOM     16  N   UNL     1       2.556   0.660  -0.169  0.00  0.00    +0.000 N 
ATOM     17  C   UNL     1       2.443   1.897  -0.738  0.00  0.00    +0.000 C 
ATOM     18  O   UNL     1       3.436   2.561  -1.018  0.00  0.00    +0.000 OA
ATOM     19  H   UNL     1       1.735   0.074  -0.045  0.00  0.00    +0.000 HD
BRANCH  17  20
ATOM     20  C   UNL     1       1.087   2.419  -0.970  0.00  0.00    +0.000 A 
ATOM     21  C   UNL     1       0.938   3.682  -1.533  0.00  0.00    +0.000 A 
ATOM     22  S   UNL     1      -0.681   4.186  -1.684  0.00  0.00    +0.000 S 
ATOM     23  C   UNL     1      -1.251   2.734  -1.006  0.00  0.00    +0.000 A 
ATOM     24  N   UNL     1      -2.583   2.532  -0.821  0.00  0.00    +0.000 NA
ATOM     25  C   UNL     1      -2.882   1.392  -0.294  0.00  0.00    +0.000 A 
ATOM     26  N   UNL     1      -1.969   0.429   0.051  0.00  0.00    +0.000 N 
ATOM     27  C   UNL     1      -0.616   0.577  -0.148  0.00  0.00    +0.000 A 
ATOM     28  O   UNL     1       0.171  -0.328   0.113  0.00  0.00    +0.000 OA
ATOM     29  C   UNL     1      -0.221   1.862  -0.697  0.00  0.00    +0.000 A 
ATOM     30  H   UNL     1      -2.273  -0.452   0.437  0.00  0.00    +0.000 HD
ENDBRANCH  17  20
ENDBRANCH   1  16
BRANCH   1  32
ATOM     31  N   UNL     1       3.770  -1.386   2.309  0.00  0.00    +0.000 NA
ATOM     32  C   UNL     1       3.816  -0.742   1.342  0.00  0.00    +0.000 C 
ENDBRANCH   1  32
TORSDOF 7
