REMARK  Name = 
REMARK  8 active torsions:
REMARK  status: ('A' for Active; 'I' for Inactive)
REMARK    1  A    between atoms: C_2  and  C_20
REMARK    2  A    between atoms: N_3  and  C_4
REMARK    3  A    between atoms: C_4  and  C_5
REMARK    4  A    between atoms: C_8  and  C_9
REMARK    5  A    between atoms: C_9  and  O_10
REMARK    6  A    between atoms: C_9  and  C_11
REMARK    7  A    between atoms: C_11  and  C_12
REMARK    8  A    between atoms: C_12  and  C_13
REMARK                            x       y       z     vdW  Elec       q    Type
REMARK                         _______ _______ _______ _____ _____    ______ ____
ROOT
ATOM      1  C   UNL     1       5.962  -9.095  -3.691  0.00  0.00    +0.000 A 
ATOM      2  C   UNL     1       5.780  -7.710  -3.625  0.00  0.00    +0.000 A 
ATOM      3  C   UNL     1       5.746  -7.055  -2.390  0.00  0.00    +0.000 A 
ATOM      4  C   UNL     1       5.895  -7.764  -1.185  0.00  0.00    +0.000 A 
ATOM      5  C   UNL     1       6.070  -9.153  -1.261  0.00  0.00    +0.000 A 
ATOM      6  C   UNL     1       6.113  -9.809  -2.496  0.00  0.00    +0.000 A 
ENDROOT
BRANCH   1   7
ATOM      7  C   UNL     1       6.008  -9.800  -5.020  0.00  0.00    +0.000 C 
BRANCH   7  10
ATOM      8  O   UNL     1       7.232  -8.060  -6.916  0.00  0.00    +0.000 OA
ATOM      9  C   UNL     1       7.878  -8.987  -6.438  0.00  0.00    +0.000 C 
ATOM     10  N   UNL     1       7.349  -9.879  -5.544  0.00  0.00    +0.000 N 
ATOM     11  H   UNL     1       7.967 -10.514  -5.053  0.00  0.00    +0.000 HD
BRANCH   9  12
ATOM     12  C   UNL     1       9.268  -9.247  -6.839  0.00  0.00    +0.000 A 
ATOM     13  C   UNL     1       9.744  -8.804  -8.065  0.00  0.00    +0.000 A 
ATOM     14  S   UNL     1      11.383  -9.201  -8.342  0.00  0.00    +0.000 S 
ATOM     15  C   UNL     1      11.519  -9.951  -6.819  0.00  0.00    +0.000 A 
ATOM     16  N   UNL     1      12.694 -10.499  -6.404  0.00  0.00    +0.000 NA
ATOM     17  C   UNL     1      12.654 -11.001  -5.213  0.00  0.00    +0.000 A 
ATOM     18  N   UNL     1      11.551 -11.024  -4.410  0.00  0.00    +0.000 N 
ATOM     19  C   UNL     1      10.324 -10.567  -4.821  0.00  0.00    +0.000 A 
ATOM     20  O   UNL     1       9.321 -10.762  -4.140  0.00  0.00    +0.000 OA
ATOM     21  C   UNL     1      10.323  -9.931  -6.127  0.00  0.00    +0.000 A 
ATOM     22  H   UNL     1      11.564 -11.477  -3.507  0.00  0.00    +0.000 HD
ENDBRANCH   9  12
ENDBRANCH   7  10
ENDBRANCH   1   7
BRANCH   4  23
ATOM     23  C   UNL     1       5.957  -7.017   0.138  0.00  0.00    +0.000 C 
BRANCH  23  24
ATOM     24  O   UNL     1       6.124  -7.922   1.232  0.00  0.00    +0.000 OA
ATOM     25  H   UNL     1       5.275  -8.383   1.347  0.00  0.00    +0.000 HD
ENDBRANCH  23  24
BRANCH  23  26
ATOM     26  C   UNL     1       4.731  -6.132   0.405  0.00  0.00    +0.000 C 
BRANCH  26  27
ATOM     27  C   UNL     1       4.871  -5.351   1.712  0.00  0.00    +0.000 C 
BRANCH  27  28
ATOM     28  C   UNL     1       3.658  -4.492   1.941  0.00  0.00    +0.000 C 
ATOM     29  N   UNL     1       2.613  -4.934   2.592  0.00  0.00    +0.000 NA
ATOM     30  C   UNL     1       1.678  -3.767   2.594  0.00  0.00    +0.000 C 
ATOM     31  C   UNL     1       2.522  -2.549   2.200  0.00  0.00    +0.000 C 
ATOM     32  N   UNL     1       3.603  -3.195   1.493  0.00  0.00    +0.000 N 
ATOM     33  H   UNL     1       4.472  -2.688   1.381  0.00  0.00    +0.000 HD
ENDBRANCH  27  28
ENDBRANCH  26  27
ENDBRANCH  23  26
ENDBRANCH   4  23
TORSDOF 8
