REMARK  Name = 
REMARK  9 active torsions:
REMARK  status: ('A' for Active; 'I' for Inactive)
REMARK    1  A    between atoms: C_1  and  O_2
REMARK    2  A    between atoms: O_2  and  C_3
REMARK    3  A    between atoms: C_10  and  C_11
REMARK    4  A    between atoms: N_13  and  C_14
REMARK    5  A    between atoms: C_14  and  C_15
REMARK    6  A    between atoms: C_18  and  N_19
REMARK    7  A    between atoms: N_19  and  C_20
REMARK    8  A    between atoms: C_20  and  C_21
REMARK    9  A    between atoms: C_21  and  N_22
REMARK                            x       y       z     vdW  Elec       q    Type
REMARK                         _______ _______ _______ _____ _____    ______ ____
ROOT
ATOM      1  C   UNL     1       2.830  -2.990  -1.531  0.00  0.00    +0.000 C 
ENDROOT
BRANCH   1   2
ATOM      2  C   UNL     1       1.747  -3.311  -0.538  0.00  0.00    +0.000 A 
ATOM      3  C   UNL     1       1.607  -4.608  -0.036  0.00  0.00    +0.000 A 
ATOM      4  C   UNL     1       0.713  -4.874   1.007  0.00  0.00    +0.000 A 
ATOM      5  C   UNL     1      -0.040  -3.851   1.590  0.00  0.00    +0.000 A 
ATOM      6  C   UNL     1      -0.005  -2.591   0.981  0.00  0.00    +0.000 A 
ATOM      7  C   UNL     1       0.886  -2.316  -0.064  0.00  0.00    +0.000 A 
BRANCH   5   8
ATOM      8  N   UNL     1      -0.920  -4.047   2.668  0.00  0.00    +0.000 N 
ATOM      9  H   UNL     1      -1.836  -4.299   2.301  0.00  0.00    +0.000 HD
BRANCH   8  10
ATOM     10  C   UNL     1      -0.500  -4.973   3.738  0.00  0.00    +0.000 C 
BRANCH  10  11
ATOM     11  C   UNL     1       0.461  -4.276   4.730  0.00  0.00    +0.000 C 
BRANCH  11  12
ATOM     12  N   UNL     1       1.105  -5.159   5.728  0.00  0.00    +0.000 NA
ATOM     13  C   UNL     1       0.170  -5.834   6.652  0.00  0.00    +0.000 C 
ATOM     14  C   UNL     1      -0.422  -4.938   7.757  0.00  0.00    +0.000 C 
ATOM     15  O   UNL     1       0.587  -4.214   8.472  0.00  0.00    +0.000 OA
ATOM     16  C   UNL     1       1.410  -3.462   7.572  0.00  0.00    +0.000 C 
ATOM     17  C   UNL     1       2.078  -4.393   6.546  0.00  0.00    +0.000 C 
ENDBRANCH  11  12
ENDBRANCH  10  11
ENDBRANCH   8  10
ENDBRANCH   5   8
ENDBRANCH   1   2
BRANCH   1  20
ATOM     18  C   UNL     1       3.292  -2.935  -3.921  0.00  0.00    +0.000 C 
ATOM     19  O   UNL     1       4.442  -2.562  -3.695  0.00  0.00    +0.000 OA
ATOM     20  N   UNL     1       2.414  -3.170  -2.896  0.00  0.00    +0.000 N 
ATOM     21  H   UNL     1       1.477  -3.502  -3.077  0.00  0.00    +0.000 HD
BRANCH  18  29
ATOM     22  C   UNL     1       0.304  -3.990  -5.282  0.00  0.00    +0.000 A 
ATOM     23  N   UNL     1      -0.713  -4.387  -6.073  0.00  0.00    +0.000 NA
ATOM     24  C   UNL     1      -0.523  -4.380  -7.396  0.00  0.00    +0.000 A 
ATOM     25  N   UNL     1       0.578  -4.016  -8.044  0.00  0.00    +0.000 NA
ATOM     26  C   UNL     1       1.570  -3.637  -7.222  0.00  0.00    +0.000 A 
ATOM     27  S   UNL     1       3.050  -3.131  -7.881  0.00  0.00    +0.000 S 
ATOM     28  C   UNL     1       3.700  -2.862  -6.339  0.00  0.00    +0.000 A 
ATOM     29  C   UNL     1       2.819  -3.138  -5.299  0.00  0.00    +0.000 A 
ATOM     30  C   UNL     1       1.540  -3.595  -5.829  0.00  0.00    +0.000 A 
BRANCH  22  32
ATOM     31  C   UNL     1      -1.275  -3.943  -3.558  0.00  0.00    +0.000 C 
ATOM     32  O   UNL     1       0.106  -4.007  -3.916  0.00  0.00    +0.000 OA
ENDBRANCH  22  32
ENDBRANCH  18  29
ENDBRANCH   1  20
TORSDOF 8
