REMARK  Name = 
REMARK  4 active torsions:
REMARK  status: ('A' for Active; 'I' for Inactive)
REMARK    1  A    between atoms: N_1  and  C_2
REMARK    2  A    between atoms: C_2  and  C_3
REMARK    3  A    between atoms: C_6  and  C_7
REMARK    4  A    between atoms: C_7  and  N_8
REMARK                            x       y       z     vdW  Elec       q    Type
REMARK                         _______ _______ _______ _____ _____    ______ ____
ROOT
ATOM      1  C   UNL     1       3.135  -1.237   0.333  0.00  0.00    +0.000 A 
ATOM      2  C   UNL     1       3.957  -1.902  -0.587  0.00  0.00    +0.000 A 
ATOM      3  C   UNL     1       4.338  -3.230  -0.376  0.00  0.00    +0.000 A 
ATOM      4  C   UNL     1       3.908  -3.923   0.764  0.00  0.00    +0.000 A 
ATOM      5  C   UNL     1       3.074  -3.261   1.677  0.00  0.00    +0.000 A 
ATOM      6  C   UNL     1       2.690  -1.934   1.462  0.00  0.00    +0.000 A 
ENDROOT
BRANCH   1   7
ATOM      7  C   UNL     1       2.769   0.211   0.127  0.00  0.00    +0.000 C 
BRANCH   7   8
ATOM      8  N   UNL     1       2.026   0.412  -1.111  0.00  0.00    +0.000 NA
ATOM      9  H   UNL     1       1.710   1.379  -1.155  0.00  0.00    +0.000 HD
ATOM     10  H   UNL     1       1.187  -0.165  -1.086  0.00  0.00    +0.000 HD
ENDBRANCH   7   8
ENDBRANCH   1   7
BRANCH   4  11
ATOM     11  C   UNL     1       4.332  -5.348   1.012  0.00  0.00    +0.000 C 
BRANCH  11  12
ATOM     12  N   UNL     1       5.557  -5.437   1.804  0.00  0.00    +0.000 N 
ATOM     13  C   UNL     1       5.588  -5.485   3.178  0.00  0.00    +0.000 A 
ATOM     14  C   UNL     1       6.886  -5.715   3.570  0.00  0.00    +0.000 A 
ATOM     15  C   UNL     1       7.679  -5.820   2.396  0.00  0.00    +0.000 A 
ATOM     16  C   UNL     1       9.038  -6.071   2.163  0.00  0.00    +0.000 A 
ATOM     17  C   UNL     1       9.443  -6.103   0.838  0.00  0.00    +0.000 A 
ATOM     18  N   UNL     1       8.631  -5.901  -0.220  0.00  0.00    +0.000 NA
ATOM     19  C   UNL     1       7.319  -5.655  -0.002  0.00  0.00    +0.000 A 
ATOM     20  C   UNL     1       6.832  -5.625   1.302  0.00  0.00    +0.000 A 
ENDBRANCH  11  12
ENDBRANCH   4  11
TORSDOF 4
