REMARK  Name = 
REMARK  8 active torsions:
REMARK  status: ('A' for Active; 'I' for Inactive)
REMARK    1  A    between atoms: N_1  and  C_2
REMARK    2  A    between atoms: C_2  and  C_3
REMARK    3  A    between atoms: C_3  and  N_4
REMARK    4  A    between atoms: C_3  and  C_17
REMARK    5  A    between atoms: C_5  and  C_7
REMARK    6  A    between atoms: C_20  and  O_21
REMARK    7  A    between atoms: O_21  and  C_22
REMARK    8  A    between atoms: C_22  and  C_23
REMARK                            x       y       z     vdW  Elec       q    Type
REMARK                         _______ _______ _______ _____ _____    ______ ____
ROOT
ATOM      1  C   UNL     1       2.815  -0.803  -0.969  0.00  0.00    +0.000 C 
ENDROOT
BRANCH   1   2
ATOM      2  C   UNL     1       4.342  -0.816  -1.042  0.00  0.00    +0.000 A 
ATOM      3  C   UNL     1       5.056  -2.016  -0.921  0.00  0.00    +0.000 A 
ATOM      4  C   UNL     1       6.451  -2.029  -1.040  0.00  0.00    +0.000 A 
ATOM      5  C   UNL     1       7.150  -0.850  -1.297  0.00  0.00    +0.000 A 
ATOM      6  C   UNL     1       6.453   0.357  -1.375  0.00  0.00    +0.000 A 
ATOM      7  C   UNL     1       5.062   0.370  -1.261  0.00  0.00    +0.000 A 
BRANCH   5   8
ATOM      8  O   UNL     1       8.504  -0.985  -1.460  0.00  0.00    +0.000 OA
BRANCH   8   9
ATOM      9  C   UNL     1       9.129   0.057  -2.220  0.00  0.00    +0.000 C 
BRANCH   9  10
ATOM     10  C   UNL     1      10.453  -0.394  -2.793  0.00  0.00    +0.000 A 
ATOM     11  C   UNL     1      11.306  -1.232  -2.079  0.00  0.00    +0.000 A 
ATOM     12  C   UNL     1      12.523  -1.601  -2.653  0.00  0.00    +0.000 A 
ATOM     13  C   UNL     1      12.860  -1.122  -3.914  0.00  0.00    +0.000 A 
ATOM     14  C   UNL     1      11.964  -0.277  -4.550  0.00  0.00    +0.000 A 
ATOM     15  N   UNL     1      10.780   0.096  -4.020  0.00  0.00    +0.000 NA
ENDBRANCH   9  10
ENDBRANCH   8   9
ENDBRANCH   5   8
ENDBRANCH   1   2
BRANCH   1  16
ATOM     16  N   UNL     1       2.305  -0.344  -2.257  0.00  0.00    +0.000 N 
ATOM     17  C   UNL     1       0.972  -0.338  -2.579  0.00  0.00    +0.000 C 
ATOM     18  O   UNL     1       0.085  -0.575  -1.767  0.00  0.00    +0.000 OA
ATOM     19  H   UNL     1       2.969  -0.397  -3.023  0.00  0.00    +0.000 HD
BRANCH  17  20
ATOM     20  C   UNL     1       0.653   0.037  -3.960  0.00  0.00    +0.000 A 
ATOM     21  C   UNL     1      -0.534   0.691  -4.254  0.00  0.00    +0.000 A 
ATOM     22  S   UNL     1      -0.724   1.038  -5.914  0.00  0.00    +0.000 S 
ATOM     23  C   UNL     1       0.751   0.283  -6.299  0.00  0.00    +0.000 A 
ATOM     24  N   UNL     1       1.184   0.191  -7.585  0.00  0.00    +0.000 NA
ATOM     25  C   UNL     1       2.301  -0.444  -7.730  0.00  0.00    +0.000 A 
ATOM     26  N   UNL     1       3.034  -0.982  -6.703  0.00  0.00    +0.000 N 
ATOM     27  C   UNL     1       2.664  -0.867  -5.388  0.00  0.00    +0.000 A 
ATOM     28  O   UNL     1       3.383  -1.273  -4.480  0.00  0.00    +0.000 OA
ATOM     29  C   UNL     1       1.394  -0.195  -5.174  0.00  0.00    +0.000 A 
ATOM     30  H   UNL     1       3.914  -1.443  -6.875  0.00  0.00    +0.000 HD
ENDBRANCH  17  20
ENDBRANCH   1  16
BRANCH   1  31
ATOM     31  C   UNL     1       2.302   0.072   0.214  0.00  0.00    +0.000 C 
BRANCH  31  32
ATOM     32  N   UNL     1       2.808  -0.328   1.535  0.00  0.00    +0.000 NA
ATOM     33  H   UNL     1       2.512   0.367   2.220  0.00  0.00    +0.000 HD
ATOM     34  H   UNL     1       3.828  -0.308   1.526  0.00  0.00    +0.000 HD
ENDBRANCH  31  32
ENDBRANCH   1  31
TORSDOF 8
