REMARK  Name = 
REMARK  9 active torsions:
REMARK  status: ('A' for Active; 'I' for Inactive)
REMARK    1  A    between atoms: C_1  and  C_2
REMARK    2  A    between atoms: C_2  and  C_3
REMARK    3  A    between atoms: C_2  and  C_4
REMARK    4  A    between atoms: C_2  and  C_19
REMARK    5  A    between atoms: C_4  and  C_5
REMARK    6  A    between atoms: C_5  and  C_6
REMARK    7  A    between atoms: C_10  and  C_11
REMARK    8  A    between atoms: C_11  and  O_12
REMARK    9  A    between atoms: C_22  and  C_23
REMARK                            x       y       z     vdW  Elec       q    Type
REMARK                         _______ _______ _______ _____ _____    ______ ____
ROOT
ATOM      1  C   UNL     1       2.952   0.717  -1.045  0.00  0.00    +0.000 C 
ENDROOT
BRANCH   1   3
ATOM      2  C   UNL     1       3.129  -1.640  -0.080  0.00  0.00    +0.000 C 
ATOM      3  C   UNL     1       2.521  -0.229   0.116  0.00  0.00    +0.000 C 
ATOM      4  C   UNL     1       3.159   0.319   1.421  0.00  0.00    +0.000 C 
BRANCH   3   5
ATOM      5  C   UNL     1       0.982  -0.281   0.199  0.00  0.00    +0.000 A 
ATOM      6  C   UNL     1       0.237   0.624   0.977  0.00  0.00    +0.000 A 
ATOM      7  C   UNL     1      -1.167   0.604   0.973  0.00  0.00    +0.000 A 
ATOM      8  C   UNL     1      -1.866  -0.308   0.178  0.00  0.00    +0.000 A 
ATOM      9  C   UNL     1      -1.142  -1.207  -0.592  0.00  0.00    +0.000 A 
ATOM     10  F   UNL     1      -1.750  -2.094  -1.395  0.00  0.00    +0.000 F 
ATOM     11  C   UNL     1       0.253  -1.201  -0.577  0.00  0.00    +0.000 A 
BRANCH   8  12
ATOM     12  C   UNL     1      -3.353  -0.267   0.173  0.00  0.00    +0.000 C 
ATOM     13  N   UNL     1      -4.020  -1.141  -0.632  0.00  0.00    +0.000 N 
ATOM     14  O   UNL     1      -3.966   0.537   0.863  0.00  0.00    +0.000 OA
ATOM     15  H   UNL     1      -3.550  -1.816  -1.229  0.00  0.00    +0.000 HD
ATOM     16  H   UNL     1      -5.029  -1.102  -0.644  0.00  0.00    +0.000 HD
ENDBRANCH   8  12
ENDBRANCH   3   5
ENDBRANCH   1   3
BRANCH   1  17
ATOM     17  C   UNL     1       2.480   0.306  -2.451  0.00  0.00    +0.000 C 
BRANCH  17  18
ATOM     18  C   UNL     1       2.939   1.285  -3.499  0.00  0.00    +0.000 A 
ATOM     19  C   UNL     1       4.158   1.123  -4.155  0.00  0.00    +0.000 A 
ATOM     20  C   UNL     1       4.579   2.076  -5.076  0.00  0.00    +0.000 A 
ATOM     21  C   UNL     1       3.804   3.217  -5.310  0.00  0.00    +0.000 A 
ATOM     22  C   UNL     1       2.577   3.422  -4.648  0.00  0.00    +0.000 A 
ATOM     23  C   UNL     1       2.147   2.408  -3.781  0.00  0.00    +0.000 A 
BRANCH  22  24
ATOM     24  C   UNL     1       1.785   4.724  -4.841  0.00  0.00    +0.000 C 
ATOM     25  C   UNL     1       2.648   5.954  -4.480  0.00  0.00    +0.000 C 
ATOM     26  C   UNL     1       2.888   6.069  -2.976  0.00  0.00    +0.000 C 
ATOM     27  C   UNL     1       1.571   6.192  -2.218  0.00  0.00    +0.000 C 
ATOM     28  C   UNL     1       0.597   5.069  -2.555  0.00  0.00    +0.000 C 
ATOM     29  C   UNL     1       0.448   4.842  -4.065  0.00  0.00    +0.000 C 
BRANCH  24  30
ATOM     30  O   UNL     1       1.440   4.851  -6.231  0.00  0.00    +0.000 OA
ATOM     31  H   UNL     1       2.046   4.301  -6.753  0.00  0.00    +0.000 HD
ENDBRANCH  24  30
ENDBRANCH  22  24
ENDBRANCH  17  18
ENDBRANCH   1  17
TORSDOF 7
