REMARK  Name = 
REMARK  4 active torsions:
REMARK  status: ('A' for Active; 'I' for Inactive)
REMARK    1  A    between atoms: C_2  and  C_4
REMARK    2  A    between atoms: N_8  and  C_9
REMARK    3  A    between atoms: C_9  and  C_10
REMARK    4  A    between atoms: C_14  and  N_15
REMARK                            x       y       z     vdW  Elec       q    Type
REMARK                         _______ _______ _______ _____ _____    ______ ____
ROOT
ATOM      1  C   UNL     1       3.152   3.714  -7.735  0.00  0.00    +0.000 A 
ATOM      2  C   UNL     1       2.521   2.482  -7.609  0.00  0.00    +0.000 A 
ATOM      3  C   UNL     1       3.170   1.452  -6.925  0.00  0.00    +0.000 A 
ATOM      4  C   UNL     1       4.436   1.663  -6.391  0.00  0.00    +0.000 A 
ATOM      5  N   UNL     1       5.106   0.729  -5.630  0.00  0.00    +0.000 N 
ATOM      6  N   UNL     1       5.070   2.845  -6.536  0.00  0.00    +0.000 NA
ATOM      7  C   UNL     1       4.427   3.838  -7.207  0.00  0.00    +0.000 A 
ATOM      8  H   UNL     1       6.030   1.091  -5.411  0.00  0.00    +0.000 HD
ENDROOT
BRANCH   1  10
ATOM      9  N   UNL     1       1.156   4.930  -8.385  0.00  0.00    +0.000 N 
ATOM     10  C   UNL     1       2.523   4.875  -8.396  0.00  0.00    +0.000 C 
ATOM     11  O   UNL     1       3.194   5.767  -8.897  0.00  0.00    +0.000 OA
ATOM     12  H   UNL     1       0.737   5.781  -8.741  0.00  0.00    +0.000 HD
ATOM     13  H   UNL     1       0.593   4.360  -7.772  0.00  0.00    +0.000 HD
ENDBRANCH   1  10
BRANCH   5  14
ATOM     14  C   UNL     1       5.055  -0.694  -5.918  0.00  0.00    +0.000 C 
BRANCH  14  15
ATOM     15  C   UNL     1       5.965  -1.158  -7.027  0.00  0.00    +0.000 A 
ATOM     16  C   UNL     1       5.980  -2.509  -7.356  0.00  0.00    +0.000 A 
ATOM     17  N   UNL     1       6.727  -3.042  -8.342  0.00  0.00    +0.000 NA
ATOM     18  C   UNL     1       7.509  -2.178  -9.036  0.00  0.00    +0.000 A 
ATOM     19  C   UNL     1       7.609  -0.802  -8.811  0.00  0.00    +0.000 A 
ATOM     20  C   UNL     1       6.807  -0.318  -7.771  0.00  0.00    +0.000 A 
BRANCH  19  21
ATOM     21  N   UNL     1       8.427   0.024  -9.550  0.00  0.00    +0.000 N 
ATOM     22  C   UNL     1       9.033   1.253  -9.017  0.00  0.00    +0.000 C 
ATOM     23  C   UNL     1       8.621   2.462  -9.868  0.00  0.00    +0.000 C 
ATOM     24  O   UNL     1       8.938   2.254 -11.256  0.00  0.00    +0.000 OA
ATOM     25  C   UNL     1       8.247   1.097 -11.756  0.00  0.00    +0.000 C 
ATOM     26  C   UNL     1       8.641  -0.180 -10.991  0.00  0.00    +0.000 C 
ENDBRANCH  19  21
ENDBRANCH  14  15
ENDBRANCH   5  14
TORSDOF 4
