REMARK  Name = 
REMARK  7 active torsions:
REMARK  status: ('A' for Active; 'I' for Inactive)
REMARK    1  A    between atoms: N_1  and  C_2
REMARK    2  A    between atoms: C_2  and  C_3
REMARK    3  A    between atoms: N_7  and  C_8
REMARK    4  A    between atoms: C_8  and  C_9
REMARK    5  A    between atoms: C_12  and  C_13
REMARK    6  A    between atoms: C_13  and  N_14
REMARK    7  A    between atoms: C_15  and  C_17
REMARK                            x       y       z     vdW  Elec       q    Type
REMARK                         _______ _______ _______ _____ _____    ______ ____
ROOT
ATOM      1  C   UNL     1       4.340  -4.888   6.061  0.00  0.00    +0.000 A 
ATOM      2  C   UNL     1       3.602  -4.897   7.253  0.00  0.00    +0.000 A 
ATOM      3  C   UNL     1       3.574  -6.034   8.069  0.00  0.00    +0.000 A 
ATOM      4  C   UNL     1       4.301  -7.178   7.718  0.00  0.00    +0.000 A 
ATOM      5  C   UNL     1       5.029  -7.172   6.520  0.00  0.00    +0.000 A 
ATOM      6  C   UNL     1       5.058  -6.036   5.705  0.00  0.00    +0.000 A 
ENDROOT
BRANCH   1   7
ATOM      7  C   UNL     1       4.377  -3.648   5.196  0.00  0.00    +0.000 C 
BRANCH   7  12
ATOM      8  C   UNL     1       6.370   0.779   3.682  0.00  0.00    +0.000 A 
ATOM      9  C   UNL     1       5.043   0.361   3.697  0.00  0.00    +0.000 A 
ATOM     10  C   UNL     1       4.691  -0.824   4.346  0.00  0.00    +0.000 A 
ATOM     11  C   UNL     1       5.675  -1.589   4.959  0.00  0.00    +0.000 A 
ATOM     12  N   UNL     1       5.392  -2.737   5.687  0.00  0.00    +0.000 N 
ATOM     13  N   UNL     1       6.968  -1.212   4.944  0.00  0.00    +0.000 NA
ATOM     14  C   UNL     1       7.287  -0.049   4.318  0.00  0.00    +0.000 A 
ATOM     15  H   UNL     1       6.274  -3.172   5.942  0.00  0.00    +0.000 HD
BRANCH   8  16
ATOM     16  C   UNL     1       6.791   2.049   3.003  0.00  0.00    +0.000 C 
BRANCH  16  17
ATOM     17  N   UNL     1       6.104   3.212   3.558  0.00  0.00    +0.000 NA
ATOM     18  H   UNL     1       6.487   4.058   3.141  0.00  0.00    +0.000 HD
ATOM     19  H   UNL     1       6.302   3.270   4.557  0.00  0.00    +0.000 HD
ENDBRANCH  16  17
ENDBRANCH   8  16
ENDBRANCH   7  12
ENDBRANCH   1   7
BRANCH   4  20
ATOM     20  C   UNL     1       4.289  -8.408   8.591  0.00  0.00    +0.000 C 
BRANCH  20  21
ATOM     21  N   UNL     1       3.233  -9.311   8.210  0.00  0.00    +0.000 N 
ATOM     22  C   UNL     1       2.995 -10.470   8.904  0.00  0.00    +0.000 C 
ATOM     23  O   UNL     1       3.646 -10.782   9.898  0.00  0.00    +0.000 OA
ATOM     24  H   UNL     1       2.866  -9.214   7.269  0.00  0.00    +0.000 HD
BRANCH  22  25
ATOM     25  C   UNL     1       1.873 -11.291   8.433  0.00  0.00    +0.000 A 
ATOM     26  C   UNL     1       1.228 -12.150   9.313  0.00  0.00    +0.000 A 
ATOM     27  S   UNL     1      -0.082 -12.990   8.613  0.00  0.00    +0.000 S 
ATOM     28  C   UNL     1       0.199 -12.273   7.095  0.00  0.00    +0.000 A 
ATOM     29  N   UNL     1      -0.569 -12.589   6.019  0.00  0.00    +0.000 NA
ATOM     30  C   UNL     1      -0.228 -11.993   4.926  0.00  0.00    +0.000 A 
ATOM     31  N   UNL     1       0.808 -11.102   4.813  0.00  0.00    +0.000 N 
ATOM     32  C   UNL     1       1.590 -10.728   5.879  0.00  0.00    +0.000 A 
ATOM     33  O   UNL     1       2.476  -9.890   5.754  0.00  0.00    +0.000 OA
ATOM     34  C   UNL     1       1.261 -11.386   7.129  0.00  0.00    +0.000 A 
ATOM     35  H   UNL     1       1.016 -10.659   3.930  0.00  0.00    +0.000 HD
ENDBRANCH  22  25
ENDBRANCH  20  21
ENDBRANCH   4  20
TORSDOF 7
