REMARK  Name = 
REMARK  9 active torsions:
REMARK  status: ('A' for Active; 'I' for Inactive)
REMARK    1  A    between atoms: C_1  and  C_2
REMARK    2  A    between atoms: C_2  and  N_3
REMARK    3  A    between atoms: N_3  and  C_4
REMARK    4  A    between atoms: C_4  and  C_5
REMARK    5  A    between atoms: C_8  and  C_9
REMARK    6  A    between atoms: C_9  and  N_10
REMARK    7  A    between atoms: N_10  and  C_11
REMARK    8  A    between atoms: C_11  and  C_12
REMARK    9  A    between atoms: C_19  and  C_21
REMARK                            x       y       z     vdW  Elec       q    Type
REMARK                         _______ _______ _______ _____ _____    ______ ____
ROOT
ATOM      1  C   UNL     1       1.981   1.858  -1.849  0.00  0.00    +0.000 C 
ENDROOT
BRANCH   1   2
ATOM      2  C   UNL     1       0.515   1.573  -1.669  0.00  0.00    +0.000 A 
ATOM      3  C   UNL     1       0.029   0.283  -1.939  0.00  0.00    +0.000 A 
ATOM      4  C   UNL     1      -1.227  -0.110  -1.484  0.00  0.00    +0.000 A 
ATOM      5  C   UNL     1      -2.027   0.780  -0.758  0.00  0.00    +0.000 A 
ATOM      6  C   UNL     1      -1.584   2.101  -0.581  0.00  0.00    +0.000 A 
ATOM      7  C   UNL     1      -0.321   2.496  -1.036  0.00  0.00    +0.000 A 
BRANCH   5   8
ATOM      8  C   UNL     1      -3.324   0.305  -0.144  0.00  0.00    +0.000 C 
BRANCH   8   9
ATOM      9  N   UNL     1      -3.086  -0.802   0.783  0.00  0.00    +0.000 NA
ATOM     10  H   UNL     1      -2.440  -0.503   1.511  0.00  0.00    +0.000 HD
BRANCH   9  11
ATOM     11  C   UNL     1      -4.330  -1.241   1.406  0.00  0.00    +0.000 C 
BRANCH  11  12
ATOM     12  C   UNL     1      -4.014  -2.358   2.347  0.00  0.00    +0.000 A 
ATOM     13  C   UNL     1      -3.971  -3.748   2.031  0.00  0.00    +0.000 A 
ATOM     14  C   UNL     1      -3.668  -4.438   3.183  0.00  0.00    +0.000 A 
ATOM     15  N   UNL     1      -3.513  -3.525   4.190  0.00  0.00    +0.000 N 
ATOM     16  C   UNL     1      -3.724  -2.262   3.698  0.00  0.00    +0.000 A 
ATOM     17  H   UNL     1      -3.283  -3.747   5.150  0.00  0.00    +0.000 HD
ENDBRANCH  11  12
ENDBRANCH   9  11
ENDBRANCH   8   9
ENDBRANCH   5   8
ENDBRANCH   1   2
BRANCH   1  18
ATOM     18  N   UNL     1       2.500   2.505  -3.046  0.00  0.00    +0.000 N 
ATOM     19  C   UNL     1       3.840   2.939  -3.135  0.00  0.00    +0.000 C 
ATOM     20  O   UNL     1       4.266   3.480  -4.154  0.00  0.00    +0.000 OA
BRANCH  19  21
ATOM     21  C   UNL     1       4.766   2.703  -2.007  0.00  0.00    +0.000 A 
ATOM     22  C   UNL     1       4.915   1.501  -1.330  0.00  0.00    +0.000 A 
ATOM     23  S   UNL     1       6.117   1.530  -0.117  0.00  0.00    +0.000 S 
ATOM     24  C   UNL     1       6.605   3.089  -0.579  0.00  0.00    +0.000 A 
ATOM     25  N   UNL     1       7.704   3.668  -0.026  0.00  0.00    +0.000 NA
ATOM     26  C   UNL     1       7.997   4.824  -0.525  0.00  0.00    +0.000 A 
ATOM     27  N   UNL     1       7.262   5.471  -1.486  0.00  0.00    +0.000 N 
ATOM     28  C   UNL     1       6.064   4.982  -1.970  0.00  0.00    +0.000 A 
ATOM     29  O   UNL     1       5.318   5.688  -2.633  0.00  0.00    +0.000 OA
ATOM     30  C   UNL     1       5.776   3.626  -1.546  0.00  0.00    +0.000 A 
ATOM     31  H   UNL     1       7.502   6.406  -1.777  0.00  0.00    +0.000 HD
ENDBRANCH  19  21
BRANCH  18  33
ATOM     32  C   UNL     1       1.122   4.029  -4.445  0.00  0.00    +0.000 C 
ATOM     33  C   UNL     1       1.668   2.622  -4.247  0.00  0.00    +0.000 C 
ENDBRANCH  18  33
ENDBRANCH   1  18
TORSDOF 8
