REMARK  Name = 
REMARK  12 active torsions:
REMARK  status: ('A' for Active; 'I' for Inactive)
REMARK    1  A    between atoms: C_1  and  C_2
REMARK    2  A    between atoms: C_2  and  N_3
REMARK    3  A    between atoms: C_2  and  C_22
REMARK    4  A    between atoms: N_3  and  C_4
REMARK    5  A    between atoms: C_4  and  C_5
REMARK    6  A    between atoms: C_8  and  CA_9
REMARK    7  A    between atoms: CA_9  and  C_10
REMARK    8  A    between atoms: CA_9  and  N_12
REMARK    9  A    between atoms: C_10  and  O_11
REMARK   10  A    between atoms: N_12  and  C_13
REMARK   11  A    between atoms: C_13  and  C_14
REMARK   12  A    between atoms: C_22  and  C_24
REMARK                            x       y       z     vdW  Elec       q    Type
REMARK                         _______ _______ _______ _____ _____    ______ ____
ROOT
ATOM      1  C   UNL     1       8.291   1.061   7.557  0.00  0.00    +0.000 A 
ATOM      2  C   UNL     1       7.540   0.951   6.375  0.00  0.00    +0.000 A 
ATOM      3  C   UNL     1       6.179   1.271   6.343  0.00  0.00    +0.000 A 
ATOM      4  C   UNL     1       5.502   1.689   7.494  0.00  0.00    +0.000 A 
ATOM      5  C   UNL     1       6.233   1.714   8.697  0.00  0.00    +0.000 A 
ATOM      6  C   UNL     1       7.602   1.398   8.729  0.00  0.00    +0.000 A 
ENDROOT
BRANCH   1   7
ATOM      7  C   UNL     1       9.792   0.806   7.592  0.00  0.00    +0.000 C 
BRANCH   7   8
ATOM      8  N   UNL     1      10.435   1.166   6.322  0.00  0.00    +0.000 NA
ATOM      9  H   UNL     1      10.054   0.560   5.597  0.00  0.00    +0.000 HD
BRANCH   8  11
ATOM     10  C   UNL     1      12.336  -0.435   6.450  0.00  0.00    +0.000 C 
ATOM     11  C   UNL     1      11.906   1.022   6.268  0.00  0.00    +0.000 C 
BRANCH  11  12
ATOM     12  C   UNL     1      12.651   1.988   7.219  0.00  0.00    +0.000 C 
ATOM     13  O   UNL     1      13.285   1.551   8.181  0.00  0.00    +0.000 OA
BRANCH  12  14
ATOM     14  C   UNL     1      12.596   3.443   6.974  0.00  0.00    +0.000 A 
ATOM     15  C   UNL     1      11.500   4.096   6.435  0.00  0.00    +0.000 A 
ATOM     16  S   UNL     1      11.647   5.801   6.459  0.00  0.00    +0.000 S 
ATOM     17  C   UNL     1      13.196   5.713   7.155  0.00  0.00    +0.000 A 
ATOM     18  N   UNL     1      13.882   6.838   7.486  0.00  0.00    +0.000 NA
ATOM     19  C   UNL     1      15.039   6.615   8.020  0.00  0.00    +0.000 A 
ATOM     20  N   UNL     1      15.578   5.368   8.226  0.00  0.00    +0.000 N 
ATOM     21  C   UNL     1      14.978   4.215   7.773  0.00  0.00    +0.000 A 
ATOM     22  O   UNL     1      15.605   3.160   7.698  0.00  0.00    +0.000 OA
ATOM     23  C   UNL     1      13.615   4.405   7.309  0.00  0.00    +0.000 A 
ATOM     24  H   UNL     1      16.533   5.271   8.541  0.00  0.00    +0.000 HD
ENDBRANCH  12  14
ENDBRANCH  11  12
ENDBRANCH   8  11
ENDBRANCH   7   8
ENDBRANCH   1   7
BRANCH   4  25
ATOM     25  CA  UNL     1       4.042   2.168   7.460  0.00  0.00    +0.000 C 
BRANCH  25  26
ATOM     26  N   UNL     1       3.499   2.229   6.077  0.00  0.00    +0.000 NA
ATOM     27  H   UNL     1       3.278   1.267   5.803  0.00  0.00    +0.000 HD
BRANCH  26  28
ATOM     28  C   UNL     1       2.234   2.982   6.017  0.00  0.00    +0.000 C 
BRANCH  28  29
ATOM     29  C   UNL     1       1.610   3.033   4.633  0.00  0.00    +0.000 A 
ATOM     30  C   UNL     1       2.239   3.699   3.585  0.00  0.00    +0.000 A 
ATOM     31  C   UNL     1       1.582   3.794   2.358  0.00  0.00    +0.000 A 
ATOM     32  C   UNL     1       0.324   3.220   2.209  0.00  0.00    +0.000 A 
ATOM     33  C   UNL     1      -0.225   2.564   3.295  0.00  0.00    +0.000 A 
ATOM     34  N   UNL     1       0.385   2.459   4.495  0.00  0.00    +0.000 NA
ENDBRANCH  28  29
ENDBRANCH  26  28
ENDBRANCH  25  26
BRANCH  25  35
ATOM     35  C   UNL     1       3.151   1.300   8.392  0.00  0.00    +0.000 C 
BRANCH  35  36
ATOM     36  O   UNL     1       2.943  -0.008   7.855  0.00  0.00    +0.000 OA
ATOM     37  H   UNL     1       3.807  -0.457   7.875  0.00  0.00    +0.000 HD
ENDBRANCH  35  36
ENDBRANCH  25  35
ENDBRANCH   4  25
TORSDOF 11
