REMARK  Name = 
REMARK  12 active torsions:
REMARK  status: ('A' for Active; 'I' for Inactive)
REMARK    1  A    between atoms: C_1  and  O_2
REMARK    2  A    between atoms: O_2  and  C_3
REMARK    3  A    between atoms: C_3  and  C_5
REMARK    4  A    between atoms: N_9  and  C_10
REMARK    5  A    between atoms: C_10  and  C_11
REMARK    6  A    between atoms: C_11  and  C_12
REMARK    7  A    between atoms: C_11  and  C_13
REMARK    8  A    between atoms: C_17  and  C_18
REMARK    9  A    between atoms: C_18  and  C_19
REMARK   10  A    between atoms: C_18  and  C_20
REMARK   11  A    between atoms: C_18  and  C_21
REMARK   12  A    between atoms: C_21  and  O_22
REMARK                            x       y       z     vdW  Elec       q    Type
REMARK                         _______ _______ _______ _____ _____    ______ ____
ROOT
ATOM      1  C   UNL     1      10.955  -0.097   0.916  0.00  0.00    +0.000 C 
ATOM      2  C   UNL     1      11.403  -0.924  -0.292  0.00  0.00    +0.000 C 
ENDROOT
BRANCH   1   3
ATOM      3  C   UNL     1      11.720   1.225   0.986  0.00  0.00    +0.000 A 
ATOM      4  C   UNL     1      11.598   2.180  -0.034  0.00  0.00    +0.000 A 
ATOM      5  C   UNL     1      12.231   3.412   0.072  0.00  0.00    +0.000 A 
ATOM      6  C   UNL     1      12.986   3.714   1.203  0.00  0.00    +0.000 A 
ATOM      7  C   UNL     1      13.125   2.798   2.261  0.00  0.00    +0.000 A 
ATOM      8  C   UNL     1      12.500   1.540   2.115  0.00  0.00    +0.000 A 
BRANCH   7   9
ATOM      9  C   UNL     1      13.873   3.164   3.562  0.00  0.00    +0.000 C 
ATOM     10  C   UNL     1      14.386   4.625   3.567  0.00  0.00    +0.000 C 
ATOM     11  C   UNL     1      12.899   3.025   4.756  0.00  0.00    +0.000 C 
BRANCH   9  12
ATOM     12  C   UNL     1      15.081   2.222   3.815  0.00  0.00    +0.000 C 
BRANCH  12  13
ATOM     13  O   UNL     1      16.079   2.328   2.805  0.00  0.00    +0.000 OA
ATOM     14  H   UNL     1      15.690   1.975   1.986  0.00  0.00    +0.000 HD
ENDBRANCH  12  13
ENDBRANCH   9  12
ENDBRANCH   7   9
ENDBRANCH   1   3
BRANCH   1  15
ATOM     15  C   UNL     1       9.445   0.208   0.894  0.00  0.00    +0.000 C 
BRANCH  15  20
ATOM     16  C   UNL     1       4.456  -0.855   1.079  0.00  0.00    +0.000 A 
ATOM     17  C   UNL     1       5.150   0.349   0.993  0.00  0.00    +0.000 A 
ATOM     18  C   UNL     1       6.541   0.327   0.943  0.00  0.00    +0.000 A 
ATOM     19  C   UNL     1       7.226  -0.886   0.971  0.00  0.00    +0.000 A 
ATOM     20  N   UNL     1       8.598  -0.967   0.946  0.00  0.00    +0.000 N 
ATOM     21  N   UNL     1       6.564  -2.057   1.036  0.00  0.00    +0.000 NA
ATOM     22  C   UNL     1       5.204  -2.021   1.095  0.00  0.00    +0.000 A 
ATOM     23  H   UNL     1       8.969  -1.907   0.928  0.00  0.00    +0.000 HD
BRANCH  16  24
ATOM     24  C   UNL     1       2.983  -0.931   1.167  0.00  0.00    +0.000 C 
ATOM     25  O   UNL     1       2.370  -1.975   1.265  0.00  0.00    +0.000 OA
BRANCH  24  27
ATOM     26  C   UNL     1       1.020   0.344   1.234  0.00  0.00    +0.000 C 
ATOM     27  O   UNL     1       2.447   0.314   1.135  0.00  0.00    +0.000 OA
ENDBRANCH  24  27
ENDBRANCH  16  24
ENDBRANCH  15  20
ENDBRANCH   1  15
TORSDOF 8
