REMARK  Name = 
REMARK  5 active torsions:
REMARK  status: ('A' for Active; 'I' for Inactive)
REMARK    1  A    between atoms: N_3  and  C_4
REMARK    2  A    between atoms: C_4  and  C_5
REMARK    3  A    between atoms: C_8  and  C_25
REMARK    4  A    between atoms: C_9  and  N_10
REMARK    5  A    between atoms: C_11  and  C_13
REMARK                            x       y       z     vdW  Elec       q    Type
REMARK                         _______ _______ _______ _____ _____    ______ ____
ROOT
ATOM      1  C   UNL     1       4.932   0.207   2.838  0.00  0.00    +0.000 C 
ATOM      2  C   UNL     1       4.928  -0.890   3.628  0.00  0.00    +0.000 C 
ATOM      3  C   UNL     1       5.432  -0.968   4.990  0.00  0.00    +0.000 C 
ATOM      4  C   UNL     1       5.271  -0.009   5.931  0.00  0.00    +0.000 C 
ATOM      5  C   UNL     1       4.473   1.250   5.578  0.00  0.00    +0.000 C 
ATOM      6  C   UNL     1       5.180   2.029   4.501  0.00  0.00    +0.000 C 
ATOM      7  C   UNL     1       5.388   1.527   3.270  0.00  0.00    +0.000 C 
ENDROOT
BRANCH   4   8
ATOM      8  C   UNL     1       5.987  -0.213   7.144  0.00  0.00    +0.000 A 
ATOM      9  C   UNL     1       7.250   0.114   7.587  0.00  0.00    +0.000 A 
ATOM     10  N   UNL     1       7.415  -0.249   8.901  0.00  0.00    +0.000 NA
ATOM     11  C   UNL     1       6.273  -0.793   9.252  0.00  0.00    +0.000 A 
ATOM     12  N   UNL     1       5.385  -0.818   8.218  0.00  0.00    +0.000 N 
ATOM     13  H   UNL     1       4.442  -1.189   8.243  0.00  0.00    +0.000 HD
ENDBRANCH   4   8
BRANCH   5  14
ATOM     14  N   UNL     1       4.282   2.094   6.731  0.00  0.00    +0.000 N 
ATOM     15  C   UNL     1       3.272   1.862   7.626  0.00  0.00    +0.000 C 
ATOM     16  O   UNL     1       2.474   0.937   7.485  0.00  0.00    +0.000 OA
ATOM     17  H   UNL     1       4.953   2.834   6.903  0.00  0.00    +0.000 HD
BRANCH  15  18
ATOM     18  C   UNL     1       3.215   2.732   8.806  0.00  0.00    +0.000 A 
ATOM     19  C   UNL     1       2.525   2.306   9.932  0.00  0.00    +0.000 A 
ATOM     20  S   UNL     1       2.537   3.433  11.209  0.00  0.00    +0.000 S 
ATOM     21  C   UNL     1       3.423   4.553  10.282  0.00  0.00    +0.000 A 
ATOM     22  N   UNL     1       3.729   5.779  10.781  0.00  0.00    +0.000 NA
ATOM     23  C   UNL     1       4.374   6.541   9.962  0.00  0.00    +0.000 A 
ATOM     24  N   UNL     1       4.757   6.179   8.696  0.00  0.00    +0.000 N 
ATOM     25  C   UNL     1       4.530   4.926   8.177  0.00  0.00    +0.000 A 
ATOM     26  O   UNL     1       4.993   4.594   7.089  0.00  0.00    +0.000 OA
ATOM     27  C   UNL     1       3.753   4.050   9.034  0.00  0.00    +0.000 A 
ATOM     28  H   UNL     1       5.295   6.810   8.120  0.00  0.00    +0.000 HD
ENDBRANCH  15  18
ENDBRANCH   5  14
BRANCH   1  29
ATOM     29  C   UNL     1       4.469   0.128   1.404  0.00  0.00    +0.000 C 
BRANCH  29  32
ATOM     30  O   UNL     1       4.440  -0.234  -1.406  0.00  0.00    +0.000 OA
ATOM     31  C   UNL     1       5.487  -0.302  -0.781  0.00  0.00    +0.000 C 
ATOM     32  N   UNL     1       5.618  -0.136   0.570  0.00  0.00    +0.000 N 
ATOM     33  H   UNL     1       6.531  -0.227   0.995  0.00  0.00    +0.000 HD
ENDBRANCH  29  32
ENDBRANCH   1  29
TORSDOF 5
