REMARK  Name = 
REMARK  5 active torsions:
REMARK  status: ('A' for Active; 'I' for Inactive)
REMARK    1  A    between atoms: C_2  and  C_4
REMARK    2  A    between atoms: C_7  and  O_8
REMARK    3  A    between atoms: O_8  and  C_9
REMARK    4  A    between atoms: C_9  and  C_10
REMARK    5  A    between atoms: C_15  and  C_16
REMARK                            x       y       z     vdW  Elec       q    Type
REMARK                         _______ _______ _______ _____ _____    ______ ____
ROOT
ATOM      1  C   UNL     1       6.372  -3.474   5.819  0.00  0.00    +0.000 A 
ATOM      2  C   UNL     1       7.072  -2.457   6.474  0.00  0.00    +0.000 A 
ATOM      3  C   UNL     1       7.986  -2.774   7.474  0.00  0.00    +0.000 A 
ATOM      4  C   UNL     1       8.190  -4.105   7.840  0.00  0.00    +0.000 A 
ATOM      5  F   UNL     1       9.062  -4.338   8.833  0.00  0.00    +0.000 F 
ATOM      6  C   UNL     1       7.504  -5.166   7.223  0.00  0.00    +0.000 A 
ATOM      7  C   UNL     1       6.592  -4.813   6.206  0.00  0.00    +0.000 A 
ENDROOT
BRANCH   6   8
ATOM      8  C   UNL     1       7.709  -6.585   7.612  0.00  0.00    +0.000 A 
ATOM      9  C   UNL     1       8.964  -7.062   8.043  0.00  0.00    +0.000 A 
ATOM     10  C   UNL     1       9.160  -8.397   8.420  0.00  0.00    +0.000 A 
ATOM     11  C   UNL     1       8.104  -9.298   8.357  0.00  0.00    +0.000 A 
ATOM     12  C   UNL     1       6.864  -8.852   7.924  0.00  0.00    +0.000 A 
ATOM     13  F   UNL     1       5.843  -9.717   7.854  0.00  0.00    +0.000 F 
ATOM     14  C   UNL     1       6.659  -7.521   7.563  0.00  0.00    +0.000 A 
ENDBRANCH   6   8
BRANCH   1  15
ATOM     15  C   UNL     1       5.321  -3.171   4.771  0.00  0.00    +0.000 C 
BRANCH  15  16
ATOM     16  O   UNL     1       5.653  -1.988   4.039  0.00  0.00    +0.000 OA
BRANCH  16  20
ATOM     17  C   UNL     1       2.799  -0.951   1.254  0.00  0.00    +0.000 A 
ATOM     18  C   UNL     1       3.931  -0.149   1.418  0.00  0.00    +0.000 A 
ATOM     19  C   UNL     1       4.893  -0.514   2.362  0.00  0.00    +0.000 A 
ATOM     20  C   UNL     1       4.688  -1.666   3.106  0.00  0.00    +0.000 A 
ATOM     21  N   UNL     1       3.607  -2.462   2.967  0.00  0.00    +0.000 NA
ATOM     22  C   UNL     1       2.682  -2.083   2.053  0.00  0.00    +0.000 A 
BRANCH  17  24
ATOM     23  N   UNL     1       2.014   0.106  -0.791  0.00  0.00    +0.000 N 
ATOM     24  C   UNL     1       1.707  -0.643   0.309  0.00  0.00    +0.000 C 
ATOM     25  O   UNL     1       0.575  -1.071   0.486  0.00  0.00    +0.000 OA
ATOM     26  H   UNL     1       1.275   0.219  -1.474  0.00  0.00    +0.000 HD
ATOM     27  H   UNL     1       2.963   0.268  -1.099  0.00  0.00    +0.000 HD
ENDBRANCH  17  24
ENDBRANCH  16  20
ENDBRANCH  15  16
ENDBRANCH   1  15
TORSDOF 5
