REMARK  Name = 
REMARK  5 active torsions:
REMARK  status: ('A' for Active; 'I' for Inactive)
REMARK    1  A    between atoms: N_1  and  C_2
REMARK    2  A    between atoms: C_2  and  C_3
REMARK    3  A    between atoms: C_3  and  C_4
REMARK    4  A    between atoms: C_8  and  C_9
REMARK    5  A    between atoms: C_9  and  N_10
REMARK                            x       y       z     vdW  Elec       q    Type
REMARK                         _______ _______ _______ _____ _____    ______ ____
ROOT
ATOM      1  C   UNL     1       4.519   1.370   0.440  0.00  0.00    +0.000 A 
ATOM      2  C   UNL     1       5.207   0.758   1.482  0.00  0.00    +0.000 A 
ATOM      3  N   UNL     1       6.550   0.783   1.619  0.00  0.00    +0.000 NA
ATOM      4  C   UNL     1       7.246   1.447   0.671  0.00  0.00    +0.000 A 
ATOM      5  C   UNL     1       6.669   2.092  -0.418  0.00  0.00    +0.000 A 
ATOM      6  C   UNL     1       5.274   2.053  -0.518  0.00  0.00    +0.000 A 
ENDROOT
BRANCH   1   7
ATOM      7  C   UNL     1       3.016   1.320   0.373  0.00  0.00    +0.000 C 
BRANCH   7   8
ATOM      8  C   UNL     1       2.386   2.511   1.101  0.00  0.00    +0.000 C 
BRANCH   8   9
ATOM      9  N   UNL     1       0.928   2.439   1.069  0.00  0.00    +0.000 NA
ATOM     10  H   UNL     1       0.543   3.242   1.567  0.00  0.00    +0.000 HD
ATOM     11  H   UNL     1       0.612   1.616   1.581  0.00  0.00    +0.000 HD
ENDBRANCH   8   9
ENDBRANCH   7   8
ENDBRANCH   1   7
BRANCH   5  12
ATOM     12  C   UNL     1       7.524   2.710  -1.479  0.00  0.00    +0.000 C 
BRANCH  12  13
ATOM     13  N   UNL     1       7.735   4.152  -1.334  0.00  0.00    +0.000 N 
ATOM     14  C   UNL     1       6.881   5.098  -1.855  0.00  0.00    +0.000 A 
ATOM     15  C   UNL     1       7.598   6.256  -2.046  0.00  0.00    +0.000 A 
ATOM     16  C   UNL     1       8.910   6.042  -1.545  0.00  0.00    +0.000 A 
ATOM     17  C   UNL     1      10.074   6.821  -1.500  0.00  0.00    +0.000 A 
ATOM     18  N   UNL     1      11.189   6.361  -0.881  0.00  0.00    +0.000 NA
ATOM     19  C   UNL     1      11.153   5.143  -0.302  0.00  0.00    +0.000 A 
ATOM     20  C   UNL     1      10.070   4.276  -0.334  0.00  0.00    +0.000 A 
ATOM     21  C   UNL     1       8.938   4.751  -1.004  0.00  0.00    +0.000 A 
ENDBRANCH  12  13
ENDBRANCH   5  12
TORSDOF 5
