REMARK  Name = 
REMARK  4 active torsions:
REMARK  status: ('A' for Active; 'I' for Inactive)
REMARK    1  A    between atoms: C_2  and  C_4
REMARK    2  A    between atoms: C_7  and  N_8
REMARK    3  A    between atoms: N_8  and  C_9
REMARK    4  A    between atoms: C_9  and  C_10
REMARK                            x       y       z     vdW  Elec       q    Type
REMARK                         _______ _______ _______ _____ _____    ______ ____
ROOT
ATOM      1  C   UNL     1       3.115  -1.007  -0.685  0.00  0.00    +0.000 A 
ATOM      2  N   UNL     1       3.689  -2.018   0.037  0.00  0.00    +0.000 NA
ATOM      3  C   UNL     1       4.350  -2.970  -0.672  0.00  0.00    +0.000 A 
ATOM      4  C   UNL     1       4.467  -3.008  -2.063  0.00  0.00    +0.000 A 
ATOM      5  C   UNL     1       3.852  -1.959  -2.749  0.00  0.00    +0.000 A 
ATOM      6  C   UNL     1       3.189  -0.931  -2.074  0.00  0.00    +0.000 A 
ATOM      7 CL   UNL     1       2.552   0.346  -3.045  0.00  0.00    +0.000 Cl
ENDROOT
BRANCH   1   9
ATOM      8  N   UNL     1       2.322  -0.184   1.483  0.00  0.00    +0.000 N 
ATOM      9  C   UNL     1       2.372   0.009   0.126  0.00  0.00    +0.000 C 
ATOM     10  O   UNL     1       1.797   0.983  -0.355  0.00  0.00    +0.000 OA
ATOM     11  H   UNL     1       1.806   0.491   2.034  0.00  0.00    +0.000 HD
ATOM     12  H   UNL     1       2.753  -0.981   1.920  0.00  0.00    +0.000 HD
ENDBRANCH   1   9
BRANCH   4  13
ATOM     13  N   UNL     1       5.138  -4.030  -2.707  0.00  0.00    +0.000 N 
ATOM     14  H   UNL     1       5.751  -4.634  -2.170  0.00  0.00    +0.000 HD
BRANCH  13  15
ATOM     15  C   UNL     1       4.778  -4.490  -4.037  0.00  0.00    +0.000 C 
BRANCH  15  16
ATOM     16  C   UNL     1       5.917  -4.295  -5.002  0.00  0.00    +0.000 A 
ATOM     17  C   UNL     1       6.885  -5.294  -5.175  0.00  0.00    +0.000 A 
ATOM     18  C   UNL     1       7.911  -5.128  -6.107  0.00  0.00    +0.000 A 
ATOM     19  C   UNL     1       7.971  -3.970  -6.880  0.00  0.00    +0.000 A 
ATOM     20  C   UNL     1       7.020  -2.967  -6.709  0.00  0.00    +0.000 A 
ATOM     21  C   UNL     1       6.011  -3.119  -5.760  0.00  0.00    +0.000 A 
ENDBRANCH  15  16
ENDBRANCH  13  15
ENDBRANCH   4  13
TORSDOF 4
