REMARK  Name = 
REMARK  7 active torsions:
REMARK  status: ('A' for Active; 'I' for Inactive)
REMARK    1  A    between atoms: C_5  and  C_6
REMARK    2  A    between atoms: C_6  and  N_7
REMARK    3  A    between atoms: N_7  and  C_8
REMARK    4  A    between atoms: C_8  and  C_9
REMARK    5  A    between atoms: C_12  and  C_13
REMARK    6  A    between atoms: C_13  and  N_14
REMARK    7  A    between atoms: C_15  and  C_17
REMARK                            x       y       z     vdW  Elec       q    Type
REMARK                         _______ _______ _______ _____ _____    ______ ____
ROOT
ATOM      1  C   UNL     1       6.115  -1.997   0.007  0.00  0.00    +0.000 A 
ATOM      2  C   UNL     1       7.486  -2.028   0.306  0.00  0.00    +0.000 A 
ATOM      3  C   UNL     1       8.179  -3.241   0.363  0.00  0.00    +0.000 A 
ATOM      4  C   UNL     1       7.515  -4.451   0.126  0.00  0.00    +0.000 A 
ATOM      5  C   UNL     1       6.137  -4.425  -0.125  0.00  0.00    +0.000 A 
ATOM      6  C   UNL     1       5.446  -3.212  -0.192  0.00  0.00    +0.000 A 
ENDROOT
BRANCH   1   7
ATOM      7  C   UNL     1       5.374  -0.680  -0.089  0.00  0.00    +0.000 C 
BRANCH   7   8
ATOM      8  N   UNL     1       5.889   0.139  -1.187  0.00  0.00    +0.000 NA
ATOM      9  H   UNL     1       6.883   0.312  -1.035  0.00  0.00    +0.000 HD
BRANCH   8  10
ATOM     10  C   UNL     1       5.220   1.442  -1.241  0.00  0.00    +0.000 C 
BRANCH  10  15
ATOM     11  N   UNL     1       7.256   4.676  -5.351  0.00  0.00    +0.000 N 
ATOM     12  C   UNL     1       6.791   3.842  -4.336  0.00  0.00    +0.000 A 
ATOM     13  C   UNL     1       7.308   3.888  -3.042  0.00  0.00    +0.000 A 
ATOM     14  N   UNL     1       6.841   3.128  -2.019  0.00  0.00    +0.000 NA
ATOM     15  C   UNL     1       5.800   2.314  -2.332  0.00  0.00    +0.000 A 
ATOM     16  C   UNL     1       5.298   2.258  -3.629  0.00  0.00    +0.000 A 
ATOM     17  N   UNL     1       5.772   3.023  -4.645  0.00  0.00    +0.000 NA
ATOM     18  H   UNL     1       8.260   4.619  -5.466  0.00  0.00    +0.000 HD
ATOM     19  H   UNL     1       6.758   4.415  -6.200  0.00  0.00    +0.000 HD
ENDBRANCH  10  15
ENDBRANCH   8  10
ENDBRANCH   7   8
ENDBRANCH   1   7
BRANCH   4  20
ATOM     20  C   UNL     1       8.255  -5.761   0.184  0.00  0.00    +0.000 C 
BRANCH  20  21
ATOM     21  N   UNL     1       8.231  -6.307   1.517  0.00  0.00    +0.000 N 
ATOM     22  C   UNL     1       8.915  -7.452   1.831  0.00  0.00    +0.000 C 
ATOM     23  O   UNL     1       9.614  -8.040   1.011  0.00  0.00    +0.000 OA
ATOM     24  H   UNL     1       7.501  -5.970   2.136  0.00  0.00    +0.000 HD
BRANCH  22  25
ATOM     25  C   UNL     1       8.824  -7.905   3.225  0.00  0.00    +0.000 A 
ATOM     26  C   UNL     1       9.813  -8.730   3.744  0.00  0.00    +0.000 A 
ATOM     27  S   UNL     1       9.589  -9.116   5.390  0.00  0.00    +0.000 S 
ATOM     28  C   UNL     1       8.134  -8.238   5.454  0.00  0.00    +0.000 A 
ATOM     29  N   UNL     1       7.404  -8.179   6.601  0.00  0.00    +0.000 NA
ATOM     30  C   UNL     1       6.307  -7.506   6.500  0.00  0.00    +0.000 A 
ATOM     31  N   UNL     1       5.876  -6.880   5.362  0.00  0.00    +0.000 N 
ATOM     32  C   UNL     1       6.591  -6.890   4.185  0.00  0.00    +0.000 A 
ATOM     33  O   UNL     1       6.194  -6.289   3.193  0.00  0.00    +0.000 OA
ATOM     34  C   UNL     1       7.831  -7.643   4.242  0.00  0.00    +0.000 A 
ATOM     35  H   UNL     1       5.009  -6.365   5.348  0.00  0.00    +0.000 HD
ENDBRANCH  22  25
ENDBRANCH  20  21
ENDBRANCH   4  20
TORSDOF 7
