REMARK  Name = 
REMARK  4 active torsions:
REMARK  status: ('A' for Active; 'I' for Inactive)
REMARK    1  A    between atoms: C_2  and  C_4
REMARK    2  A    between atoms: N_8  and  C_9
REMARK    3  A    between atoms: C_9  and  C_10
REMARK    4  A    between atoms: C_10  and  C_11
REMARK                            x       y       z     vdW  Elec       q    Type
REMARK                         _______ _______ _______ _____ _____    ______ ____
ROOT
ATOM      1  C   UNL     1       3.178   0.976   1.077  0.00  0.00    +0.000 A 
ATOM      2  C   UNL     1       4.465   1.260   0.638  0.00  0.00    +0.000 A 
ATOM      3  C   UNL     1       5.186   2.284   1.264  0.00  0.00    +0.000 A 
ATOM      4  C   UNL     1       4.628   2.969   2.344  0.00  0.00    +0.000 A 
ATOM      5  N   UNL     1       5.351   4.030   2.922  0.00  0.00    +0.000 N 
ATOM      6  N   UNL     1       3.377   2.697   2.770  0.00  0.00    +0.000 NA
ATOM      7  C   UNL     1       2.672   1.732   2.122  0.00  0.00    +0.000 A 
ATOM      8  H   UNL     1       6.347   3.911   2.773  0.00  0.00    +0.000 HD
ENDROOT
BRANCH   1  10
ATOM      9  N   UNL     1       2.961  -1.134  -0.110  0.00  0.00    +0.000 N 
ATOM     10  C   UNL     1       2.331  -0.063   0.461  0.00  0.00    +0.000 C 
ATOM     11  O   UNL     1       1.108   0.009   0.489  0.00  0.00    +0.000 OA
ATOM     12  H   UNL     1       2.365  -1.884  -0.434  0.00  0.00    +0.000 HD
ATOM     13  H   UNL     1       3.932  -1.351   0.066  0.00  0.00    +0.000 HD
ENDBRANCH   1  10
BRANCH   5  14
ATOM     14  C   UNL     1       5.022   4.244   4.337  0.00  0.00    +0.000 C 
BRANCH  14  15
ATOM     15  C   UNL     1       5.922   5.340   4.928  0.00  0.00    +0.000 C 
BRANCH  15  16
ATOM     16  C   UNL     1       5.631   5.613   6.383  0.00  0.00    +0.000 A 
ATOM     17  C   UNL     1       6.303   4.924   7.397  0.00  0.00    +0.000 A 
ATOM     18  C   UNL     1       5.993   5.211   8.719  0.00  0.00    +0.000 A 
ATOM     19  N   UNL     1       5.071   6.122   9.095  0.00  0.00    +0.000 NA
ATOM     20  C   UNL     1       4.428   6.772   8.103  0.00  0.00    +0.000 A 
ATOM     21  C   UNL     1       4.666   6.554   6.754  0.00  0.00    +0.000 A 
ENDBRANCH  15  16
ENDBRANCH  14  15
ENDBRANCH   5  14
TORSDOF 4
