REMARK  Name = 
REMARK  6 active torsions:
REMARK  status: ('A' for Active; 'I' for Inactive)
REMARK    1  A    between atoms: C_5  and  O_6
REMARK    2  A    between atoms: O_6  and  C_7
REMARK    3  A    between atoms: C_7  and  C_8
REMARK    4  A    between atoms: C_8  and  C_11
REMARK    5  A    between atoms: C_13  and  O_14
REMARK    6  A    between atoms: O_14  and  C_15
REMARK                            x       y       z     vdW  Elec       q    Type
REMARK                         _______ _______ _______ _____ _____    ______ ____
ROOT
ATOM      1  C   UNL     1      -5.501   0.998   0.018  0.00  0.00    +0.000 C 
ATOM      2  F   UNL     1      -5.774   0.230  -1.083  0.00  0.00    +0.000 F 
ATOM      3  F   UNL     1      -5.877   0.233   1.090  0.00  0.00    +0.000 F 
ENDROOT
BRANCH   1   4
ATOM      4  C   UNL     1      -6.284   2.309  -0.025  0.00  0.00    +0.000 A 
ATOM      5  C   UNL     1      -7.676   2.249  -0.117  0.00  0.00    +0.000 A 
ATOM      6  C   UNL     1      -8.393   3.438  -0.173  0.00  0.00    +0.000 A 
ATOM      7  C   UNL     1      -7.719   4.651  -0.104  0.00  0.00    +0.000 A 
ATOM      8  C   UNL     1      -6.342   4.631  -0.007  0.00  0.00    +0.000 A 
ATOM      9  N   UNL     1      -5.613   3.493   0.026  0.00  0.00    +0.000 NA
BRANCH   6  10
ATOM     10  O   UNL     1      -9.759   3.524  -0.260  0.00  0.00    +0.000 OA
BRANCH  10  11
ATOM     11  C   UNL     1     -10.486   2.428  -0.863  0.00  0.00    +0.000 C 
ATOM     12  C   UNL     1     -10.299   2.181  -2.376  0.00  0.00    +0.000 C 
ATOM     13  N   UNL     1     -11.761   2.057  -2.535  0.00  0.00    +0.000 NA
ATOM     14  C   UNL     1     -11.951   2.741  -1.241  0.00  0.00    +0.000 C 
ATOM     15  H   UNL     1     -12.094   1.093  -2.541  0.00  0.00    +0.000 HD
ENDBRANCH  10  11
ENDBRANCH   6  10
ENDBRANCH   1   4
BRANCH   1  16
ATOM     16  C   UNL     1      -3.985   1.235   0.087  0.00  0.00    +0.000 C 
BRANCH  16  17
ATOM     17  O   UNL     1      -3.275  -0.014   0.140  0.00  0.00    +0.000 OA
BRANCH  17  22
ATOM     18  F   UNL     1       2.208  -0.108   0.426  0.00  0.00    +0.000 F 
ATOM     19  C   UNL     1       0.872  -0.055   0.357  0.00  0.00    +0.000 A 
ATOM     20  C   UNL     1       0.238   1.180   0.290  0.00  0.00    +0.000 A 
ATOM     21  C   UNL     1      -1.156   1.241   0.217  0.00  0.00    +0.000 A 
ATOM     22  C   UNL     1      -1.910   0.063   0.211  0.00  0.00    +0.000 A 
ATOM     23  C   UNL     1      -1.257  -1.172   0.279  0.00  0.00    +0.000 A 
ATOM     24  C   UNL     1       0.137  -1.233   0.352  0.00  0.00    +0.000 A 
ENDBRANCH  17  22
ENDBRANCH  16  17
ENDBRANCH   1  16
TORSDOF 6
