REMARK  Name = 
REMARK  5 active torsions:
REMARK  status: ('A' for Active; 'I' for Inactive)
REMARK    1  A    between atoms: C_2  and  C_4
REMARK    2  A    between atoms: C_7  and  N_8
REMARK    3  A    between atoms: N_8  and  C_9
REMARK    4  A    between atoms: C_9  and  C_10
REMARK    5  A    between atoms: C_14  and  C_15
REMARK                            x       y       z     vdW  Elec       q    Type
REMARK                         _______ _______ _______ _____ _____    ______ ____
ROOT
ATOM      1  C   UNL     1       4.956   5.835   1.269  0.00  0.00    +0.000 C 
ATOM      2  C   UNL     1       4.852   5.907   2.790  0.00  0.00    +0.000 C 
ATOM      3  C   UNL     1       3.642   6.151   1.950  0.00  0.00    +0.000 C 
ENDROOT
BRANCH   1   4
ATOM      4  C   UNL     1       5.709   6.950   0.543  0.00  0.00    +0.000 A 
ATOM      5  C   UNL     1       6.963   7.395   0.989  0.00  0.00    +0.000 A 
ATOM      6  C   UNL     1       7.688   8.351   0.280  0.00  0.00    +0.000 A 
ATOM      7  C   UNL     1       7.182   8.867  -0.912  0.00  0.00    +0.000 A 
ATOM      8  C   UNL     1       5.942   8.449  -1.418  0.00  0.00    +0.000 A 
ATOM      9  C   UNL     1       5.217   7.514  -0.654  0.00  0.00    +0.000 A 
BRANCH   8  10
ATOM     10  C   UNL     1       5.448   8.932  -2.727  0.00  0.00    +0.000 A 
ATOM     11  C   UNL     1       6.315   9.139  -3.810  0.00  0.00    +0.000 A 
ATOM     12  C   UNL     1       5.832   9.581  -5.043  0.00  0.00    +0.000 A 
ATOM     13  C   UNL     1       4.474   9.799  -5.172  0.00  0.00    +0.000 A 
ATOM     14  N   UNL     1       3.592   9.606  -4.170  0.00  0.00    +0.000 NA
ATOM     15  C   UNL     1       4.099   9.183  -2.983  0.00  0.00    +0.000 A 
ENDBRANCH   8  10
ENDBRANCH   1   4
BRANCH   1  16
ATOM     16  N   UNL     1       5.258   4.486   0.749  0.00  0.00    +0.000 N 
ATOM     17  H   UNL     1       6.244   4.241   0.788  0.00  0.00    +0.000 HD
BRANCH  16  21
ATOM     18  C   UNL     1       3.412   2.510  -2.509  0.00  0.00    +0.000 A 
ATOM     19  C   UNL     1       2.881   3.721  -2.054  0.00  0.00    +0.000 A 
ATOM     20  C   UNL     1       3.478   4.388  -0.975  0.00  0.00    +0.000 A 
ATOM     21  C   UNL     1       4.635   3.891  -0.369  0.00  0.00    +0.000 A 
ATOM     22  C   UNL     1       5.127   2.653  -0.809  0.00  0.00    +0.000 A 
ATOM     23  C   UNL     1       4.524   1.965  -1.867  0.00  0.00    +0.000 A 
BRANCH  18  25
ATOM     24  N   UNL     1       2.127   2.476  -4.578  0.00  0.00    +0.000 N 
ATOM     25  C   UNL     1       2.802   1.754  -3.631  0.00  0.00    +0.000 C 
ATOM     26  O   UNL     1       2.930   0.542  -3.737  0.00  0.00    +0.000 OA
ATOM     27  H   UNL     1       1.819   1.962  -5.394  0.00  0.00    +0.000 HD
ATOM     28  H   UNL     1       2.229   3.476  -4.666  0.00  0.00    +0.000 HD
ENDBRANCH  18  25
ENDBRANCH  16  21
ENDBRANCH   1  16
TORSDOF 5
