REMARK  Name = 
REMARK  8 active torsions:
REMARK  status: ('A' for Active; 'I' for Inactive)
REMARK    1  A    between atoms: N_1  and  C_2
REMARK    2  A    between atoms: C_2  and  C_3
REMARK    3  A    between atoms: C_3  and  N_4
REMARK    4  A    between atoms: C_3  and  C_17
REMARK    5  A    between atoms: C_5  and  C_7
REMARK    6  A    between atoms: C_20  and  O_21
REMARK    7  A    between atoms: O_21  and  C_22
REMARK    8  A    between atoms: C_22  and  C_23
REMARK                            x       y       z     vdW  Elec       q    Type
REMARK                         _______ _______ _______ _____ _____    ______ ____
ROOT
ATOM      1  C   UNL     1       3.062  -0.856  -0.946  0.00  0.00    +0.000 C 
ENDROOT
BRANCH   1   2
ATOM      2  C   UNL     1       4.575  -1.033  -1.047  0.00  0.00    +0.000 A 
ATOM      3  C   UNL     1       5.190  -2.150  -0.464  0.00  0.00    +0.000 A 
ATOM      4  C   UNL     1       6.531  -2.438  -0.733  0.00  0.00    +0.000 A 
ATOM      5  C   UNL     1       7.264  -1.612  -1.585  0.00  0.00    +0.000 A 
ATOM      6  C   UNL     1       6.702  -0.417  -2.030  0.00  0.00    +0.000 A 
ATOM      7  C   UNL     1       5.368  -0.129  -1.760  0.00  0.00    +0.000 A 
BRANCH   5   8
ATOM      8  O   UNL     1       8.504  -2.060  -1.961  0.00  0.00    +0.000 OA
BRANCH   8   9
ATOM      9  C   UNL     1       8.903  -1.602  -3.264  0.00  0.00    +0.000 C 
BRANCH   9  10
ATOM     10  C   UNL     1       9.913  -2.539  -3.879  0.00  0.00    +0.000 A 
ATOM     11  C   UNL     1       9.584  -3.875  -4.097  0.00  0.00    +0.000 A 
ATOM     12  C   UNL     1      10.516  -4.703  -4.715  0.00  0.00    +0.000 A 
ATOM     13  C   UNL     1      11.742  -4.176  -5.104  0.00  0.00    +0.000 A 
ATOM     14  C   UNL     1      11.985  -2.835  -4.864  0.00  0.00    +0.000 A 
ATOM     15  N   UNL     1      11.100  -2.005  -4.269  0.00  0.00    +0.000 NA
ENDBRANCH   9  10
ENDBRANCH   8   9
ENDBRANCH   5   8
ENDBRANCH   1   2
BRANCH   1  16
ATOM     16  N   UNL     1       2.726  -0.069   0.228  0.00  0.00    +0.000 N 
ATOM     17  C   UNL     1       1.478  -0.127   0.794  0.00  0.00    +0.000 C 
ATOM     18  O   UNL     1       0.618  -0.894   0.363  0.00  0.00    +0.000 OA
ATOM     19  H   UNL     1       3.396   0.636   0.520  0.00  0.00    +0.000 HD
BRANCH  17  20
ATOM     20  C   UNL     1       1.202   0.745   1.946  0.00  0.00    +0.000 A 
ATOM     21  C   UNL     1      -0.010   0.617   2.613  0.00  0.00    +0.000 A 
ATOM     22  S   UNL     1      -0.174   1.652   3.955  0.00  0.00    +0.000 S 
ATOM     23  C   UNL     1       1.359   2.335   3.681  0.00  0.00    +0.000 A 
ATOM     24  N   UNL     1       1.839   3.306   4.500  0.00  0.00    +0.000 NA
ATOM     25  C   UNL     1       3.005   3.750   4.170  0.00  0.00    +0.000 A 
ATOM     26  N   UNL     1       3.734   3.311   3.096  0.00  0.00    +0.000 N 
ATOM     27  C   UNL     1       3.286   2.341   2.233  0.00  0.00    +0.000 A 
ATOM     28  O   UNL     1       3.945   2.001   1.256  0.00  0.00    +0.000 OA
ATOM     29  C   UNL     1       1.985   1.788   2.573  0.00  0.00    +0.000 A 
ATOM     30  H   UNL     1       4.636   3.714   2.884  0.00  0.00    +0.000 HD
ENDBRANCH  17  20
ENDBRANCH   1  16
BRANCH   1  31
ATOM     31  C   UNL     1       2.410  -0.255  -2.238  0.00  0.00    +0.000 C 
BRANCH  31  32
ATOM     32  N   UNL     1       2.660  -1.029  -3.462  0.00  0.00    +0.000 NA
ATOM     33  H   UNL     1       2.223  -0.562  -4.255  0.00  0.00    +0.000 HD
ATOM     34  H   UNL     1       2.207  -1.940  -3.379  0.00  0.00    +0.000 HD
ENDBRANCH  31  32
ENDBRANCH   1  31
TORSDOF 8
