REMARK  Name = 
REMARK  8 active torsions:
REMARK  status: ('A' for Active; 'I' for Inactive)
REMARK    1  A    between atoms: C_1  and  O_2
REMARK    2  A    between atoms: O_2  and  C_3
REMARK    3  A    between atoms: C_10  and  C_11
REMARK    4  A    between atoms: N_13  and  C_14
REMARK    5  A    between atoms: C_14  and  C_15
REMARK    6  A    between atoms: C_18  and  C_19
REMARK    7  A    between atoms: C_19  and  C_20
REMARK    8  A    between atoms: C_21  and  C_22
REMARK                            x       y       z     vdW  Elec       q    Type
REMARK                         _______ _______ _______ _____ _____    ______ ____
ROOT
ATOM      1  C   UNL     1       2.901   1.660   3.043  0.00  0.00    +0.000 C 
ENDROOT
BRANCH   1   2
ATOM      2  C   UNL     1       1.803   2.523   2.477  0.00  0.00    +0.000 A 
ATOM      3  C   UNL     1       0.562   1.969   2.134  0.00  0.00    +0.000 A 
ATOM      4  C   UNL     1      -0.431   2.754   1.535  0.00  0.00    +0.000 A 
ATOM      5  C   UNL     1      -0.199   4.107   1.251  0.00  0.00    +0.000 A 
ATOM      6  C   UNL     1       1.026   4.670   1.633  0.00  0.00    +0.000 A 
ATOM      7  C   UNL     1       2.020   3.885   2.229  0.00  0.00    +0.000 A 
BRANCH   5   8
ATOM      8  C   UNL     1      -1.232   4.938   0.519  0.00  0.00    +0.000 C 
BRANCH   8   9
ATOM      9  C   UNL     1      -2.181   5.668   1.425  0.00  0.00    +0.000 C 
ATOM     10  C   UNL     1      -2.346   7.001   1.422  0.00  0.00    +0.000 C 
BRANCH  10  11
ATOM     11  C   UNL     1      -3.258   7.666   2.353  0.00  0.00    +0.000 A 
ATOM     12  C   UNL     1      -2.792   8.048   3.617  0.00  0.00    +0.000 A 
ATOM     13  C   UNL     1      -3.646   8.676   4.525  0.00  0.00    +0.000 A 
ATOM     14  C   UNL     1      -4.972   8.927   4.175  0.00  0.00    +0.000 A 
ATOM     15  C   UNL     1      -5.444   8.550   2.919  0.00  0.00    +0.000 A 
ATOM     16  C   UNL     1      -4.590   7.920   2.008  0.00  0.00    +0.000 A 
ENDBRANCH  10  11
ENDBRANCH   8   9
ENDBRANCH   5   8
ENDBRANCH   1   2
BRANCH   1  19
ATOM     17  C   UNL     1       4.749   0.235   2.273  0.00  0.00    +0.000 C 
ATOM     18  O   UNL     1       5.026  -0.066   3.431  0.00  0.00    +0.000 OA
ATOM     19  N   UNL     1       3.717   1.089   1.993  0.00  0.00    +0.000 N 
ATOM     20  H   UNL     1       3.507   1.345   1.038  0.00  0.00    +0.000 HD
BRANCH  17  28
ATOM     21  C   UNL     1       4.494   0.527  -1.165  0.00  0.00    +0.000 A 
ATOM     22  N   UNL     1       4.624   0.447  -2.504  0.00  0.00    +0.000 NA
ATOM     23  C   UNL     1       5.612  -0.299  -3.003  0.00  0.00    +0.000 A 
ATOM     24  N   UNL     1       6.510  -0.995  -2.315  0.00  0.00    +0.000 NA
ATOM     25  C   UNL     1       6.346  -0.894  -0.984  0.00  0.00    +0.000 A 
ATOM     26  S   UNL     1       7.409  -1.722   0.047  0.00  0.00    +0.000 S 
ATOM     27  C   UNL     1       6.602  -1.141   1.422  0.00  0.00    +0.000 A 
ATOM     28  C   UNL     1       5.521  -0.313   1.139  0.00  0.00    +0.000 A 
ATOM     29  C   UNL     1       5.371  -0.163  -0.308  0.00  0.00    +0.000 A 
BRANCH  21  31
ATOM     30  C   UNL     1       2.694   1.948  -1.661  0.00  0.00    +0.000 C 
ATOM     31  O   UNL     1       3.478   1.311  -0.652  0.00  0.00    +0.000 OA
ENDBRANCH  21  31
ENDBRANCH  17  28
ENDBRANCH   1  19
TORSDOF 7
