REMARK  Name = 
REMARK  7 active torsions:
REMARK  status: ('A' for Active; 'I' for Inactive)
REMARK    1  A    between atoms: C_1  and  C_2
REMARK    2  A    between atoms: N_6  and  C_7
REMARK    3  A    between atoms: C_7  and  C_8
REMARK    4  A    between atoms: C_8  and  C_11
REMARK    5  A    between atoms: C_15  and  O_16
REMARK    6  A    between atoms: O_16  and  C_17
REMARK    7  A    between atoms: N_19  and  C_20
REMARK                            x       y       z     vdW  Elec       q    Type
REMARK                         _______ _______ _______ _____ _____    ______ ____
ROOT
ATOM      1  C   UNL     1       5.274  -1.059  -0.093  0.00  0.00    +0.000 C 
ATOM      2  F   UNL     1       5.737  -0.252  -1.103  0.00  0.00    +0.000 F 
ATOM      3  F   UNL     1       5.488  -0.340   1.053  0.00  0.00    +0.000 F 
ENDROOT
BRANCH   1   4
ATOM      4  C   UNL     1       6.052  -2.365  -0.047  0.00  0.00    +0.000 A 
ATOM      5  C   UNL     1       7.440  -2.318   0.155  0.00  0.00    +0.000 A 
ATOM      6  C   UNL     1       8.189  -3.492   0.264  0.00  0.00    +0.000 A 
ATOM      7  C   UNL     1       7.567  -4.741   0.172  0.00  0.00    +0.000 A 
ATOM      8  C   UNL     1       6.196  -4.804  -0.048  0.00  0.00    +0.000 A 
ATOM      9  C   UNL     1       5.450  -3.627  -0.153  0.00  0.00    +0.000 A 
BRANCH   8  10
ATOM     10  O   UNL     1       5.442  -5.946  -0.119  0.00  0.00    +0.000 OA
BRANCH  10  11
ATOM     11  C   UNL     1       6.066  -7.204  -0.447  0.00  0.00    +0.000 C 
ATOM     12  C   UNL     1       6.564  -7.421  -1.895  0.00  0.00    +0.000 C 
ATOM     13  N   UNL     1       5.851  -8.716  -1.958  0.00  0.00    +0.000 NA
ATOM     14  C   UNL     1       6.750  -9.825  -1.638  0.00  0.00    +0.000 C 
ATOM     15  C   UNL     1       5.060  -8.338  -0.770  0.00  0.00    +0.000 C 
ENDBRANCH  10  11
ENDBRANCH   8  10
ENDBRANCH   1   4
BRANCH   1  16
ATOM     16  C   UNL     1       3.744  -1.211  -0.289  0.00  0.00    +0.000 C 
BRANCH  16  22
ATOM     17  C   UNL     1      -2.528  -0.025  -0.832  0.00  0.00    +0.000 C 
ATOM     18  C   UNL     1      -1.045  -0.043  -0.715  0.00  0.00    +0.000 A 
ATOM     19  C   UNL     1      -0.342  -1.120  -0.224  0.00  0.00    +0.000 A 
ATOM     20  N   UNL     1       0.997  -1.132  -0.074  0.00  0.00    +0.000 NA
ATOM     21  C   UNL     1       1.661  -0.020  -0.418  0.00  0.00    +0.000 A 
ATOM     22  N   UNL     1       3.027   0.064  -0.219  0.00  0.00    +0.000 N 
ATOM     23  N   UNL     1       1.078   1.067  -0.938  0.00  0.00    +0.000 NA
ATOM     24  C   UNL     1      -0.264   1.032  -1.070  0.00  0.00    +0.000 A 
ATOM     25  H   UNL     1       3.388   0.817  -0.794  0.00  0.00    +0.000 HD
ENDBRANCH  16  22
ENDBRANCH   1  16
TORSDOF 5
