REMARK  Name = 
REMARK  6 active torsions:
REMARK  status: ('A' for Active; 'I' for Inactive)
REMARK    1  A    between atoms: C_2  and  C_4
REMARK    2  A    between atoms: C_7  and  O_8
REMARK    3  A    between atoms: O_8  and  C_9
REMARK    4  A    between atoms: C_9  and  C_10
REMARK    5  A    between atoms: C_10  and  C_13
REMARK    6  A    between atoms: C_17  and  C_18
REMARK                            x       y       z     vdW  Elec       q    Type
REMARK                         _______ _______ _______ _____ _____    ______ ____
ROOT
ATOM      1  C   UNL     1       5.819   0.812  -7.085  0.00  0.00    +0.000 C 
ATOM      2  F   UNL     1       7.103   1.086  -6.710  0.00  0.00    +0.000 F 
ATOM      3  F   UNL     1       5.811  -0.507  -7.438  0.00  0.00    +0.000 F 
ENDROOT
BRANCH   1   4
ATOM      4  C   UNL     1       5.368   1.706  -8.227  0.00  0.00    +0.000 A 
ATOM      5  C   UNL     1       4.470   1.232  -9.190  0.00  0.00    +0.000 A 
ATOM      6  C   UNL     1       4.034   2.071 -10.210  0.00  0.00    +0.000 A 
ATOM      7  C   UNL     1       4.480   3.395 -10.267  0.00  0.00    +0.000 A 
ATOM      8  C   UNL     1       5.361   3.918  -9.303  0.00  0.00    +0.000 A 
ATOM      9  C   UNL     1       5.807   3.041  -8.297  0.00  0.00    +0.000 A 
BRANCH   8  10
ATOM     10  C   UNL     1       5.762   5.344  -9.316  0.00  0.00    +0.000 A 
ATOM     11  C   UNL     1       7.032   5.766  -8.895  0.00  0.00    +0.000 A 
ATOM     12  C   UNL     1       7.333   7.122  -8.885  0.00  0.00    +0.000 A 
ATOM     13  N   UNL     1       6.476   8.086  -9.271  0.00  0.00    +0.000 NA
ATOM     14  C   UNL     1       5.264   7.671  -9.684  0.00  0.00    +0.000 A 
ATOM     15  F   UNL     1       4.387   8.605 -10.073  0.00  0.00    +0.000 F 
ATOM     16  C   UNL     1       4.869   6.343  -9.721  0.00  0.00    +0.000 A 
ENDBRANCH   8  10
ENDBRANCH   1   4
BRANCH   1  17
ATOM     17  C   UNL     1       4.892   1.012  -5.874  0.00  0.00    +0.000 C 
BRANCH  17  18
ATOM     18  O   UNL     1       5.276   0.150  -4.796  0.00  0.00    +0.000 OA
BRANCH  18  22
ATOM     19  C   UNL     1       3.167   0.167  -1.198  0.00  0.00    +0.000 A 
ATOM     20  C   UNL     1       2.754   1.035  -2.214  0.00  0.00    +0.000 A 
ATOM     21  C   UNL     1       3.433   1.059  -3.439  0.00  0.00    +0.000 A 
ATOM     22  C   UNL     1       4.528   0.220  -3.653  0.00  0.00    +0.000 A 
ATOM     23  C   UNL     1       4.942  -0.639  -2.631  0.00  0.00    +0.000 A 
ATOM     24  C   UNL     1       4.271  -0.664  -1.406  0.00  0.00    +0.000 A 
BRANCH  19  26
ATOM     25  N   UNL     1       1.155   0.460   0.145  0.00  0.00    +0.000 N 
ATOM     26  C   UNL     1       2.480   0.121   0.118  0.00  0.00    +0.000 C 
ATOM     27  O   UNL     1       3.059  -0.236   1.135  0.00  0.00    +0.000 OA
ATOM     28  H   UNL     1       0.678   0.316   1.026  0.00  0.00    +0.000 HD
ATOM     29  H   UNL     1       0.591   0.501  -0.692  0.00  0.00    +0.000 HD
ENDBRANCH  19  26
ENDBRANCH  18  22
ENDBRANCH  17  18
ENDBRANCH   1  17
TORSDOF 6
