REMARK  Name = 
REMARK  5 active torsions:
REMARK  status: ('A' for Active; 'I' for Inactive)
REMARK    1  A    between atoms: N_1  and  C_2
REMARK    2  A    between atoms: C_2  and  C_3
REMARK    3  A    between atoms: C_3  and  C_4
REMARK    4  A    between atoms: C_7  and  C_8
REMARK    5  A    between atoms: C_8  and  N_9
REMARK                            x       y       z     vdW  Elec       q    Type
REMARK                         _______ _______ _______ _____ _____    ______ ____
ROOT
ATOM      1  C   UNL     1       4.577   0.941   0.983  0.00  0.00    +0.000 A 
ATOM      2  C   UNL     1       5.368   0.162   0.130  0.00  0.00    +0.000 A 
ATOM      3  C   UNL     1       6.764   0.261   0.164  0.00  0.00    +0.000 A 
ATOM      4  C   UNL     1       7.403   1.158   1.034  0.00  0.00    +0.000 A 
ATOM      5  C   UNL     1       6.614   1.953   1.869  0.00  0.00    +0.000 A 
ATOM      6  C   UNL     1       5.222   1.844   1.844  0.00  0.00    +0.000 A 
ENDROOT
BRANCH   1   7
ATOM      7  C   UNL     1       3.063   0.922   0.960  0.00  0.00    +0.000 C 
BRANCH   7   8
ATOM      8  C   UNL     1       2.394  -0.412   0.599  0.00  0.00    +0.000 C 
BRANCH   8   9
ATOM      9  N   UNL     1       0.938  -0.295   0.669  0.00  0.00    +0.000 NA
ATOM     10  H   UNL     1       0.509  -1.183   0.407  0.00  0.00    +0.000 HD
ATOM     11  H   UNL     1       0.614   0.388  -0.020  0.00  0.00    +0.000 HD
ENDBRANCH   8   9
ENDBRANCH   7   8
ENDBRANCH   1   7
BRANCH   4  12
ATOM     12  C   UNL     1       8.905   1.220   1.114  0.00  0.00    +0.000 C 
BRANCH  12  13
ATOM     13  N   UNL     1       9.546   2.179   0.224  0.00  0.00    +0.000 N 
ATOM     14  C   UNL     1       9.313   2.295  -1.123  0.00  0.00    +0.000 A 
ATOM     15  N   UNL     1      10.343   2.815  -1.753  0.00  0.00    +0.000 NA
ATOM     16  C   UNL     1      11.267   3.083  -0.777  0.00  0.00    +0.000 A 
ATOM     17  C   UNL     1      12.584   3.545  -0.902  0.00  0.00    +0.000 A 
ATOM     18  C   UNL     1      13.325   3.733   0.264  0.00  0.00    +0.000 A 
ATOM     19  F   UNL     1      14.605   4.115   0.168  0.00  0.00    +0.000 F 
ATOM     20  C   UNL     1      12.776   3.524   1.526  0.00  0.00    +0.000 A 
ATOM     21  C   UNL     1      11.467   3.051   1.670  0.00  0.00    +0.000 A 
ATOM     22  C   UNL     1      10.754   2.797   0.488  0.00  0.00    +0.000 A 
ENDBRANCH  12  13
ENDBRANCH   4  12
TORSDOF 5
