REMARK  Name = 
REMARK  5 active torsions:
REMARK  status: ('A' for Active; 'I' for Inactive)
REMARK    1  A    between atoms: C_2  and  C_4
REMARK    2  A    between atoms: C_7  and  N_8
REMARK    3  A    between atoms: N_8  and  C_9
REMARK    4  A    between atoms: C_9  and  C_10
REMARK    5  A    between atoms: C_14  and  C_15
REMARK                            x       y       z     vdW  Elec       q    Type
REMARK                         _______ _______ _______ _____ _____    ______ ____
ROOT
ATOM      1  C   UNL     1       4.671   5.908  -1.819  0.00  0.00    +0.000 C 
ENDROOT
BRANCH   1   2
ATOM      2  C   UNL     1       5.517   6.919  -2.548  0.00  0.00    +0.000 A 
ATOM      3  C   UNL     1       4.989   7.667  -3.600  0.00  0.00    +0.000 A 
ATOM      4  C   UNL     1       5.781   8.643  -4.177  0.00  0.00    +0.000 A 
ATOM      5  N   UNL     1       7.046   8.910  -3.791  0.00  0.00    +0.000 NA
ATOM      6  C   UNL     1       7.575   8.174  -2.781  0.00  0.00    +0.000 A 
ATOM      7  C   UNL     1       6.829   7.186  -2.136  0.00  0.00    +0.000 A 
BRANCH   6   8
ATOM      8  C   UNL     1       8.976   8.485  -2.427  0.00  0.00    +0.000 A 
ATOM      9  C   UNL     1       9.850   7.504  -1.915  0.00  0.00    +0.000 A 
ATOM     10  C   UNL     1      11.182   7.800  -1.602  0.00  0.00    +0.000 A 
ATOM     11  C   UNL     1      11.670   9.087  -1.797  0.00  0.00    +0.000 A 
ATOM     12  C   UNL     1      10.824  10.065  -2.300  0.00  0.00    +0.000 A 
ATOM     13  F   UNL     1      11.294  11.306  -2.492  0.00  0.00    +0.000 F 
ATOM     14  C   UNL     1       9.499   9.778  -2.615  0.00  0.00    +0.000 A 
ENDBRANCH   6   8
ENDBRANCH   1   2
BRANCH   1  15
ATOM     15  N   UNL     1       5.300   4.595  -1.821  0.00  0.00    +0.000 N 
ATOM     16  H   UNL     1       5.681   4.322  -2.725  0.00  0.00    +0.000 HD
BRANCH  15  20
ATOM     17  C   UNL     1       3.586   1.347   0.275  0.00  0.00    +0.000 A 
ATOM     18  C   UNL     1       2.956   2.592   0.299  0.00  0.00    +0.000 A 
ATOM     19  C   UNL     1       3.507   3.670  -0.403  0.00  0.00    +0.000 A 
ATOM     20  C   UNL     1       4.674   3.530  -1.166  0.00  0.00    +0.000 A 
ATOM     21  C   UNL     1       5.306   2.279  -1.157  0.00  0.00    +0.000 A 
ATOM     22  C   UNL     1       4.775   1.196  -0.441  0.00  0.00    +0.000 A 
BRANCH  17  24
ATOM     23  N   UNL     1       1.690   0.160   1.236  0.00  0.00    +0.000 N 
ATOM     24  C   UNL     1       3.042   0.187   1.028  0.00  0.00    +0.000 C 
ATOM     25  O   UNL     1       3.760  -0.723   1.418  0.00  0.00    +0.000 OA
ATOM     26  H   UNL     1       1.319  -0.679   1.664  0.00  0.00    +0.000 HD
ATOM     27  H   UNL     1       1.049   0.747   0.722  0.00  0.00    +0.000 HD
ENDBRANCH  17  24
ENDBRANCH  15  20
ENDBRANCH   1  15
TORSDOF 5
