REMARK  Name = 
REMARK  6 active torsions:
REMARK  status: ('A' for Active; 'I' for Inactive)
REMARK    1  A    between atoms: C_1  and  O_2
REMARK    2  A    between atoms: O_2  and  C_3
REMARK    3  A    between atoms: C_3  and  C_5
REMARK    4  A    between atoms: N_9  and  C_10
REMARK    5  A    between atoms: C_10  and  C_11
REMARK    6  A    between atoms: C_14  and  O_15
REMARK                            x       y       z     vdW  Elec       q    Type
REMARK                         _______ _______ _______ _____ _____    ______ ____
ROOT
ATOM      1  C   UNL     1       4.541  -0.334   1.213  0.00  0.00    +0.000 A 
ATOM      2  C   UNL     1       5.236   0.666   0.579  0.00  0.00    +0.000 A 
ATOM      3  N   UNL     1       6.583   0.732   0.552  0.00  0.00    +0.000 NA
ATOM      4  C   UNL     1       7.263  -0.239   1.180  0.00  0.00    +0.000 A 
ATOM      5  N   UNL     1       8.646  -0.232   1.166  0.00  0.00    +0.000 N 
ATOM      6  N   UNL     1       6.679  -1.260   1.819  0.00  0.00    +0.000 NA
ATOM      7  C   UNL     1       5.325  -1.289   1.819  0.00  0.00    +0.000 A 
ATOM      8  H   UNL     1       8.962  -0.880   1.879  0.00  0.00    +0.000 HD
ENDROOT
BRANCH   1   9
ATOM      9  C   UNL     1       3.073  -0.322   1.236  0.00  0.00    +0.000 C 
ATOM     10  O   UNL     1       2.396   0.528   0.685  0.00  0.00    +0.000 OA
BRANCH   9  12
ATOM     11  C   UNL     1       1.197  -1.412   2.120  0.00  0.00    +0.000 C 
ATOM     12  O   UNL     1       2.616  -1.365   1.974  0.00  0.00    +0.000 OA
ENDBRANCH   9  12
ENDBRANCH   1   9
BRANCH   5  13
ATOM     13  C   UNL     1       9.257   1.080   1.187  0.00  0.00    +0.000 C 
BRANCH  13  14
ATOM     14  C   UNL     1      10.607   1.006   0.549  0.00  0.00    +0.000 A 
ATOM     15  C   UNL     1      10.765   0.634  -0.775  0.00  0.00    +0.000 A 
ATOM     16  N   UNL     1      11.955   0.586  -1.406  0.00  0.00    +0.000 NA
ATOM     17  C   UNL     1      12.998   0.930  -0.649  0.00  0.00    +0.000 A 
ATOM     18  N   UNL     1      12.989   1.313   0.630  0.00  0.00    +0.000 NA
ATOM     19  C   UNL     1      11.772   1.344   1.206  0.00  0.00    +0.000 A 
BRANCH  17  20
ATOM     20  O   UNL     1      14.196   0.871  -1.283  0.00  0.00    +0.000 OA
ATOM     21  H   UNL     1      13.883   0.563  -2.149  0.00  0.00    +0.000 HD
ENDBRANCH  17  20
ENDBRANCH  13  14
ENDBRANCH   5  13
TORSDOF 5
