REMARK  Name = 
REMARK  6 active torsions:
REMARK  status: ('A' for Active; 'I' for Inactive)
REMARK    1  A    between atoms: C_2  and  C_3
REMARK    2  A    between atoms: C_6  and  C_7
REMARK    3  A    between atoms: C_7  and  C_8
REMARK    4  A    between atoms: C_12  and  C_13
REMARK    5  A    between atoms: C_16  and  O_17
REMARK    6  A    between atoms: O_17  and  C_18
REMARK                            x       y       z     vdW  Elec       q    Type
REMARK                         _______ _______ _______ _____ _____    ______ ____
ROOT
ATOM      1  C   UNL     1      -3.946  -1.349   0.442  0.00  0.00    +0.000 A 
ATOM      2  C   UNL     1      -3.740  -2.463  -0.374  0.00  0.00    +0.000 A 
ATOM      3  C   UNL     1      -3.771  -3.736   0.179  0.00  0.00    +0.000 A 
ATOM      4  C   UNL     1      -4.023  -3.878   1.538  0.00  0.00    +0.000 A 
ATOM      5  C   UNL     1      -4.268  -2.741   2.303  0.00  0.00    +0.000 A 
ATOM      6  N   UNL     1      -4.249  -1.496   1.761  0.00  0.00    +0.000 NA
ENDROOT
BRANCH   5   7
ATOM      7  C   UNL     1      -4.504  -2.792   3.759  0.00  0.00    +0.000 A 
ATOM      8  C   UNL     1      -3.829  -3.706   4.588  0.00  0.00    +0.000 A 
ATOM      9  C   UNL     1      -4.036  -3.732   5.974  0.00  0.00    +0.000 A 
ATOM     10  C   UNL     1      -4.913  -2.824   6.565  0.00  0.00    +0.000 A 
ATOM     11  C   UNL     1      -5.612  -1.928   5.759  0.00  0.00    +0.000 A 
ATOM     12  C   UNL     1      -5.403  -1.905   4.376  0.00  0.00    +0.000 A 
BRANCH  10  13
ATOM     13  O   UNL     1      -5.179  -2.735   7.902  0.00  0.00    +0.000 OA
BRANCH  13  14
ATOM     14  C   UNL     1      -4.137  -3.170   8.759  0.00  0.00    +0.000 C 
ATOM     15  F   UNL     1      -4.319  -2.561   9.958  0.00  0.00    +0.000 F 
ATOM     16  F   UNL     1      -4.277  -4.502   8.972  0.00  0.00    +0.000 F 
ENDBRANCH  13  14
ENDBRANCH  10  13
ENDBRANCH   5   7
BRANCH   1  17
ATOM     17  C   UNL     1      -3.674   0.057  -0.088  0.00  0.00    +0.000 C 
ATOM     18  C   UNL     1      -2.811   0.978   0.777  0.00  0.00    +0.000 C 
ATOM     19  C   UNL     1      -2.215   0.360  -0.446  0.00  0.00    +0.000 C 
BRANCH  17  23
ATOM     20  C   UNL     1      -6.636   1.894  -2.616  0.00  0.00    +0.000 A 
ATOM     21  C   UNL     1      -6.697   2.107  -1.243  0.00  0.00    +0.000 A 
ATOM     22  C   UNL     1      -5.753   1.496  -0.413  0.00  0.00    +0.000 A 
ATOM     23  C   UNL     1      -4.754   0.687  -0.965  0.00  0.00    +0.000 A 
ATOM     24  N   UNL     1      -4.699   0.474  -2.307  0.00  0.00    +0.000 NA
ATOM     25  C   UNL     1      -5.626   1.074  -3.095  0.00  0.00    +0.000 A 
BRANCH  20  27
ATOM     26  N   UNL     1      -8.326   2.993  -4.241  0.00  0.00    +0.000 NA
ATOM     27  C   UNL     1      -7.570   2.500  -3.512  0.00  0.00    +0.000 C 
ENDBRANCH  20  27
ENDBRANCH  17  23
ENDBRANCH   1  17
TORSDOF 6
