REMARK  Name = 
REMARK  10 active torsions:
REMARK  status: ('A' for Active; 'I' for Inactive)
REMARK    1  A    between atoms: C_2  and  C_3
REMARK    2  A    between atoms: C_3  and  N_4
REMARK    3  A    between atoms: C_3  and  C_20
REMARK    4  A    between atoms: C_5  and  C_7
REMARK    5  A    between atoms: N_13  and  C_14
REMARK    6  A    between atoms: C_14  and  C_15
REMARK    7  A    between atoms: C_15  and  O_16
REMARK    8  A    between atoms: C_23  and  C_24
REMARK    9  A    between atoms: C_24  and  N_25
REMARK   10  A    between atoms: C_26  and  C_28
REMARK                            x       y       z     vdW  Elec       q    Type
REMARK                         _______ _______ _______ _____ _____    ______ ____
ROOT
ATOM      1  C   UNL     1       3.740   0.104  -0.160  0.00  0.00    +0.000 C 
ENDROOT
BRANCH   1   2
ATOM      2  C   UNL     1       4.344   1.501  -0.013  0.00  0.00    +0.000 A 
ATOM      3  C   UNL     1       4.706   1.973   1.259  0.00  0.00    +0.000 A 
ATOM      4  C   UNL     1       5.107   3.302   1.447  0.00  0.00    +0.000 A 
ATOM      5  C   UNL     1       5.136   4.198   0.370  0.00  0.00    +0.000 A 
ATOM      6  C   UNL     1       4.817   3.723  -0.907  0.00  0.00    +0.000 A 
ATOM      7  C   UNL     1       4.416   2.395  -1.097  0.00  0.00    +0.000 A 
BRANCH   5   8
ATOM      8  C   UNL     1       5.480   5.651   0.579  0.00  0.00    +0.000 C 
BRANCH   8   9
ATOM      9  N   UNL     1       6.894   5.898   0.473  0.00  0.00    +0.000 N 
ATOM     10  C   UNL     1       7.399   7.178   0.540  0.00  0.00    +0.000 C 
ATOM     11  O   UNL     1       6.689   8.164   0.710  0.00  0.00    +0.000 OA
ATOM     12  H   UNL     1       7.544   5.130   0.362  0.00  0.00    +0.000 HD
BRANCH  10  13
ATOM     13  C   UNL     1       8.842   7.243   0.393  0.00  0.00    +0.000 A 
ATOM     14  C   UNL     1       9.718   8.312   0.434  0.00  0.00    +0.000 A 
ATOM     15  C   UNL     1      11.014   7.790   0.205  0.00  0.00    +0.000 A 
ATOM     16  C   UNL     1      10.854   6.437   0.031  0.00  0.00    +0.000 A 
ATOM     17  O   UNL     1       9.548   6.091   0.147  0.00  0.00    +0.000 OA
ENDBRANCH  10  13
ENDBRANCH   8   9
ENDBRANCH   5   8
ENDBRANCH   1   2
BRANCH   1  18
ATOM     18  N   UNL     1       2.297   0.267  -0.122  0.00  0.00    +0.000 N 
ATOM     19  C   UNL     1       1.433  -0.711   0.285  0.00  0.00    +0.000 C 
ATOM     20  O   UNL     1       1.818  -1.763   0.782  0.00  0.00    +0.000 OA
ATOM     21  H   UNL     1       1.940   1.008  -0.710  0.00  0.00    +0.000 HD
BRANCH  19  22
ATOM     22  C   UNL     1       0.011  -0.360   0.178  0.00  0.00    +0.000 A 
ATOM     23  C   UNL     1      -0.925  -0.911   1.040  0.00  0.00    +0.000 A 
ATOM     24  S   UNL     1      -2.488  -0.247   0.850  0.00  0.00    +0.000 S 
ATOM     25  C   UNL     1      -1.973   0.753  -0.428  0.00  0.00    +0.000 A 
ATOM     26  N   UNL     1      -2.821   1.624  -1.032  0.00  0.00    +0.000 NA
ATOM     27  C   UNL     1      -2.293   2.313  -1.992  0.00  0.00    +0.000 A 
ATOM     28  N   UNL     1      -0.990   2.200  -2.438  0.00  0.00    +0.000 N 
ATOM     29  C   UNL     1      -0.106   1.302  -1.855  0.00  0.00    +0.000 A 
ATOM     30  O   UNL     1       1.054   1.165  -2.235  0.00  0.00    +0.000 OA
ATOM     31  C   UNL     1      -0.642   0.557  -0.730  0.00  0.00    +0.000 A 
BRANCH  28  32
ATOM     32  C   UNL     1      -0.519   3.022  -3.551  0.00  0.00    +0.000 C 
BRANCH  32  33
ATOM     33  C   UNL     1      -0.686   2.323  -4.901  0.00  0.00    +0.000 C 
BRANCH  33  34
ATOM     34  O   UNL     1      -2.066   2.101  -5.176  0.00  0.00    +0.000 OA
ATOM     35  H   UNL     1      -2.324   1.273  -4.734  0.00  0.00    +0.000 HD
ENDBRANCH  33  34
ENDBRANCH  32  33
ENDBRANCH  28  32
ENDBRANCH  19  22
ENDBRANCH   1  18
BRANCH   1  37
ATOM     36  N   UNL     1       4.486  -1.118  -2.388  0.00  0.00    +0.000 NA
ATOM     37  C   UNL     1       4.165  -0.594  -1.400  0.00  0.00    +0.000 C 
ENDBRANCH   1  37
TORSDOF 10
