REMARK  Name = 
REMARK  11 active torsions:
REMARK  status: ('A' for Active; 'I' for Inactive)
REMARK    1  A    between atoms: C_1  and  C_2
REMARK    2  A    between atoms: C_2  and  N_3
REMARK    3  A    between atoms: N_3  and  C_4
REMARK    4  A    between atoms: C_4  and  C_5
REMARK    5  A    between atoms: C_5  and  N_6
REMARK    6  A    between atoms: C_5  and  C_28
REMARK    7  A    between atoms: N_6  and  C_7
REMARK    8  A    between atoms: C_7  and  C_8
REMARK    9  A    between atoms: C_11  and  C_12
REMARK   10  A    between atoms: C_12  and  N_13
REMARK   11  A    between atoms: C_14  and  C_16
REMARK                            x       y       z     vdW  Elec       q    Type
REMARK                         _______ _______ _______ _____ _____    ______ ____
ROOT
ATOM      1  C   UNL     1       2.706  -1.382  -4.831  0.00  0.00    +0.000 A 
ATOM      2  C   UNL     1       3.298  -2.003  -5.932  0.00  0.00    +0.000 A 
ATOM      3  C   UNL     1       2.853  -1.707  -7.216  0.00  0.00    +0.000 A 
ATOM      4  C   UNL     1       1.796  -0.817  -7.372  0.00  0.00    +0.000 A 
ATOM      5  N   UNL     1       1.207  -0.193  -6.321  0.00  0.00    +0.000 NA
ATOM      6  C   UNL     1       1.677  -0.482  -5.087  0.00  0.00    +0.000 A 
ENDROOT
BRANCH   1   7
ATOM      7  C   UNL     1       3.098  -1.715  -3.415  0.00  0.00    +0.000 C 
BRANCH   7   8
ATOM      8  N   UNL     1       4.522  -1.483  -3.168  0.00  0.00    +0.000 NA
ATOM      9  H   UNL     1       5.079  -2.038  -3.813  0.00  0.00    +0.000 HD
BRANCH   8  10
ATOM     10  C   UNL     1       4.936  -1.872  -1.793  0.00  0.00    +0.000 C 
BRANCH  10  11
ATOM     11  C   UNL     1       4.272  -1.028  -0.709  0.00  0.00    +0.000 A 
ATOM     12  C   UNL     1       4.754   0.251  -0.434  0.00  0.00    +0.000 A 
ATOM     13  C   UNL     1       4.115   1.016   0.537  0.00  0.00    +0.000 A 
ATOM     14  C   UNL     1       3.007   0.497   1.195  0.00  0.00    +0.000 A 
ATOM     15  C   UNL     1       2.579  -0.772   0.851  0.00  0.00    +0.000 A 
ATOM     16  N   UNL     1       3.178  -1.540  -0.084  0.00  0.00    +0.000 NA
ENDBRANCH  10  11
BRANCH  10  17
ATOM     17  C   UNL     1       4.814  -3.399  -1.489  0.00  0.00    +0.000 C 
BRANCH  17  18
ATOM     18  N   UNL     1       5.482  -4.226  -2.516  0.00  0.00    +0.000 NA
ATOM     19  H   UNL     1       5.018  -4.074  -3.408  0.00  0.00    +0.000 HD
BRANCH  18  21
ATOM     20  C   UNL     1       6.166  -6.443  -3.215  0.00  0.00    +0.000 C 
ATOM     21  C   UNL     1       5.385  -5.647  -2.182  0.00  0.00    +0.000 C 
ENDBRANCH  18  21
ENDBRANCH  17  18
ENDBRANCH  10  17
ENDBRANCH   8  10
ENDBRANCH   7   8
ENDBRANCH   1   7
BRANCH   4  22
ATOM     22  C   UNL     1       1.284  -0.479  -8.749  0.00  0.00    +0.000 C 
BRANCH  22  23
ATOM     23  N   UNL     1       1.918   0.704  -9.277  0.00  0.00    +0.000 N 
ATOM     24  C   UNL     1       2.992   0.659 -10.123  0.00  0.00    +0.000 C 
ATOM     25  O   UNL     1       3.471  -0.400 -10.520  0.00  0.00    +0.000 OA
ATOM     26  H   UNL     1       1.734   1.553  -8.750  0.00  0.00    +0.000 HD
BRANCH  24  27
ATOM     27  C   UNL     1       3.486   1.956 -10.602  0.00  0.00    +0.000 A 
ATOM     28  C   UNL     1       4.193   2.029 -11.795  0.00  0.00    +0.000 A 
ATOM     29  S   UNL     1       4.609   3.621 -12.245  0.00  0.00    +0.000 S 
ATOM     30  C   UNL     1       3.904   4.264 -10.837  0.00  0.00    +0.000 A 
ATOM     31  N   UNL     1       3.919   5.603 -10.593  0.00  0.00    +0.000 NA
ATOM     32  C   UNL     1       3.376   5.948  -9.474  0.00  0.00    +0.000 A 
ATOM     33  N   UNL     1       2.815   5.075  -8.577  0.00  0.00    +0.000 N 
ATOM     34  C   UNL     1       2.742   3.724  -8.801  0.00  0.00    +0.000 A 
ATOM     35  O   UNL     1       2.171   2.983  -8.007  0.00  0.00    +0.000 OA
ATOM     36  C   UNL     1       3.351   3.279 -10.039  0.00  0.00    +0.000 A 
ATOM     37  H   UNL     1       2.397   5.406  -7.720  0.00  0.00    +0.000 HD
ENDBRANCH  24  27
ENDBRANCH  22  23
ENDBRANCH   4  22
TORSDOF 10
