REMARK  Name = 
REMARK  7 active torsions:
REMARK  status: ('A' for Active; 'I' for Inactive)
REMARK    1  A    between atoms: C_1  and  C_2
REMARK    2  A    between atoms: C_2  and  C_3
REMARK    3  A    between atoms: C_2  and  C_14
REMARK    4  A    between atoms: C_3  and  N_4
REMARK    5  A    between atoms: N_4  and  C_5
REMARK    6  A    between atoms: C_8  and  C_9
REMARK    7  A    between atoms: C_18  and  C_19
REMARK                            x       y       z     vdW  Elec       q    Type
REMARK                         _______ _______ _______ _____ _____    ______ ____
ROOT
ATOM      1  C   UNL     1       3.121  -0.759   1.295  0.00  0.00    +0.000 C 
ENDROOT
BRANCH   1   3
ATOM      2  C   UNL     1       1.012  -0.486  -0.198  0.00  0.00    +0.000 C 
ATOM      3  C   UNL     1       2.486  -0.356   0.007  0.00  0.00    +0.000 C 
BRANCH   3   4
ATOM      4  C   UNL     1       3.331  -0.469  -1.174  0.00  0.00    +0.000 A 
ATOM      5  N   UNL     1       4.296  -1.402  -1.152  0.00  0.00    +0.000 NA
ATOM      6  C   UNL     1       5.065  -1.496  -2.248  0.00  0.00    +0.000 A 
ATOM      7  C   UNL     1       4.916  -0.683  -3.344  0.00  0.00    +0.000 A 
ATOM      8  C   UNL     1       3.902   0.261  -3.280  0.00  0.00    +0.000 A 
ATOM      9  N   UNL     1       3.092   0.366  -2.193  0.00  0.00    +0.000 NA
BRANCH   8  10
ATOM     10  C   UNL     1       3.688   1.216  -4.442  0.00  0.00    +0.000 C 
ATOM     11  F   UNL     1       4.585   1.033  -5.457  0.00  0.00    +0.000 F 
ATOM     12  F   UNL     1       2.459   1.092  -5.017  0.00  0.00    +0.000 F 
ATOM     13  F   UNL     1       3.811   2.526  -4.085  0.00  0.00    +0.000 F 
ENDBRANCH   8  10
ENDBRANCH   3   4
ENDBRANCH   1   3
BRANCH   1  14
ATOM     14  N   UNL     1       2.465  -0.087   2.411  0.00  0.00    +0.000 N 
ATOM     15  H   UNL     1       2.272   0.896   2.232  0.00  0.00    +0.000 HD
BRANCH  14  16
ATOM     16  C   UNL     1       2.960  -0.286   3.707  0.00  0.00    +0.000 A 
ATOM     17  C   UNL     1       3.945  -1.228   4.029  0.00  0.00    +0.000 A 
ATOM     18  C   UNL     1       4.349  -1.434   5.353  0.00  0.00    +0.000 A 
ATOM     19  C   UNL     1       3.754  -0.717   6.392  0.00  0.00    +0.000 A 
ATOM     20  C   UNL     1       2.741   0.199   6.096  0.00  0.00    +0.000 A 
ATOM     21  C   UNL     1       2.351   0.405   4.764  0.00  0.00    +0.000 A 
BRANCH  19  22
ATOM     22  C   UNL     1       4.201  -0.993   7.784  0.00  0.00    +0.000 C 
ATOM     23  N   UNL     1       4.002  -0.014   8.716  0.00  0.00    +0.000 N 
ATOM     24  O   UNL     1       4.760  -2.039   8.084  0.00  0.00    +0.000 OA
ATOM     25  H   UNL     1       3.763   0.936   8.471  0.00  0.00    +0.000 HD
ATOM     26  H   UNL     1       4.406  -0.179   9.629  0.00  0.00    +0.000 HD
ENDBRANCH  19  22
ENDBRANCH  14  16
ENDBRANCH   1  14
TORSDOF 6
