REMARK  Name = 
REMARK  10 active torsions:
REMARK  status: ('A' for Active; 'I' for Inactive)
REMARK    1  A    between atoms: N_1  and  C_2
REMARK    2  A    between atoms: C_2  and  C_3
REMARK    3  A    between atoms: C_3  and  C_4
REMARK    4  A    between atoms: C_4  and  C_5
REMARK    5  A    between atoms: C_5  and  C_6
REMARK    6  A    between atoms: C_6  and  N_7
REMARK    7  A    between atoms: C_8  and  C_10
REMARK    8  A    between atoms: C_14  and  N_15
REMARK    9  A    between atoms: N_15  and  C_16
REMARK   10  A    between atoms: C_16  and  C_17
REMARK                            x       y       z     vdW  Elec       q    Type
REMARK                         _______ _______ _______ _____ _____    ______ ____
ROOT
ATOM      1  C   UNL     1       8.912   3.277   5.014  0.00  0.00    +0.000 A 
ATOM      2  C   UNL     1       8.241   3.063   6.217  0.00  0.00    +0.000 A 
ATOM      3  C   UNL     1       8.734   3.669   7.362  0.00  0.00    +0.000 A 
ATOM      4  C   UNL     1       9.860   4.481   7.264  0.00  0.00    +0.000 A 
ATOM      5  C   UNL     1      10.472   4.682   6.021  0.00  0.00    +0.000 A 
ATOM      6  N   UNL     1      10.025   4.067   4.899  0.00  0.00    +0.000 NA
ENDROOT
BRANCH   1   8
ATOM      7  N   UNL     1       9.120   2.784   2.589  0.00  0.00    +0.000 N 
ATOM      8  C   UNL     1       8.435   2.568   3.773  0.00  0.00    +0.000 C 
ATOM      9  O   UNL     1       7.457   1.796   3.832  0.00  0.00    +0.000 OA
ATOM     10  H   UNL     1       9.958   3.354   2.612  0.00  0.00    +0.000 HD
BRANCH   7  11
ATOM     11  C   UNL     1       8.715   2.156   1.344  0.00  0.00    +0.000 C 
BRANCH  11  12
ATOM     12  C   UNL     1       7.694   2.988   0.565  0.00  0.00    +0.000 C 
BRANCH  12  13
ATOM     13  C   UNL     1       7.285   2.293  -0.738  0.00  0.00    +0.000 C 
BRANCH  13  14
ATOM     14  C   UNL     1       6.265   3.128  -1.516  0.00  0.00    +0.000 C 
BRANCH  14  15
ATOM     15  C   UNL     1       5.859   2.429  -2.810  0.00  0.00    +0.000 C 
BRANCH  15  16
ATOM     16  N   UNL     1       4.890   3.242  -3.532  0.00  0.00    +0.000 NA
ATOM     17  H   UNL     1       4.652   2.783  -4.410  0.00  0.00    +0.000 HD
ATOM     18  H   UNL     1       5.311   4.136  -3.780  0.00  0.00    +0.000 HD
ENDBRANCH  15  16
ENDBRANCH  14  15
ENDBRANCH  13  14
ENDBRANCH  12  13
ENDBRANCH  11  12
ENDBRANCH   7  11
ENDBRANCH   1   8
BRANCH   5  19
ATOM     19  N   UNL     1      11.605   5.486   5.979  0.00  0.00    +0.000 N 
ATOM     20  H   UNL     1      11.494   6.422   6.360  0.00  0.00    +0.000 HD
BRANCH  19  21
ATOM     21  C   UNL     1      12.623   5.313   4.953  0.00  0.00    +0.000 C 
BRANCH  21  22
ATOM     22  C   UNL     1      12.350   6.032   3.648  0.00  0.00    +0.000 A 
ATOM     23  C   UNL     1      12.265   5.300   2.466  0.00  0.00    +0.000 A 
ATOM     24  C   UNL     1      12.034   5.987   1.284  0.00  0.00    +0.000 A 
ATOM     25 CL   UNL     1      11.924   5.119  -0.197  0.00  0.00    +0.000 Cl
ATOM     26  C   UNL     1      11.895   7.366   1.289  0.00  0.00    +0.000 A 
ATOM     27  C   UNL     1      11.988   8.013   2.506  0.00  0.00    +0.000 A 
ATOM     28  N   UNL     1      12.225   7.383   3.678  0.00  0.00    +0.000 NA
ENDBRANCH  21  22
ENDBRANCH  19  21
ENDBRANCH   5  19
TORSDOF 10
