REMARK  Name = 
REMARK  5 active torsions:
REMARK  status: ('A' for Active; 'I' for Inactive)
REMARK    1  A    between atoms: C_2  and  C_4
REMARK    2  A    between atoms: C_7  and  N_8
REMARK    3  A    between atoms: N_8  and  C_9
REMARK    4  A    between atoms: C_9  and  C_10
REMARK    5  A    between atoms: C_15  and  C_16
REMARK                            x       y       z     vdW  Elec       q    Type
REMARK                         _______ _______ _______ _____ _____    ______ ____
ROOT
ATOM      1  C   UNL     1       5.320   5.434  -2.134  0.00  0.00    +0.000 C 
ENDROOT
BRANCH   1   2
ATOM      2  C   UNL     1       6.308   6.360  -2.820  0.00  0.00    +0.000 A 
ATOM      3  C   UNL     1       6.115   7.745  -2.787  0.00  0.00    +0.000 A 
ATOM      4  C   UNL     1       7.016   8.582  -3.428  0.00  0.00    +0.000 A 
ATOM      5  F   UNL     1       6.822   9.907  -3.396  0.00  0.00    +0.000 F 
ATOM      6  C   UNL     1       8.114   8.071  -4.115  0.00  0.00    +0.000 A 
ATOM      7  C   UNL     1       8.356   6.687  -4.167  0.00  0.00    +0.000 A 
ATOM      8  C   UNL     1       7.434   5.850  -3.497  0.00  0.00    +0.000 A 
BRANCH   7   9
ATOM      9  C   UNL     1       9.525   6.137  -4.903  0.00  0.00    +0.000 A 
ATOM     10  C   UNL     1      10.740   6.845  -5.003  0.00  0.00    +0.000 A 
ATOM     11  C   UNL     1      11.835   6.338  -5.713  0.00  0.00    +0.000 A 
ATOM     12  C   UNL     1      11.747   5.095  -6.332  0.00  0.00    +0.000 A 
ATOM     13  C   UNL     1      10.563   4.373  -6.242  0.00  0.00    +0.000 A 
ATOM     14 CL   UNL     1      10.447   2.830  -6.997  0.00  0.00    +0.000 Cl
ATOM     15  C   UNL     1       9.465   4.886  -5.546  0.00  0.00    +0.000 A 
ENDBRANCH   7   9
ENDBRANCH   1   2
BRANCH   1  16
ATOM     16  N   UNL     1       3.997   5.646  -2.712  0.00  0.00    +0.000 N 
ATOM     17  H   UNL     1       4.010   5.534  -3.722  0.00  0.00    +0.000 HD
BRANCH  16  21
ATOM     18  C   UNL     1       0.850   3.491  -1.169  0.00  0.00    +0.000 A 
ATOM     19  C   UNL     1       2.129   3.330  -0.661  0.00  0.00    +0.000 A 
ATOM     20  N   UNL     1       3.203   4.017  -1.144  0.00  0.00    +0.000 NA
ATOM     21  C   UNL     1       2.965   4.874  -2.160  0.00  0.00    +0.000 A 
ATOM     22  C   UNL     1       1.657   5.033  -2.645  0.00  0.00    +0.000 A 
ATOM     23  N   UNL     1       0.574   4.352  -2.185  0.00  0.00    +0.000 NA
BRANCH  18  25
ATOM     24  N   UNL     1      -1.498   2.900  -1.208  0.00  0.00    +0.000 N 
ATOM     25  C   UNL     1      -0.282   2.701  -0.610  0.00  0.00    +0.000 C 
ATOM     26  O   UNL     1      -0.139   1.918   0.320  0.00  0.00    +0.000 OA
ATOM     27  H   UNL     1      -2.305   2.389  -0.881  0.00  0.00    +0.000 HD
ATOM     28  H   UNL     1      -1.583   3.550  -1.982  0.00  0.00    +0.000 HD
ENDBRANCH  18  25
ENDBRANCH  16  21
ENDBRANCH   1  16
TORSDOF 5
