REMARK  Name = 
REMARK  7 active torsions:
REMARK  status: ('A' for Active; 'I' for Inactive)
REMARK    1  A    between atoms: C_1  and  C_2
REMARK    2  A    between atoms: C_5  and  C_6
REMARK    3  A    between atoms: N_8  and  C_9
REMARK    4  A    between atoms: C_9  and  C_10
REMARK    5  A    between atoms: C_13  and  C_14
REMARK    6  A    between atoms: C_14  and  N_15
REMARK    7  A    between atoms: C_16  and  C_18
REMARK                            x       y       z     vdW  Elec       q    Type
REMARK                         _______ _______ _______ _____ _____    ______ ____
ROOT
ATOM      1  C   UNL     1      -5.878   2.980  -0.177  0.00  0.00    +0.000 C 
ATOM      2  C   UNL     1      -4.843   4.049  -0.556  0.00  0.00    +0.000 C 
ATOM      3  C   UNL     1      -5.413   5.464  -0.461  0.00  0.00    +0.000 C 
ATOM      4  C   UNL     1      -5.977   5.767   0.940  0.00  0.00    +0.000 C 
ATOM      5  C   UNL     1      -6.941   4.668   1.420  0.00  0.00    +0.000 C 
ATOM      6  C   UNL     1      -6.376   3.258   1.251  0.00  0.00    +0.000 C 
ENDROOT
BRANCH   1   7
ATOM      7  C   UNL     1      -7.045   2.905  -1.183  0.00  0.00    +0.000 C 
BRANCH   7  10
ATOM      8  C   UNL     1      -6.491   1.215  -2.908  0.00  0.00    +0.000 C 
ATOM      9  O   UNL     1      -6.769   0.263  -2.185  0.00  0.00    +0.000 OA
ATOM     10  N   UNL     1      -6.613   2.529  -2.513  0.00  0.00    +0.000 N 
ATOM     11  H   UNL     1      -6.316   3.230  -3.186  0.00  0.00    +0.000 HD
BRANCH   8  16
ATOM     12  C   UNL     1      -4.637   0.493  -8.289  0.00  0.00    +0.000 C 
ATOM     13  C   UNL     1      -5.120   0.639  -6.880  0.00  0.00    +0.000 A 
ATOM     14  C   UNL     1      -5.472  -0.473  -6.113  0.00  0.00    +0.000 A 
ATOM     15  C   UNL     1      -5.920  -0.291  -4.808  0.00  0.00    +0.000 A 
ATOM     16  C   UNL     1      -6.006   1.000  -4.308  0.00  0.00    +0.000 A 
ATOM     17  N   UNL     1      -5.673   2.114  -5.026  0.00  0.00    +0.000 NA
ATOM     18  C   UNL     1      -5.238   1.896  -6.291  0.00  0.00    +0.000 A 
ENDBRANCH   8  16
ENDBRANCH   7  10
ENDBRANCH   1   7
BRANCH   4  19
ATOM     19  C   UNL     1      -6.704   7.123   0.979  0.00  0.00    +0.000 C 
BRANCH  19  20
ATOM     20  N   UNL     1      -5.855   8.230   0.606  0.00  0.00    +0.000 N 
ATOM     21  C   UNL     1      -5.010   8.852   1.489  0.00  0.00    +0.000 C 
ATOM     22  O   UNL     1      -4.925   8.513   2.666  0.00  0.00    +0.000 OA
ATOM     23  H   UNL     1      -5.997   8.630  -0.316  0.00  0.00    +0.000 HD
BRANCH  21  24
ATOM     24  C   UNL     1      -4.156   9.907   0.931  0.00  0.00    +0.000 A 
ATOM     25  C   UNL     1      -2.967  10.236   1.568  0.00  0.00    +0.000 A 
ATOM     26  S   UNL     1      -2.067  11.436   0.758  0.00  0.00    +0.000 S 
ATOM     27  C   UNL     1      -3.258  11.594  -0.448  0.00  0.00    +0.000 A 
ATOM     28  N   UNL     1      -3.111  12.487  -1.462  0.00  0.00    +0.000 NA
ATOM     29  C   UNL     1      -4.107  12.529  -2.285  0.00  0.00    +0.000 A 
ATOM     30  N   UNL     1      -5.234  11.755  -2.185  0.00  0.00    +0.000 N 
ATOM     31  C   UNL     1      -5.404  10.807  -1.207  0.00  0.00    +0.000 A 
ATOM     32  O   UNL     1      -6.391  10.076  -1.195  0.00  0.00    +0.000 OA
ATOM     33  C   UNL     1      -4.323  10.734  -0.241  0.00  0.00    +0.000 A 
ATOM     34  H   UNL     1      -5.971  11.826  -2.871  0.00  0.00    +0.000 HD
ENDBRANCH  21  24
ENDBRANCH  19  20
ENDBRANCH   4  19
TORSDOF 6
