REMARK  Name = 
REMARK  7 active torsions:
REMARK  status: ('A' for Active; 'I' for Inactive)
REMARK    1  A    between atoms: C_1  and  C_2
REMARK    2  A    between atoms: C_2  and  N_3
REMARK    3  A    between atoms: C_2  and  C_16
REMARK    4  A    between atoms: C_4  and  C_6
REMARK    5  A    between atoms: C_19  and  O_20
REMARK    6  A    between atoms: O_20  and  C_21
REMARK    7  A    between atoms: C_21  and  C_22
REMARK                            x       y       z     vdW  Elec       q    Type
REMARK                         _______ _______ _______ _____ _____    ______ ____
ROOT
ATOM      1  C   UNL     1       0.878   0.374   0.442  0.00  0.00    +0.000 C 
ATOM      2  C   UNL     1       2.317   0.051   0.031  0.00  0.00    +0.000 C 
ENDROOT
BRANCH   2   3
ATOM      3  C   UNL     1       2.847  -1.045   0.948  0.00  0.00    +0.000 A 
ATOM      4  C   UNL     1       3.497  -0.813   2.169  0.00  0.00    +0.000 A 
ATOM      5  C   UNL     1       3.844  -1.886   2.994  0.00  0.00    +0.000 A 
ATOM      6  C   UNL     1       3.548  -3.173   2.569  0.00  0.00    +0.000 A 
ATOM      7  N   UNL     1       2.940  -3.436   1.393  0.00  0.00    +0.000 NA
ATOM      8  C   UNL     1       2.611  -2.377   0.622  0.00  0.00    +0.000 A 
BRANCH   6   9
ATOM      9  O   UNL     1       3.825  -4.225   3.418  0.00  0.00    +0.000 OA
BRANCH   9  10
ATOM     10  C   UNL     1       3.980  -5.461   2.709  0.00  0.00    +0.000 C 
BRANCH  10  11
ATOM     11  C   UNL     1       4.183  -6.587   3.698  0.00  0.00    +0.000 A 
ATOM     12  C   UNL     1       3.167  -6.928   4.604  0.00  0.00    +0.000 A 
ATOM     13  C   UNL     1       3.336  -7.993   5.490  0.00  0.00    +0.000 A 
ATOM     14  C   UNL     1       4.517  -8.733   5.476  0.00  0.00    +0.000 A 
ATOM     15  C   UNL     1       5.534  -8.402   4.582  0.00  0.00    +0.000 A 
ATOM     16  C   UNL     1       5.369  -7.335   3.697  0.00  0.00    +0.000 A 
ENDBRANCH  10  11
ENDBRANCH   9  10
ENDBRANCH   6   9
ENDBRANCH   2   3
BRANCH   2  17
ATOM     17  N   UNL     1       3.164   1.232   0.038  0.00  0.00    +0.000 N 
ATOM     18  C   UNL     1       2.924   2.329  -0.744  0.00  0.00    +0.000 C 
ATOM     19  O   UNL     1       1.959   2.423  -1.496  0.00  0.00    +0.000 OA
ATOM     20  H   UNL     1       4.132   1.068   0.300  0.00  0.00    +0.000 HD
BRANCH  18  21
ATOM     21  C   UNL     1       3.869   3.443  -0.594  0.00  0.00    +0.000 A 
ATOM     22  C   UNL     1       3.453   4.752  -0.804  0.00  0.00    +0.000 A 
ATOM     23  S   UNL     1       4.702   5.901  -0.607  0.00  0.00    +0.000 S 
ATOM     24  C   UNL     1       5.843   4.685  -0.265  0.00  0.00    +0.000 A 
ATOM     25  N   UNL     1       7.152   4.985  -0.047  0.00  0.00    +0.000 NA
ATOM     26  C   UNL     1       7.909   3.958   0.160  0.00  0.00    +0.000 A 
ATOM     27  N   UNL     1       7.471   2.658   0.196  0.00  0.00    +0.000 N 
ATOM     28  C   UNL     1       6.149   2.318   0.051  0.00  0.00    +0.000 A 
ATOM     29  O   UNL     1       5.770   1.162   0.203  0.00  0.00    +0.000 OA
ATOM     30  C   UNL     1       5.270   3.428  -0.252  0.00  0.00    +0.000 A 
ATOM     31  H   UNL     1       8.105   1.902   0.397  0.00  0.00    +0.000 HD
ENDBRANCH  18  21
ENDBRANCH   2  17
TORSDOF 6
