REMARK  Name = 
REMARK  9 active torsions:
REMARK  status: ('A' for Active; 'I' for Inactive)
REMARK    1  A    between atoms: C_1  and  O_2
REMARK    2  A    between atoms: O_2  and  C_3
REMARK    3  A    between atoms: C_10  and  C_11
REMARK    4  A    between atoms: N_13  and  C_14
REMARK    5  A    between atoms: C_14  and  C_15
REMARK    6  A    between atoms: C_18  and  C_19
REMARK    7  A    between atoms: C_19  and  N_20
REMARK    8  A    between atoms: N_20  and  C_21
REMARK    9  A    between atoms: C_21  and  C_22
REMARK                            x       y       z     vdW  Elec       q    Type
REMARK                         _______ _______ _______ _____ _____    ______ ____
ROOT
ATOM      1  C   UNL     1       3.034  -2.488   2.347  0.00  0.00    +0.000 C 
ENDROOT
BRANCH   1   2
ATOM      2  C   UNL     1       1.981  -1.684   3.073  0.00  0.00    +0.000 A 
ATOM      3  C   UNL     1       0.886  -2.319   3.675  0.00  0.00    +0.000 A 
ATOM      4  C   UNL     1      -0.099  -1.573   4.335  0.00  0.00    +0.000 A 
ATOM      5  C   UNL     1      -0.018  -0.174   4.404  0.00  0.00    +0.000 A 
ATOM      6  C   UNL     1       1.066   0.461   3.782  0.00  0.00    +0.000 A 
ATOM      7  C   UNL     1       2.051  -0.285   3.121  0.00  0.00    +0.000 A 
BRANCH   5   8
ATOM      8  C   UNL     1      -1.082   0.631   5.124  0.00  0.00    +0.000 C 
BRANCH   8   9
ATOM      9  N   UNL     1      -1.163   0.250   6.533  0.00  0.00    +0.000 NA
ATOM     10  H   UNL     1      -0.250   0.396   6.964  0.00  0.00    +0.000 HD
BRANCH   9  11
ATOM     11  C   UNL     1      -2.164   1.030   7.261  0.00  0.00    +0.000 C 
BRANCH  11  12
ATOM     12  C   UNL     1      -2.203   0.627   8.713  0.00  0.00    +0.000 A 
ATOM     13  C   UNL     1      -2.504  -0.682   9.104  0.00  0.00    +0.000 A 
ATOM     14  C   UNL     1      -2.494  -1.025  10.453  0.00  0.00    +0.000 A 
ATOM     15  C   UNL     1      -2.193  -0.039  11.377  0.00  0.00    +0.000 A 
ATOM     16  N   UNL     1      -1.920   1.241  11.045  0.00  0.00    +0.000 NA
ATOM     17  C   UNL     1      -1.932   1.543   9.726  0.00  0.00    +0.000 A 
ENDBRANCH  11  12
ENDBRANCH   9  11
ENDBRANCH   8   9
ENDBRANCH   5   8
ENDBRANCH   1   2
BRANCH   1  20
ATOM     18  C   UNL     1       3.450  -3.385   0.085  0.00  0.00    +0.000 C 
ATOM     19  O   UNL     1       4.495  -3.922   0.442  0.00  0.00    +0.000 OA
ATOM     20  N   UNL     1       2.683  -2.669   0.957  0.00  0.00    +0.000 N 
ATOM     21  H   UNL     1       1.841  -2.211   0.638  0.00  0.00    +0.000 HD
BRANCH  18  29
ATOM     22  C   UNL     1       0.638  -2.232  -1.533  0.00  0.00    +0.000 A 
ATOM     23  N   UNL     1      -0.332  -1.882  -2.399  0.00  0.00    +0.000 NA
ATOM     24  C   UNL     1      -0.209  -2.272  -3.670  0.00  0.00    +0.000 A 
ATOM     25  N   UNL     1       0.783  -2.986  -4.196  0.00  0.00    +0.000 NA
ATOM     26  C   UNL     1       1.734  -3.305  -3.301  0.00  0.00    +0.000 A 
ATOM     27  S   UNL     1       3.077  -4.217  -3.796  0.00  0.00    +0.000 S 
ATOM     28  C   UNL     1       3.740  -4.182  -2.231  0.00  0.00    +0.000 A 
ATOM     29  C   UNL     1       2.969  -3.484  -1.305  0.00  0.00    +0.000 A 
ATOM     30  C   UNL     1       1.762  -2.968  -1.952  0.00  0.00    +0.000 A 
BRANCH  22  32
ATOM     31  C   UNL     1      -0.826  -1.565   0.166  0.00  0.00    +0.000 C 
ATOM     32  O   UNL     1       0.523  -1.806  -0.228  0.00  0.00    +0.000 OA
ENDBRANCH  22  32
ENDBRANCH  18  29
ENDBRANCH   1  20
TORSDOF 8
