REMARK  Name = 
REMARK  5 active torsions:
REMARK  status: ('A' for Active; 'I' for Inactive)
REMARK    1  A    between atoms: N_1  and  C_2
REMARK    2  A    between atoms: C_2  and  C_3
REMARK    3  A    between atoms: C_3  and  C_4
REMARK    4  A    between atoms: C_7  and  C_8
REMARK    5  A    between atoms: C_8  and  N_9
REMARK                            x       y       z     vdW  Elec       q    Type
REMARK                         _______ _______ _______ _____ _____    ______ ____
ROOT
ATOM      1  C   UNL     1       4.495   0.942  -1.069  0.00  0.00    +0.000 A 
ATOM      2  C   UNL     1       5.226   1.663  -2.023  0.00  0.00    +0.000 A 
ATOM      3  C   UNL     1       6.622   1.730  -1.953  0.00  0.00    +0.000 A 
ATOM      4  C   UNL     1       7.319   1.077  -0.926  0.00  0.00    +0.000 A 
ATOM      5  C   UNL     1       6.587   0.338   0.014  0.00  0.00    +0.000 A 
ATOM      6  C   UNL     1       5.192   0.265  -0.061  0.00  0.00    +0.000 A 
ENDROOT
BRANCH   1   7
ATOM      7  C   UNL     1       2.987   0.916  -1.112  0.00  0.00    +0.000 C 
BRANCH   7   8
ATOM      8  C   UNL     1       2.442  -0.241  -1.953  0.00  0.00    +0.000 C 
BRANCH   8   9
ATOM      9  N   UNL     1       0.978  -0.235  -1.969  0.00  0.00    +0.000 NA
ATOM     10  H   UNL     1       0.645  -1.007  -2.545  0.00  0.00    +0.000 HD
ATOM     11  H   UNL     1       0.644   0.619  -2.416  0.00  0.00    +0.000 HD
ENDBRANCH   8   9
ENDBRANCH   7   8
ENDBRANCH   1   7
BRANCH   4  12
ATOM     12  C   UNL     1       8.815   1.258  -0.759  0.00  0.00    +0.000 C 
BRANCH  12  13
ATOM     13  N   UNL     1       9.086   2.342   0.182  0.00  0.00    +0.000 N 
ATOM     14  N   UNL     1       9.211   2.057   1.500  0.00  0.00    +0.000 NA
ATOM     15  C   UNL     1       8.911   3.222   2.083  0.00  0.00    +0.000 A 
ATOM     16  C   UNL     1       8.685   4.258   1.151  0.00  0.00    +0.000 A 
ATOM     17  C   UNL     1       8.280   5.602   1.209  0.00  0.00    +0.000 A 
ATOM     18  C   UNL     1       8.221   6.341   0.020  0.00  0.00    +0.000 A 
ATOM     19  C   UNL     1       8.602   5.770  -1.195  0.00  0.00    +0.000 A 
ATOM     20  C   UNL     1       8.979   4.427  -1.276  0.00  0.00    +0.000 A 
ATOM     21  C   UNL     1       8.967   3.687  -0.085  0.00  0.00    +0.000 A 
ENDBRANCH  12  13
ENDBRANCH   4  12
TORSDOF 5
