REMARK  Name = 
REMARK  9 active torsions:
REMARK  status: ('A' for Active; 'I' for Inactive)
REMARK    1  A    between atoms: C_1  and  C_2
REMARK    2  A    between atoms: C_2  and  O_3
REMARK    3  A    between atoms: O_3  and  C_4
REMARK    4  A    between atoms: C_9  and  C_10
REMARK    5  A    between atoms: N_12  and  C_13
REMARK    6  A    between atoms: C_13  and  C_14
REMARK    7  A    between atoms: C_17  and  C_18
REMARK    8  A    between atoms: C_18  and  N_19
REMARK    9  A    between atoms: C_20  and  C_22
REMARK                            x       y       z     vdW  Elec       q    Type
REMARK                         _______ _______ _______ _____ _____    ______ ____
ROOT
ATOM      1  C   UNL     1       0.519  -4.185   1.126  0.00  0.00    +0.000 A 
ATOM      2  C   UNL     1      -0.252  -5.286   0.731  0.00  0.00    +0.000 A 
ATOM      3  C   UNL     1      -1.543  -5.108   0.220  0.00  0.00    +0.000 A 
ATOM      4  C   UNL     1      -2.080  -3.822   0.073  0.00  0.00    +0.000 A 
ATOM      5  C   UNL     1      -1.318  -2.723   0.493  0.00  0.00    +0.000 A 
ATOM      6  C   UNL     1      -0.029  -2.902   1.005  0.00  0.00    +0.000 A 
ENDROOT
BRANCH   1   7
ATOM      7  C   UNL     1       1.923  -4.370   1.643  0.00  0.00    +0.000 C 
BRANCH   7  10
ATOM      8  C   UNL     1       4.237  -4.510   0.818  0.00  0.00    +0.000 C 
ATOM      9  O   UNL     1       4.676  -4.615   1.961  0.00  0.00    +0.000 OA
ATOM     10  N   UNL     1       2.892  -4.364   0.573  0.00  0.00    +0.000 N 
ATOM     11  H   UNL     1       2.577  -4.251  -0.385  0.00  0.00    +0.000 HD
BRANCH   8  17
ATOM     12  C   UNL     1       4.779  -4.432  -1.709  0.00  0.00    +0.000 A 
ATOM     13  C   UNL     1       5.753  -4.540  -2.716  0.00  0.00    +0.000 A 
ATOM     14  C   UNL     1       7.094  -4.784  -2.397  0.00  0.00    +0.000 A 
ATOM     15  C   UNL     1       7.480  -4.914  -1.071  0.00  0.00    +0.000 A 
ATOM     16  C   UNL     1       6.525  -4.802  -0.061  0.00  0.00    +0.000 A 
ATOM     17  C   UNL     1       5.168  -4.565  -0.360  0.00  0.00    +0.000 A 
BRANCH  12  18
ATOM     18  O   UNL     1       3.463  -4.148  -1.982  0.00  0.00    +0.000 OA
BRANCH  18  20
ATOM     19  C   UNL     1       1.516  -4.075  -3.360  0.00  0.00    +0.000 C 
ATOM     20  C   UNL     1       2.974  -4.491  -3.280  0.00  0.00    +0.000 C 
ENDBRANCH  18  20
ENDBRANCH  12  18
ENDBRANCH   8  17
ENDBRANCH   7  10
ENDBRANCH   1   7
BRANCH   4  21
ATOM     21  C   UNL     1      -3.461  -3.615  -0.494  0.00  0.00    +0.000 C 
BRANCH  21  22
ATOM     22  N   UNL     1      -4.455  -3.581   0.548  0.00  0.00    +0.000 N 
ATOM     23  C   UNL     1      -5.791  -3.472   0.259  0.00  0.00    +0.000 C 
ATOM     24  O   UNL     1      -6.207  -3.447  -0.896  0.00  0.00    +0.000 OA
ATOM     25  H   UNL     1      -4.128  -3.363   1.483  0.00  0.00    +0.000 HD
BRANCH  23  26
ATOM     26  C   UNL     1      -6.707  -3.451   1.407  0.00  0.00    +0.000 A 
ATOM     27  C   UNL     1      -8.034  -3.825   1.235  0.00  0.00    +0.000 A 
ATOM     28  S   UNL     1      -8.939  -3.812   2.680  0.00  0.00    +0.000 S 
ATOM     29  C   UNL     1      -7.606  -3.252   3.576  0.00  0.00    +0.000 A 
ATOM     30  N   UNL     1      -7.711  -3.010   4.910  0.00  0.00    +0.000 NA
ATOM     31  C   UNL     1      -6.632  -2.559   5.457  0.00  0.00    +0.000 A 
ATOM     32  N   UNL     1      -5.456  -2.329   4.792  0.00  0.00    +0.000 N 
ATOM     33  C   UNL     1      -5.296  -2.581   3.451  0.00  0.00    +0.000 A 
ATOM     34  O   UNL     1      -4.221  -2.392   2.890  0.00  0.00    +0.000 OA
ATOM     35  C   UNL     1      -6.481  -3.088   2.786  0.00  0.00    +0.000 A 
ATOM     36  H   UNL     1      -4.645  -1.977   5.279  0.00  0.00    +0.000 HD
ENDBRANCH  23  26
ENDBRANCH  21  22
ENDBRANCH   4  21
TORSDOF 8
