REMARK  Name = 
REMARK  10 active torsions:
REMARK  status: ('A' for Active; 'I' for Inactive)
REMARK    1  A    between atoms: C_1  and  C_2
REMARK    2  A    between atoms: C_2  and  C_3
REMARK    3  A    between atoms: C_3  and  N_4
REMARK    4  A    between atoms: C_3  and  C_20
REMARK    5  A    between atoms: N_4  and  C_5
REMARK    6  A    between atoms: C_5  and  C_6
REMARK    7  A    between atoms: C_9  and  C_10
REMARK    8  A    between atoms: C_10  and  N_11
REMARK    9  A    between atoms: N_11  and  C_12
REMARK   10  A    between atoms: C_12  and  C_13
REMARK                            x       y       z     vdW  Elec       q    Type
REMARK                         _______ _______ _______ _____ _____    ______ ____
ROOT
ATOM      1  C   UNL     1      -5.368   2.236  -8.644  0.00  0.00    +0.000 C 
ENDROOT
BRANCH   1   2
ATOM      2  C   UNL     1      -5.282   3.683  -8.163  0.00  0.00    +0.000 A 
ATOM      3  N   UNL     1      -5.389   3.923  -6.837  0.00  0.00    +0.000 NA
ATOM      4  C   UNL     1      -5.063   5.166  -6.418  0.00  0.00    +0.000 A 
ATOM      5  C   UNL     1      -4.625   6.180  -7.245  0.00  0.00    +0.000 A 
ATOM      6  C   UNL     1      -4.628   5.847  -8.592  0.00  0.00    +0.000 A 
ATOM      7  N   UNL     1      -4.950   4.624  -9.075  0.00  0.00    +0.000 NA
BRANCH   5   8
ATOM      8  C   UNL     1      -4.158   7.503  -6.731  0.00  0.00    +0.000 C 
BRANCH   8   9
ATOM      9  N   UNL     1      -3.063   7.335  -5.771  0.00  0.00    +0.000 NA
ATOM     10  H   UNL     1      -2.314   6.795  -6.207  0.00  0.00    +0.000 HD
BRANCH   9  11
ATOM     11  C   UNL     1      -2.511   8.624  -5.324  0.00  0.00    +0.000 C 
BRANCH  11  12
ATOM     12  C   UNL     1      -1.325   8.395  -4.346  0.00  0.00    +0.000 C 
ATOM     13  C   UNL     1      -0.761   9.681  -3.764  0.00  0.00    +0.000 C 
ATOM     14  C   UNL     1      -1.670   9.970  -2.586  0.00  0.00    +0.000 C 
ATOM     15  C   UNL     1      -2.166   8.602  -2.139  0.00  0.00    +0.000 C 
ATOM     16  N   UNL     1      -1.723   7.636  -3.149  0.00  0.00    +0.000 NA
ATOM     17  H   UNL     1      -2.488   7.006  -3.403  0.00  0.00    +0.000 HD
ENDBRANCH  11  12
ENDBRANCH   9  11
ENDBRANCH   8   9
ENDBRANCH   5   8
ENDBRANCH   1   2
BRANCH   1  18
ATOM     18  N   UNL     1      -6.716   1.764  -8.985  0.00  0.00    +0.000 NA
ATOM     19  H   UNL     1      -7.091   2.327  -9.744  0.00  0.00    +0.000 HD
BRANCH  18  20
ATOM     20  C   UNL     1      -6.779   0.326  -9.313  0.00  0.00    +0.000 C 
BRANCH  20  21
ATOM     21  C   UNL     1      -8.265   0.014  -9.304  0.00  0.00    +0.000 A 
ATOM     22  C   UNL     1      -9.200   0.484 -10.214  0.00  0.00    +0.000 A 
ATOM     23  S   UNL     1     -10.800   0.429  -9.607  0.00  0.00    +0.000 S 
ATOM     24  C   UNL     1     -10.286  -0.334  -8.175  0.00  0.00    +0.000 A 
ATOM     25  N   UNL     1     -11.138  -0.558  -7.139  0.00  0.00    +0.000 NA
ATOM     26  C   UNL     1     -10.610  -1.214  -6.158  0.00  0.00    +0.000 A 
ATOM     27  N   UNL     1      -9.331  -1.712  -6.142  0.00  0.00    +0.000 N 
ATOM     28  C   UNL     1      -8.441  -1.523  -7.171  0.00  0.00    +0.000 A 
ATOM     29  O   UNL     1      -7.349  -2.085  -7.200  0.00  0.00    +0.000 OA
ATOM     30  C   UNL     1      -8.948  -0.675  -8.236  0.00  0.00    +0.000 A 
ATOM     31  H   UNL     1      -9.023  -2.314  -5.394  0.00  0.00    +0.000 HD
ENDBRANCH  20  21
BRANCH  20  33
ATOM     32  C   UNL     1      -6.390   0.515 -11.898  0.00  0.00    +0.000 C 
ATOM     33  C   UNL     1      -5.997  -0.114 -10.568  0.00  0.00    +0.000 C 
ENDBRANCH  20  33
ENDBRANCH  18  20
ENDBRANCH   1  18
TORSDOF 9
