REMARK  Name = 
REMARK  10 active torsions:
REMARK  status: ('A' for Active; 'I' for Inactive)
REMARK    1  A    between atoms: C_1  and  C_2
REMARK    2  A    between atoms: C_2  and  N_3
REMARK    3  A    between atoms: C_2  and  C_20
REMARK    4  A    between atoms: N_3  and  C_4
REMARK    5  A    between atoms: C_4  and  C_5
REMARK    6  A    between atoms: C_8  and  C_9
REMARK    7  A    between atoms: C_9  and  N_10
REMARK    8  A    between atoms: N_10  and  C_11
REMARK    9  A    between atoms: N_10  and  C_12
REMARK   10  A    between atoms: C_12  and  C_13
REMARK                            x       y       z     vdW  Elec       q    Type
REMARK                         _______ _______ _______ _____ _____    ______ ____
ROOT
ATOM      1  C   UNL     1       2.473  -2.289   0.571  0.00  0.00    +0.000 C 
ENDROOT
BRANCH   1   2
ATOM      2  C   UNL     1       2.932  -3.633   0.063  0.00  0.00    +0.000 A 
ATOM      3  C   UNL     1       4.102  -3.762  -0.697  0.00  0.00    +0.000 A 
ATOM      4  C   UNL     1       4.539  -5.021  -1.108  0.00  0.00    +0.000 A 
ATOM      5  C   UNL     1       3.838  -6.175  -0.733  0.00  0.00    +0.000 A 
ATOM      6  C   UNL     1       2.655  -6.046   0.003  0.00  0.00    +0.000 A 
ATOM      7  C   UNL     1       2.206  -4.787   0.394  0.00  0.00    +0.000 A 
BRANCH   5   8
ATOM      8  C   UNL     1       4.358  -7.546  -1.102  0.00  0.00    +0.000 C 
BRANCH   8   9
ATOM      9  N   UNL     1       5.728  -7.806  -0.600  0.00  0.00    +0.000 NA
ATOM     10  C   UNL     1       5.765  -7.780   0.868  0.00  0.00    +0.000 C 
BRANCH   9  11
ATOM     11  C   UNL     1       6.209  -9.116  -1.076  0.00  0.00    +0.000 C 
BRANCH  11  12
ATOM     12  C   UNL     1       6.320  -9.145  -2.566  0.00  0.00    +0.000 A 
ATOM     13  C   UNL     1       5.693  -9.944  -3.503  0.00  0.00    +0.000 A 
ATOM     14  C   UNL     1       6.045  -9.456  -4.784  0.00  0.00    +0.000 A 
ATOM     15  C   UNL     1       6.907  -8.399  -4.599  0.00  0.00    +0.000 A 
ATOM     16  N   UNL     1       7.091  -8.234  -3.251  0.00  0.00    +0.000 N 
ATOM     17  H   UNL     1       7.640  -7.506  -2.812  0.00  0.00    +0.000 HD
ENDBRANCH  11  12
ENDBRANCH   9  11
ENDBRANCH   8   9
ENDBRANCH   5   8
ENDBRANCH   1   2
BRANCH   1  18
ATOM     18  N   UNL     1       2.187  -1.355  -0.518  0.00  0.00    +0.000 NA
ATOM     19  H   UNL     1       3.047  -1.207  -1.044  0.00  0.00    +0.000 HD
BRANCH  18  21
ATOM     20  C   UNL     1       0.427  -0.150   0.781  0.00  0.00    +0.000 C 
ATOM     21  C   UNL     1       1.732  -0.050  -0.020  0.00  0.00    +0.000 C 
BRANCH  21  22
ATOM     22  C   UNL     1       1.532   0.884  -1.198  0.00  0.00    +0.000 A 
ATOM     23  C   UNL     1       1.119   0.520  -2.473  0.00  0.00    +0.000 A 
ATOM     24  S   UNL     1       0.867   1.858  -3.509  0.00  0.00    +0.000 S 
ATOM     25  C   UNL     1       1.277   2.964  -2.279  0.00  0.00    +0.000 A 
ATOM     26  N   UNL     1       1.193   4.311  -2.471  0.00  0.00    +0.000 NA
ATOM     27  C   UNL     1       1.496   5.010  -1.431  0.00  0.00    +0.000 A 
ATOM     28  N   UNL     1       1.909   4.496  -0.228  0.00  0.00    +0.000 N 
ATOM     29  C   UNL     1       2.070   3.151  -0.005  0.00  0.00    +0.000 A 
ATOM     30  O   UNL     1       2.526   2.725   1.049  0.00  0.00    +0.000 OA
ATOM     31  C   UNL     1       1.664   2.319  -1.123  0.00  0.00    +0.000 A 
ATOM     32  H   UNL     1       2.167   5.104   0.538  0.00  0.00    +0.000 HD
ENDBRANCH  21  22
ENDBRANCH  18  21
ENDBRANCH   1  18
TORSDOF 8
