REMARK  Name = 
REMARK  10 active torsions:
REMARK  status: ('A' for Active; 'I' for Inactive)
REMARK    1  A    between atoms: C_1  and  N_2
REMARK    2  A    between atoms: N_2  and  C_3
REMARK    3  A    between atoms: N_2  and  C_4
REMARK    4  A    between atoms: C_4  and  C_5
REMARK    5  A    between atoms: C_5  and  O_6
REMARK    6  A    between atoms: O_6  and  C_7
REMARK    7  A    between atoms: C_10  and  C_11
REMARK    8  A    between atoms: C_11  and  O_12
REMARK    9  A    between atoms: O_12  and  C_13
REMARK   10  A    between atoms: C_16  and  C_17
REMARK                            x       y       z     vdW  Elec       q    Type
REMARK                         _______ _______ _______ _____ _____    ______ ____
ROOT
ATOM      1  C   UNL     1      10.533  -2.407  -3.177  0.00  0.00    +0.000 C 
ENDROOT
BRANCH   1   5
ATOM      2  C   UNL     1       6.306  -1.723  -2.556  0.00  0.00    +0.000 A 
ATOM      3  C   UNL     1       7.133  -2.064  -1.483  0.00  0.00    +0.000 A 
ATOM      4  C   UNL     1       8.493  -2.318  -1.690  0.00  0.00    +0.000 A 
ATOM      5  C   UNL     1       9.049  -2.223  -2.970  0.00  0.00    +0.000 A 
ATOM      6  C   UNL     1       8.207  -1.925  -4.050  0.00  0.00    +0.000 A 
ATOM      7  C   UNL     1       6.847  -1.679  -3.842  0.00  0.00    +0.000 A 
BRANCH   2   8
ATOM      8  O   UNL     1       4.966  -1.444  -2.471  0.00  0.00    +0.000 OA
BRANCH   8   9
ATOM      9  C   UNL     1       4.513  -0.998  -1.188  0.00  0.00    +0.000 C 
BRANCH   9  10
ATOM     10  C   UNL     1       2.991  -0.775  -1.225  0.00  0.00    +0.000 C 
BRANCH  10  12
ATOM     11  C   UNL     1       0.982  -0.043  -0.110  0.00  0.00    +0.000 C 
ATOM     12  N   UNL     1       2.427  -0.243   0.035  0.00  0.00    +0.000 NA
ATOM     13  C   UNL     1       2.687  -1.118   1.180  0.00  0.00    +0.000 C 
ENDBRANCH  10  12
ENDBRANCH   9  10
ENDBRANCH   8   9
ENDBRANCH   2   8
ENDBRANCH   1   5
BRANCH   1  14
ATOM     14  O   UNL     1      10.831  -3.786  -3.401  0.00  0.00    +0.000 OA
BRANCH  14  15
ATOM     15  C   UNL     1      12.173  -3.986  -3.658  0.00  0.00    +0.000 A 
ATOM     16  C   UNL     1      12.590  -5.294  -3.860  0.00  0.00    +0.000 A 
ATOM     17  C   UNL     1      13.938  -5.530  -4.137  0.00  0.00    +0.000 A 
ATOM     18  C   UNL     1      14.822  -4.450  -4.204  0.00  0.00    +0.000 A 
ATOM     19  C   UNL     1      14.307  -3.177  -3.999  0.00  0.00    +0.000 A 
ATOM     20  N   UNL     1      13.006  -2.924  -3.716  0.00  0.00    +0.000 NA
BRANCH  18  21
ATOM     21  C   UNL     1      16.262  -4.584  -4.505  0.00  0.00    +0.000 C 
ATOM     22  N   UNL     1      16.862  -5.779  -4.221  0.00  0.00    +0.000 N 
ATOM     23  O   UNL     1      16.907  -3.647  -4.958  0.00  0.00    +0.000 OA
ATOM     24  H   UNL     1      16.435  -6.486  -3.641  0.00  0.00    +0.000 HD
ATOM     25  H   UNL     1      17.867  -5.814  -4.340  0.00  0.00    +0.000 HD
ENDBRANCH  18  21
ENDBRANCH  14  15
ENDBRANCH   1  14
TORSDOF 8
