REMARK  Name = 
REMARK  12 active torsions:
REMARK  status: ('A' for Active; 'I' for Inactive)
REMARK    1  A    between atoms: C_1  and  O_2
REMARK    2  A    between atoms: O_2  and  C_3
REMARK    3  A    between atoms: C_3  and  C_4
REMARK    4  A    between atoms: C_4  and  N_5
REMARK    5  A    between atoms: C_4  and  C_28
REMARK    6  A    between atoms: N_5  and  C_6
REMARK    7  A    between atoms: C_6  and  C_7
REMARK    8  A    between atoms: C_10  and  C_11
REMARK    9  A    between atoms: C_11  and  N_12
REMARK   10  A    between atoms: C_13  and  C_15
REMARK   11  A    between atoms: C_22  and  O_23
REMARK   12  A    between atoms: O_23  and  C_24
REMARK                            x       y       z     vdW  Elec       q    Type
REMARK                         _______ _______ _______ _____ _____    ______ ____
ROOT
ATOM      1  C   UNL     1       5.027  -0.427   2.741  0.00  0.00    +0.000 A 
ATOM      2  C   UNL     1       5.078  -1.688   3.296  0.00  0.00    +0.000 A 
ATOM      3  N   UNL     1       5.435  -1.938   4.568  0.00  0.00    +0.000 NA
ATOM      4  C   UNL     1       5.729  -0.866   5.327  0.00  0.00    +0.000 A 
ATOM      5  N   UNL     1       5.766   0.404   4.874  0.00  0.00    +0.000 NA
ATOM      6  C   UNL     1       5.402   0.593   3.589  0.00  0.00    +0.000 A 
ENDROOT
BRANCH   1   7
ATOM      7  C   UNL     1       4.584  -0.192   1.332  0.00  0.00    +0.000 C 
BRANCH   7   8
ATOM      8  N   UNL     1       3.164  -0.508   1.167  0.00  0.00    +0.000 NA
ATOM      9  H   UNL     1       3.034  -1.515   1.290  0.00  0.00    +0.000 HD
BRANCH   8  10
ATOM     10  C   UNL     1       2.636  -0.192  -0.182  0.00  0.00    +0.000 C 
BRANCH  10  11
ATOM     11  C   UNL     1       2.698   1.304  -0.485  0.00  0.00    +0.000 A 
ATOM     12  C   UNL     1       3.362   1.820  -1.609  0.00  0.00    +0.000 A 
ATOM     13  C   UNL     1       3.455   3.195  -1.825  0.00  0.00    +0.000 A 
ATOM     14  C   UNL     1       2.882   4.079  -0.919  0.00  0.00    +0.000 A 
ATOM     15  C   UNL     1       2.202   3.592   0.191  0.00  0.00    +0.000 A 
ATOM     16  C   UNL     1       2.104   2.215   0.406  0.00  0.00    +0.000 A 
ENDBRANCH  10  11
BRANCH  10  17
ATOM     17  C   UNL     1       3.262  -1.088  -1.285  0.00  0.00    +0.000 C 
BRANCH  17  19
ATOM     18  C   UNL     1       3.762  -3.260  -1.999  0.00  0.00    +0.000 C 
ATOM     19  O   UNL     1       3.206  -2.478  -0.943  0.00  0.00    +0.000 OA
ENDBRANCH  17  19
ENDBRANCH  10  17
ENDBRANCH   8  10
ENDBRANCH   7   8
ENDBRANCH   1   7
BRANCH   4  20
ATOM     20  C   UNL     1       5.997  -1.111   6.788  0.00  0.00    +0.000 C 
BRANCH  20  21
ATOM     21  N   UNL     1       7.351  -1.528   7.081  0.00  0.00    +0.000 N 
ATOM     22  C   UNL     1       7.696  -1.767   8.382  0.00  0.00    +0.000 C 
ATOM     23  O   UNL     1       6.856  -1.765   9.280  0.00  0.00    +0.000 OA
ATOM     24  H   UNL     1       8.019  -1.632   6.326  0.00  0.00    +0.000 HD
BRANCH  22  25
ATOM     25  C   UNL     1       9.115  -1.923   8.676  0.00  0.00    +0.000 A 
ATOM     26  C   UNL     1       9.559  -2.107   9.982  0.00  0.00    +0.000 A 
ATOM     27  N   UNL     1      10.912  -1.959  10.005  0.00  0.00    +0.000 N 
ATOM     28  C   UNL     1      11.367  -1.728   8.743  0.00  0.00    +0.000 A 
ATOM     29  N   UNL     1      12.646  -1.459   8.445  0.00  0.00    +0.000 NA
ATOM     30  C   UNL     1      12.821  -1.287   7.128  0.00  0.00    +0.000 A 
ATOM     31  N   UNL     1      11.908  -1.429   6.151  0.00  0.00    +0.000 NA
ATOM     32  C   UNL     1      10.633  -1.710   6.510  0.00  0.00    +0.000 A 
ATOM     33  C   UNL     1      10.295  -1.816   7.864  0.00  0.00    +0.000 A 
ATOM     34  H   UNL     1      11.503  -1.959  10.827  0.00  0.00    +0.000 HD
BRANCH  32  35
ATOM     35  O   UNL     1       9.681  -1.930   5.531  0.00  0.00    +0.000 OA
ATOM     36  C   UNL     1      10.139  -1.580   4.227  0.00  0.00    +0.000 C 
ENDBRANCH  32  35
ENDBRANCH  22  25
ENDBRANCH  20  21
ENDBRANCH   4  20
TORSDOF 10
