REMARK  Name = 
REMARK  6 active torsions:
REMARK  status: ('A' for Active; 'I' for Inactive)
REMARK    1  A    between atoms: C_2  and  C_3
REMARK    2  A    between atoms: C_6  and  O_7
REMARK    3  A    between atoms: O_7  and  C_8
REMARK    4  A    between atoms: C_8  and  C_9
REMARK    5  A    between atoms: C_13  and  N_14
REMARK    6  A    between atoms: C_17  and  O_18
REMARK                            x       y       z     vdW  Elec       q    Type
REMARK                         _______ _______ _______ _____ _____    ______ ____
ROOT
ATOM      1  C   UNL     1       5.919  -0.956   0.339  0.00  0.00    +0.000 A 
ATOM      2  C   UNL     1       6.395   0.356   0.360  0.00  0.00    +0.000 A 
ATOM      3  C   UNL     1       7.746   0.609   0.592  0.00  0.00    +0.000 A 
ATOM      4  C   UNL     1       8.629  -0.447   0.830  0.00  0.00    +0.000 A 
ATOM      5  C   UNL     1       8.195  -1.778   0.836  0.00  0.00    +0.000 A 
ATOM      6  C   UNL     1       6.835  -2.003   0.542  0.00  0.00    +0.000 A 
ENDROOT
BRANCH   5   7
ATOM      7  N   UNL     1       9.050  -2.813   1.170  0.00  0.00    +0.000 N 
ATOM      8  C   UNL     1       8.547  -4.021   1.820  0.00  0.00    +0.000 C 
ATOM      9  C   UNL     1       8.785  -5.213   0.904  0.00  0.00    +0.000 C 
ATOM     10  C   UNL     1      10.250  -5.305   0.478  0.00  0.00    +0.000 C 
ATOM     11  C   UNL     1      10.776  -3.986  -0.090  0.00  0.00    +0.000 C 
ATOM     12  C   UNL     1      10.473  -2.801   0.827  0.00  0.00    +0.000 C 
BRANCH  10  13
ATOM     13  O   UNL     1      11.061  -5.739   1.570  0.00  0.00    +0.000 OA
ATOM     14  H   UNL     1      11.010  -5.080   2.283  0.00  0.00    +0.000 HD
ENDBRANCH  10  13
ENDBRANCH   5   7
BRANCH   1  15
ATOM     15  C   UNL     1       4.442  -1.245   0.163  0.00  0.00    +0.000 C 
BRANCH  15  16
ATOM     16  O   UNL     1       4.106  -1.360  -1.219  0.00  0.00    +0.000 OA
BRANCH  16  20
ATOM     17  C   UNL     1       0.160  -2.099  -2.434  0.00  0.00    +0.000 A 
ATOM     18  C   UNL     1       0.437  -2.015  -1.065  0.00  0.00    +0.000 A 
ATOM     19  C   UNL     1       1.745  -1.771  -0.613  0.00  0.00    +0.000 A 
ATOM     20  C   UNL     1       2.791  -1.608  -1.524  0.00  0.00    +0.000 A 
ATOM     21  C   UNL     1       2.509  -1.697  -2.891  0.00  0.00    +0.000 A 
ATOM     22  C   UNL     1       1.206  -1.940  -3.347  0.00  0.00    +0.000 A 
BRANCH  17  24
ATOM     23  N   UNL     1      -2.259  -2.538  -3.279  0.00  0.00    +0.000 NA
ATOM     24  C   UNL     1      -1.176  -2.344  -2.898  0.00  0.00    +0.000 C 
ENDBRANCH  17  24
ENDBRANCH  16  20
ENDBRANCH  15  16
ENDBRANCH   1  15
TORSDOF 6
