REMARK  Name = 
REMARK  7 active torsions:
REMARK  status: ('A' for Active; 'I' for Inactive)
REMARK    1  A    between atoms: C_2  and  C_20
REMARK    2  A    between atoms: N_3  and  C_4
REMARK    3  A    between atoms: C_4  and  C_5
REMARK    4  A    between atoms: C_8  and  C_9
REMARK    5  A    between atoms: C_9  and  O_10
REMARK    6  A    between atoms: O_10  and  C_11
REMARK    7  A    between atoms: C_11  and  C_12
REMARK                            x       y       z     vdW  Elec       q    Type
REMARK                         _______ _______ _______ _____ _____    ______ ____
ROOT
ATOM      1  C   UNL     1       2.202  -1.634   2.021  0.00  0.00    +0.000 C 
ENDROOT
BRANCH   1   2
ATOM      2  C   UNL     1       3.131  -2.569   2.754  0.00  0.00    +0.000 A 
ATOM      3  C   UNL     1       4.152  -2.054   3.561  0.00  0.00    +0.000 A 
ATOM      4  C   UNL     1       5.000  -2.911   4.264  0.00  0.00    +0.000 A 
ATOM      5  C   UNL     1       4.859  -4.302   4.163  0.00  0.00    +0.000 A 
ATOM      6  C   UNL     1       3.883  -4.819   3.301  0.00  0.00    +0.000 A 
ATOM      7  C   UNL     1       3.030  -3.960   2.599  0.00  0.00    +0.000 A 
BRANCH   5   8
ATOM      8  C   UNL     1       5.731  -5.213   4.989  0.00  0.00    +0.000 C 
BRANCH   8   9
ATOM      9  O   UNL     1       5.498  -4.927   6.365  0.00  0.00    +0.000 OA
BRANCH   9  10
ATOM     10  C   UNL     1       6.279  -5.765   7.222  0.00  0.00    +0.000 C 
BRANCH  10  11
ATOM     11  C   UNL     1       6.017  -5.440   8.677  0.00  0.00    +0.000 A 
ATOM     12  N   UNL     1       5.015  -6.098   9.300  0.00  0.00    +0.000 NA
ATOM     13  C   UNL     1       4.791  -5.771  10.587  0.00  0.00    +0.000 A 
ATOM     14  C   UNL     1       5.526  -4.833  11.272  0.00  0.00    +0.000 A 
ATOM     15  C   UNL     1       6.531  -4.230  10.557  0.00  0.00    +0.000 A 
ATOM     16  N   UNL     1       6.803  -4.514   9.269  0.00  0.00    +0.000 NA
ENDBRANCH  10  11
ENDBRANCH   9  10
ENDBRANCH   8   9
ENDBRANCH   5   8
ENDBRANCH   1   2
BRANCH   1  19
ATOM     17  O   UNL     1       1.237   0.283   0.119  0.00  0.00    +0.000 OA
ATOM     18  C   UNL     1       2.150  -0.482  -0.155  0.00  0.00    +0.000 C 
ATOM     19  N   UNL     1       2.735  -1.361   0.719  0.00  0.00    +0.000 N 
ATOM     20  H   UNL     1       3.331  -2.080   0.343  0.00  0.00    +0.000 HD
BRANCH  18  21
ATOM     21  C   UNL     1       2.609  -0.729  -1.524  0.00  0.00    +0.000 A 
ATOM     22  C   UNL     1       1.753  -0.800  -2.607  0.00  0.00    +0.000 A 
ATOM     23  S   UNL     1       2.454  -1.678  -3.906  0.00  0.00    +0.000 S 
ATOM     24  C   UNL     1       3.936  -1.837  -3.076  0.00  0.00    +0.000 A 
ATOM     25  N   UNL     1       4.952  -2.620  -3.527  0.00  0.00    +0.000 NA
ATOM     26  C   UNL     1       6.014  -2.587  -2.788  0.00  0.00    +0.000 A 
ATOM     27  N   UNL     1       6.175  -1.801  -1.673  0.00  0.00    +0.000 N 
ATOM     28  C   UNL     1       5.187  -0.973  -1.197  0.00  0.00    +0.000 A 
ATOM     29  O   UNL     1       5.375  -0.206  -0.260  0.00  0.00    +0.000 OA
ATOM     30  C   UNL     1       3.938  -1.096  -1.916  0.00  0.00    +0.000 A 
ATOM     31  H   UNL     1       7.061  -1.751  -1.192  0.00  0.00    +0.000 HD
ENDBRANCH  18  21
ENDBRANCH   1  19
TORSDOF 7
