REMARK  Name = 
REMARK  4 active torsions:
REMARK  status: ('A' for Active; 'I' for Inactive)
REMARK    1  A    between atoms: C_2  and  C_3
REMARK    2  A    between atoms: N_7  and  C_8
REMARK    3  A    between atoms: C_8  and  C_9
REMARK    4  A    between atoms: C_13  and  C_14
REMARK                            x       y       z     vdW  Elec       q    Type
REMARK                         _______ _______ _______ _____ _____    ______ ____
ROOT
ATOM      1  C   UNL     1      -5.883   1.027  -0.227  0.00  0.00    +0.000 A 
ATOM      2  C   UNL     1      -6.416  -0.265  -0.299  0.00  0.00    +0.000 A 
ATOM      3  C   UNL     1      -7.795  -0.463  -0.267  0.00  0.00    +0.000 A 
ATOM      4  C   UNL     1      -8.658   0.627  -0.145  0.00  0.00    +0.000 A 
ATOM      5  C   UNL     1      -8.166   1.939  -0.053  0.00  0.00    +0.000 A 
ATOM      6  C   UNL     1      -6.773   2.112  -0.125  0.00  0.00    +0.000 A 
ENDROOT
BRANCH   5   7
ATOM      7  C   UNL     1      -9.063   3.090   0.165  0.00  0.00    +0.000 A 
ATOM      8  C   UNL     1      -8.792   4.364  -0.355  0.00  0.00    +0.000 A 
ATOM      9  C   UNL     1      -9.644   5.434  -0.090  0.00  0.00    +0.000 A 
ATOM     10  C   UNL     1     -10.765   5.206   0.686  0.00  0.00    +0.000 A 
ATOM     11  N   UNL     1     -11.077   4.004   1.209  0.00  0.00    +0.000 NA
ATOM     12  C   UNL     1     -10.221   2.987   0.942  0.00  0.00    +0.000 A 
ENDBRANCH   5   7
BRANCH   1  13
ATOM     13  C   UNL     1      -4.404   1.337  -0.197  0.00  0.00    +0.000 C 
BRANCH  13  18
ATOM     14  C   UNL     1      -1.992  -1.766  -3.531  0.00  0.00    +0.000 A 
ATOM     15  C   UNL     1      -2.790  -0.655  -3.759  0.00  0.00    +0.000 A 
ATOM     16  C   UNL     1      -3.335   0.025  -2.669  0.00  0.00    +0.000 A 
ATOM     17  C   UNL     1      -3.079  -0.424  -1.376  0.00  0.00    +0.000 A 
ATOM     18  N   UNL     1      -3.560   0.175  -0.254  0.00  0.00    +0.000 N 
ATOM     19  N   UNL     1      -2.314  -1.510  -1.153  0.00  0.00    +0.000 NA
ATOM     20  C   UNL     1      -1.783  -2.152  -2.220  0.00  0.00    +0.000 A 
ATOM     21  H   UNL     1      -3.362  -0.329   0.603  0.00  0.00    +0.000 HD
BRANCH  14  23
ATOM     22  N   UNL     1      -0.939  -3.090  -5.486  0.00  0.00    +0.000 NA
ATOM     23  C   UNL     1      -1.412  -2.500  -4.608  0.00  0.00    +0.000 C 
ENDBRANCH  14  23
ENDBRANCH  13  18
ENDBRANCH   1  13
TORSDOF 4
