REMARK  Name = 
REMARK  8 active torsions:
REMARK  status: ('A' for Active; 'I' for Inactive)
REMARK    1  A    between atoms: C_1  and  C_2
REMARK    2  A    between atoms: C_5  and  O_6
REMARK    3  A    between atoms: O_6  and  C_7
REMARK    4  A    between atoms: C_7  and  C_8
REMARK    5  A    between atoms: C_11  and  C_12
REMARK    6  A    between atoms: C_12  and  N_13
REMARK    7  A    between atoms: C_14  and  C_16
REMARK    8  A    between atoms: C_28  and  C_29
REMARK                            x       y       z     vdW  Elec       q    Type
REMARK                         _______ _______ _______ _____ _____    ______ ____
ROOT
ATOM      1  C   UNL     1       3.877  -3.625  -0.088  0.00  0.00    +0.000 A 
ATOM      2  C   UNL     1       4.914  -2.682  -0.067  0.00  0.00    +0.000 A 
ATOM      3  C   UNL     1       6.254  -3.091  -0.057  0.00  0.00    +0.000 A 
ATOM      4  C   UNL     1       6.585  -4.452  -0.091  0.00  0.00    +0.000 A 
ATOM      5  C   UNL     1       5.548  -5.394  -0.100  0.00  0.00    +0.000 A 
ATOM      6  C   UNL     1       4.210  -4.986  -0.111  0.00  0.00    +0.000 A 
ENDROOT
BRANCH   1   7
ATOM      7  C   UNL     1       2.431  -3.185  -0.111  0.00  0.00    +0.000 C 
BRANCH   7   8
ATOM      8  O   UNL     1       2.023  -3.015  -1.468  0.00  0.00    +0.000 OA
BRANCH   8  13
ATOM      9  C   UNL     1      -3.212  -1.504  -2.891  0.00  0.00    +0.000 C 
ATOM     10  C   UNL     1      -1.834  -1.886  -2.440  0.00  0.00    +0.000 A 
ATOM     11  C   UNL     1      -1.522  -2.000  -1.092  0.00  0.00    +0.000 A 
ATOM     12  C   UNL     1      -0.228  -2.378  -0.725  0.00  0.00    +0.000 A 
ATOM     13  C   UNL     1       0.730  -2.633  -1.706  0.00  0.00    +0.000 A 
ATOM     14  C   UNL     1       0.337  -2.485  -3.041  0.00  0.00    +0.000 A 
ATOM     15  C   UNL     1       1.281  -2.719  -4.185  0.00  0.00    +0.000 C 
ATOM     16  N   UNL     1      -0.924  -2.120  -3.409  0.00  0.00    +0.000 NA
ENDBRANCH   8  13
ENDBRANCH   7   8
ENDBRANCH   1   7
BRANCH   4  17
ATOM     17  C   UNL     1       8.024  -4.906  -0.091  0.00  0.00    +0.000 C 
BRANCH  17  18
ATOM     18  N   UNL     1       8.510  -5.104   1.251  0.00  0.00    +0.000 N 
ATOM     19  C   UNL     1       9.812  -5.459   1.499  0.00  0.00    +0.000 C 
ATOM     20  O   UNL     1      10.637  -5.593   0.601  0.00  0.00    +0.000 OA
ATOM     21  H   UNL     1       7.811  -5.248   1.972  0.00  0.00    +0.000 HD
BRANCH  19  22
ATOM     22  C   UNL     1      10.186  -5.607   2.913  0.00  0.00    +0.000 A 
ATOM     23  C   UNL     1      11.509  -5.443   3.300  0.00  0.00    +0.000 A 
ATOM     24  S   UNL     1      11.754  -5.595   4.982  0.00  0.00    +0.000 S 
ATOM     25  C   UNL     1      10.109  -5.941   5.246  0.00  0.00    +0.000 A 
ATOM     26  N   UNL     1       9.640  -6.208   6.494  0.00  0.00    +0.000 NA
ATOM     27  C   UNL     1       8.379  -6.485   6.544  0.00  0.00    +0.000 A 
ATOM     28  N   UNL     1       7.544  -6.512   5.458  0.00  0.00    +0.000 N 
ATOM     29  C   UNL     1       7.964  -6.214   4.184  0.00  0.00    +0.000 A 
ATOM     30  O   UNL     1       7.177  -6.194   3.246  0.00  0.00    +0.000 OA
ATOM     31  C   UNL     1       9.379  -5.916   4.070  0.00  0.00    +0.000 A 
ATOM     32  H   UNL     1       6.562  -6.723   5.565  0.00  0.00    +0.000 HD
ENDBRANCH  19  22
ENDBRANCH  17  18
ENDBRANCH   4  17
TORSDOF 6
