REMARK  Name = 
REMARK  9 active torsions:
REMARK  status: ('A' for Active; 'I' for Inactive)
REMARK    1  A    between atoms: C_1  and  O_2
REMARK    2  A    between atoms: O_2  and  C_3
REMARK    3  A    between atoms: C_5  and  C_6
REMARK    4  A    between atoms: C_6  and  N_7
REMARK    5  A    between atoms: N_7  and  C_8
REMARK    6  A    between atoms: C_8  and  C_9
REMARK    7  A    between atoms: C_17  and  C_18
REMARK    8  A    between atoms: C_18  and  N_19
REMARK    9  A    between atoms: C_20  and  C_22
REMARK                            x       y       z     vdW  Elec       q    Type
REMARK                         _______ _______ _______ _____ _____    ______ ____
ROOT
ATOM      1  C   UNL     1       3.039  -0.707  -0.882  0.00  0.00    +0.000 A 
ATOM      2  C   UNL     1       2.809  -0.567  -2.258  0.00  0.00    +0.000 A 
ATOM      3  C   UNL     1       3.579  -1.271  -3.195  0.00  0.00    +0.000 A 
ATOM      4  C   UNL     1       4.601  -2.111  -2.734  0.00  0.00    +0.000 A 
ATOM      5  C   UNL     1       4.836  -2.257  -1.365  0.00  0.00    +0.000 A 
ATOM      6  C   UNL     1       4.065  -1.552  -0.426  0.00  0.00    +0.000 A 
ENDROOT
BRANCH   1   8
ATOM      7  C   UNL     1       1.083   0.518  -0.297  0.00  0.00    +0.000 C 
ATOM      8  O   UNL     1       2.330  -0.046   0.086  0.00  0.00    +0.000 OA
ENDBRANCH   1   8
BRANCH   3   9
ATOM      9  C   UNL     1       3.293  -1.150  -4.675  0.00  0.00    +0.000 C 
BRANCH   9  10
ATOM     10  N   UNL     1       2.918  -2.453  -5.214  0.00  0.00    +0.000 NA
ATOM     11  H   UNL     1       2.105  -2.797  -4.703  0.00  0.00    +0.000 HD
BRANCH  10  12
ATOM     12  C   UNL     1       2.619  -2.403  -6.640  0.00  0.00    +0.000 C 
BRANCH  12  13
ATOM     13  C   UNL     1       2.274  -3.770  -7.147  0.00  0.00    +0.000 A 
ATOM     14  C   UNL     1       1.062  -4.070  -7.731  0.00  0.00    +0.000 A 
ATOM     15  N   UNL     1       0.726  -5.301  -8.172  0.00  0.00    +0.000 NA
ATOM     16  C   UNL     1       1.659  -6.253  -8.007  0.00  0.00    +0.000 A 
ATOM     17  N   UNL     1       2.872  -6.085  -7.463  0.00  0.00    +0.000 NA
ATOM     18  C   UNL     1       3.150  -4.834  -7.040  0.00  0.00    +0.000 A 
ENDBRANCH  12  13
ENDBRANCH  10  12
ENDBRANCH   9  10
ENDBRANCH   3   9
BRANCH   6  19
ATOM     19  C   UNL     1       4.303  -1.769   1.050  0.00  0.00    +0.000 C 
BRANCH  19  20
ATOM     20  N   UNL     1       3.474  -2.834   1.565  0.00  0.00    +0.000 N 
ATOM     21  C   UNL     1       3.568  -3.245   2.870  0.00  0.00    +0.000 C 
ATOM     22  O   UNL     1       4.364  -2.734   3.654  0.00  0.00    +0.000 OA
ATOM     23  H   UNL     1       2.632  -3.047   1.037  0.00  0.00    +0.000 HD
BRANCH  21  24
ATOM     24  C   UNL     1       2.740  -4.396   3.264  0.00  0.00    +0.000 A 
ATOM     25  C   UNL     1       2.857  -4.937   4.538  0.00  0.00    +0.000 A 
ATOM     26  S   UNL     1       2.059  -6.437   4.713  0.00  0.00    +0.000 S 
ATOM     27  C   UNL     1       1.488  -6.378   3.112  0.00  0.00    +0.000 A 
ATOM     28  N   UNL     1       0.812  -7.422   2.561  0.00  0.00    +0.000 NA
ATOM     29  C   UNL     1       0.407  -7.214   1.352  0.00  0.00    +0.000 A 
ATOM     30  N   UNL     1       0.570  -6.039   0.664  0.00  0.00    +0.000 N 
ATOM     31  C   UNL     1       1.202  -4.945   1.202  0.00  0.00    +0.000 A 
ATOM     32  O   UNL     1       1.214  -3.862   0.625  0.00  0.00    +0.000 OA
ATOM     33  C   UNL     1       1.795  -5.176   2.503  0.00  0.00    +0.000 A 
ATOM     34  H   UNL     1       0.154  -5.910  -0.247  0.00  0.00    +0.000 HD
ENDBRANCH  21  24
ENDBRANCH  19  20
ENDBRANCH   6  19
TORSDOF 8
