REMARK  Name = 
REMARK  6 active torsions:
REMARK  status: ('A' for Active; 'I' for Inactive)
REMARK    1  A    between atoms: C_1  and  O_2
REMARK    2  A    between atoms: O_2  and  C_3
REMARK    3  A    between atoms: N_6  and  C_7
REMARK    4  A    between atoms: C_7  and  C_8
REMARK    5  A    between atoms: C_12  and  C_13
REMARK    6  A    between atoms: C_22  and  C_23
REMARK                            x       y       z     vdW  Elec       q    Type
REMARK                         _______ _______ _______ _____ _____    ______ ____
ROOT
ATOM      1  C   UNL     1       3.045   1.709   3.295  0.00  0.00    +0.000 A 
ATOM      2  N   UNL     1       4.188   2.334   2.948  0.00  0.00    +0.000 NA
ATOM      3  C   UNL     1       4.694   2.096   1.736  0.00  0.00    +0.000 A 
ATOM      4  N   UNL     1       5.836   2.760   1.336  0.00  0.00    +0.000 N 
ATOM      5  N   UNL     1       4.142   1.247   0.862  0.00  0.00    +0.000 NA
ATOM      6  C   UNL     1       2.997   0.634   1.247  0.00  0.00    +0.000 A 
ATOM      7  C   UNL     1       2.384   0.827   2.466  0.00  0.00    +0.000 A 
ATOM      8  H   UNL     1       6.252   2.249   0.565  0.00  0.00    +0.000 HD
ENDROOT
BRANCH   7   9
ATOM      9  C   UNL     1       1.126   0.115   2.757  0.00  0.00    +0.000 C 
ATOM     10  N   UNL     1       0.560   0.254   3.991  0.00  0.00    +0.000 N 
ATOM     11  O   UNL     1       0.596  -0.594   1.910  0.00  0.00    +0.000 OA
ATOM     12  H   UNL     1       0.959   0.843   4.712  0.00  0.00    +0.000 HD
ATOM     13  H   UNL     1      -0.320  -0.212   4.172  0.00  0.00    +0.000 HD
ENDBRANCH   7   9
BRANCH   1  15
ATOM     14  C   UNL     1       3.278   2.989   5.246  0.00  0.00    +0.000 C 
ATOM     15  O   UNL     1       2.531   1.989   4.548  0.00  0.00    +0.000 OA
ENDBRANCH   1  15
BRANCH   4  16
ATOM     16  C   UNL     1       6.730   3.116   2.419  0.00  0.00    +0.000 C 
BRANCH  16  17
ATOM     17  C   UNL     1       7.951   3.813   1.868  0.00  0.00    +0.000 A 
ATOM     18  C   UNL     1       9.232   3.317   2.124  0.00  0.00    +0.000 A 
ATOM     19  C   UNL     1      10.348   3.972   1.614  0.00  0.00    +0.000 A 
ATOM     20  C   UNL     1      10.191   5.117   0.828  0.00  0.00    +0.000 A 
ATOM     21  C   UNL     1       8.918   5.631   0.521  0.00  0.00    +0.000 A 
ATOM     22  C   UNL     1       7.810   4.975   1.085  0.00  0.00    +0.000 A 
BRANCH  21  23
ATOM     23  C   UNL     1       8.744   6.755  -0.430  0.00  0.00    +0.000 A 
ATOM     24  C   UNL     1       9.590   6.882  -1.548  0.00  0.00    +0.000 A 
ATOM     25  C   UNL     1       9.394   7.878  -2.508  0.00  0.00    +0.000 A 
ATOM     26  C   UNL     1       8.339   8.772  -2.376  0.00  0.00    +0.000 A 
ATOM     27  C   UNL     1       7.493   8.682  -1.274  0.00  0.00    +0.000 A 
ATOM     28  C   UNL     1       7.700   7.689  -0.308  0.00  0.00    +0.000 A 
ENDBRANCH  21  23
ENDBRANCH  16  17
ENDBRANCH   4  16
TORSDOF 5
