REMARK  Name = 
REMARK  7 active torsions:
REMARK  status: ('A' for Active; 'I' for Inactive)
REMARK    1  A    between atoms: C_1  and  C_2
REMARK    2  A    between atoms: C_2  and  N_3
REMARK    3  A    between atoms: C_2  and  C_16
REMARK    4  A    between atoms: C_4  and  C_6
REMARK    5  A    between atoms: C_19  and  C_20
REMARK    6  A    between atoms: C_20  and  N_21
REMARK    7  A    between atoms: C_22  and  C_24
REMARK                            x       y       z     vdW  Elec       q    Type
REMARK                         _______ _______ _______ _____ _____    ______ ____
ROOT
ATOM      1  C   UNL     1       3.144   0.326  -1.319  0.00  0.00    +0.000 C 
ATOM      2  C   UNL     1       2.370   0.107  -0.012  0.00  0.00    +0.000 C 
ENDROOT
BRANCH   2   3
ATOM      3  C   UNL     1       2.802  -1.202   0.646  0.00  0.00    +0.000 A 
ATOM      4  C   UNL     1       3.399  -1.215   1.914  0.00  0.00    +0.000 A 
ATOM      5  C   UNL     1       3.753  -2.427   2.529  0.00  0.00    +0.000 A 
ATOM      6  C   UNL     1       3.523  -3.653   1.890  0.00  0.00    +0.000 A 
ATOM      7  C   UNL     1       2.932  -3.641   0.621  0.00  0.00    +0.000 A 
ATOM      8  C   UNL     1       2.583  -2.434   0.006  0.00  0.00    +0.000 A 
BRANCH   6   9
ATOM      9  C   UNL     1       3.881  -4.962   2.552  0.00  0.00    +0.000 C 
BRANCH   9  10
ATOM     10  N   UNL     1       2.804  -5.475   3.359  0.00  0.00    +0.000 N 
ATOM     11  C   UNL     1       2.879  -6.710   3.975  0.00  0.00    +0.000 C 
ATOM     12  O   UNL     1       3.864  -7.430   3.878  0.00  0.00    +0.000 OA
ATOM     13  H   UNL     1       1.985  -4.906   3.538  0.00  0.00    +0.000 HD
BRANCH  11  14
ATOM     14  C   UNL     1       1.696  -7.067   4.735  0.00  0.00    +0.000 A 
ATOM     15  C   UNL     1       1.406  -8.170   5.520  0.00  0.00    +0.000 A 
ATOM     16  C   UNL     1       0.087  -7.995   6.005  0.00  0.00    +0.000 A 
ATOM     17  C   UNL     1      -0.352  -6.798   5.489  0.00  0.00    +0.000 A 
ATOM     18  O   UNL     1       0.613  -6.223   4.726  0.00  0.00    +0.000 OA
ENDBRANCH  11  14
ENDBRANCH   9  10
ENDBRANCH   6   9
ENDBRANCH   2   3
BRANCH   2  19
ATOM     19  N   UNL     1       0.925   0.087  -0.212  0.00  0.00    +0.000 N 
ATOM     20  C   UNL     1       0.214   1.129  -0.749  0.00  0.00    +0.000 C 
ATOM     21  O   UNL     1       0.743   2.164  -1.147  0.00  0.00    +0.000 OA
ATOM     22  H   UNL     1       0.417  -0.573   0.369  0.00  0.00    +0.000 HD
BRANCH  20  23
ATOM     23  C   UNL     1      -1.236   0.929  -0.885  0.00  0.00    +0.000 A 
ATOM     24  C   UNL     1      -1.933   1.584  -1.893  0.00  0.00    +0.000 A 
ATOM     25  S   UNL     1      -3.606   1.253  -1.895  0.00  0.00    +0.000 S 
ATOM     26  C   UNL     1      -3.465   0.254  -0.525  0.00  0.00    +0.000 A 
ATOM     27  N   UNL     1      -4.562  -0.319   0.040  0.00  0.00    +0.000 NA
ATOM     28  C   UNL     1      -4.311  -1.026   1.091  0.00  0.00    +0.000 A 
ATOM     29  N   UNL     1      -3.061  -1.230   1.616  0.00  0.00    +0.000 N 
ATOM     30  C   UNL     1      -1.921  -0.710   1.051  0.00  0.00    +0.000 A 
ATOM     31  O   UNL     1      -0.809  -0.976   1.494  0.00  0.00    +0.000 OA
ATOM     32  C   UNL     1      -2.153   0.136  -0.103  0.00  0.00    +0.000 A 
ATOM     33  H   UNL     1      -2.929  -1.819   2.424  0.00  0.00    +0.000 HD
ENDBRANCH  20  23
ENDBRANCH   2  19
TORSDOF 6
