REMARK  Name = 
REMARK  5 active torsions:
REMARK  status: ('A' for Active; 'I' for Inactive)
REMARK    1  A    between atoms: C_2  and  C_18
REMARK    2  A    between atoms: N_3  and  C_4
REMARK    3  A    between atoms: C_4  and  C_5
REMARK    4  A    between atoms: C_8  and  C_9
REMARK    5  A    between atoms: C_9  and  N_10
REMARK                            x       y       z     vdW  Elec       q    Type
REMARK                         _______ _______ _______ _____ _____    ______ ____
ROOT
ATOM      1  O   UNL     1       1.008   0.636   0.665  0.00  0.00    +0.000 OA
ATOM      2  C   UNL     1       1.623   1.624   1.054  0.00  0.00    +0.000 C 
ATOM      3  N   UNL     1       2.442   2.351   0.234  0.00  0.00    +0.000 N 
ATOM      4  H   UNL     1       2.879   3.199   0.572  0.00  0.00    +0.000 HD
ENDROOT
BRANCH   2   5
ATOM      5  C   UNL     1       1.554   2.076   2.451  0.00  0.00    +0.000 A 
ATOM      6  C   UNL     1       1.285   1.174   3.471  0.00  0.00    +0.000 A 
ATOM      7  S   UNL     1       1.290   1.885   5.023  0.00  0.00    +0.000 S 
ATOM      8  C   UNL     1       1.598   3.429   4.380  0.00  0.00    +0.000 A 
ATOM      9  N   UNL     1       1.711   4.519   5.187  0.00  0.00    +0.000 NA
ATOM     10  C   UNL     1       1.902   5.634   4.564  0.00  0.00    +0.000 A 
ATOM     11  N   UNL     1       1.991   5.752   3.198  0.00  0.00    +0.000 N 
ATOM     12  C   UNL     1       1.903   4.679   2.342  0.00  0.00    +0.000 A 
ATOM     13  O   UNL     1       2.014   4.824   1.129  0.00  0.00    +0.000 OA
ATOM     14  C   UNL     1       1.696   3.403   3.001  0.00  0.00    +0.000 A 
ATOM     15  H   UNL     1       2.138   6.653   2.765  0.00  0.00    +0.000 HD
ENDBRANCH   2   5
BRANCH   3  16
ATOM     16  C   UNL     1       2.560   2.086  -1.189  0.00  0.00    +0.000 C 
BRANCH  16  17
ATOM     17  C   UNL     1       3.424   3.127  -1.875  0.00  0.00    +0.000 A 
ATOM     18  C   UNL     1       2.845   4.275  -2.413  0.00  0.00    +0.000 A 
ATOM     19  C   UNL     1       3.670   5.298  -2.888  0.00  0.00    +0.000 A 
ATOM     20  C   UNL     1       5.060   5.182  -2.788  0.00  0.00    +0.000 A 
ATOM     21  C   UNL     1       5.547   3.975  -2.301  0.00  0.00    +0.000 A 
ATOM     22  N   UNL     1       4.773   2.959  -1.839  0.00  0.00    +0.000 NA
BRANCH  20  23
ATOM     23  C   UNL     1       5.973   6.360  -3.059  0.00  0.00    +0.000 C 
BRANCH  23  24
ATOM     24  N   UNL     1       6.295   6.601  -4.472  0.00  0.00    +0.000 NA
ATOM     25  C   UNL     1       7.262   5.628  -5.025  0.00  0.00    +0.000 C 
ATOM     26  C   UNL     1       8.700   5.824  -4.515  0.00  0.00    +0.000 C 
ATOM     27  O   UNL     1       9.182   7.130  -4.848  0.00  0.00    +0.000 OA
ATOM     28  C   UNL     1       8.338   8.152  -4.309  0.00  0.00    +0.000 C 
ATOM     29  C   UNL     1       6.853   7.960  -4.686  0.00  0.00    +0.000 C 
ENDBRANCH  23  24
ENDBRANCH  20  23
ENDBRANCH  16  17
ENDBRANCH   3  16
TORSDOF 5
