REMARK  Name = 
REMARK  10 active torsions:
REMARK  status: ('A' for Active; 'I' for Inactive)
REMARK    1  A    between atoms: C_1  and  C_2
REMARK    2  A    between atoms: C_2  and  N_3
REMARK    3  A    between atoms: C_2  and  C_25
REMARK    4  A    between atoms: N_3  and  C_4
REMARK    5  A    between atoms: C_4  and  C_5
REMARK    6  A    between atoms: C_8  and  C_9
REMARK    7  A    between atoms: C_9  and  N_10
REMARK    8  A    between atoms: N_10  and  C_11
REMARK    9  A    between atoms: C_11  and  C_12
REMARK   10  A    between atoms: C_11  and  C_13
REMARK                            x       y       z     vdW  Elec       q    Type
REMARK                         _______ _______ _______ _____ _____    ______ ____
ROOT
ATOM      1  C   UNL     1      -0.906  -0.493  -1.372  0.00  0.00    +0.000 A 
ATOM      2  C   UNL     1      -1.528  -1.392  -0.508  0.00  0.00    +0.000 A 
ATOM      3  C   UNL     1      -2.918  -1.491  -0.519  0.00  0.00    +0.000 A 
ATOM      4  C   UNL     1      -3.664  -0.677  -1.374  0.00  0.00    +0.000 A 
ATOM      5  C   UNL     1      -2.957   0.191  -2.199  0.00  0.00    +0.000 A 
ATOM      6  N   UNL     1      -1.609   0.293  -2.225  0.00  0.00    +0.000 NA
ENDROOT
BRANCH   1   7
ATOM      7  C   UNL     1       0.612  -0.394  -1.405  0.00  0.00    +0.000 C 
BRANCH   7   8
ATOM      8  N   UNL     1       1.113   0.920  -0.983  0.00  0.00    +0.000 NA
ATOM      9  H   UNL     1       0.794   1.093  -0.028  0.00  0.00    +0.000 HD
BRANCH   8  11
ATOM     10  C   UNL     1       3.005   2.428  -0.689  0.00  0.00    +0.000 C 
ATOM     11  C   UNL     1       2.580   0.989  -0.988  0.00  0.00    +0.000 C 
BRANCH  11  12
ATOM     12  C   UNL     1       3.173   0.053   0.030  0.00  0.00    +0.000 A 
ATOM     13  N   UNL     1       2.876  -0.015   1.314  0.00  0.00    +0.000 NA
ATOM     14  C   UNL     1       3.592  -1.075   1.805  0.00  0.00    +0.000 A 
ATOM     15  C   UNL     1       4.323  -1.671   0.808  0.00  0.00    +0.000 A 
ATOM     16  N   UNL     1       4.062  -0.937  -0.315  0.00  0.00    +0.000 N 
ATOM     17  H   UNL     1       4.421  -1.109  -1.244  0.00  0.00    +0.000 HD
ENDBRANCH  11  12
ENDBRANCH   8  11
ENDBRANCH   7   8
ENDBRANCH   1   7
BRANCH   4  18
ATOM     18  C   UNL     1      -5.165  -0.772  -1.447  0.00  0.00    +0.000 C 
BRANCH  18  19
ATOM     19  N   UNL     1      -5.783  -0.546  -0.139  0.00  0.00    +0.000 NA
ATOM     20  H   UNL     1      -5.474   0.366   0.202  0.00  0.00    +0.000 HD
BRANCH  19  21
ATOM     21  C   UNL     1      -7.252  -0.540  -0.186  0.00  0.00    +0.000 C 
ATOM     22  C   UNL     1      -7.837  -1.890  -0.631  0.00  0.00    +0.000 C 
BRANCH  21  23
ATOM     23  C   UNL     1      -7.740  -0.205   1.213  0.00  0.00    +0.000 A 
ATOM     24  C   UNL     1      -7.393  -0.932   2.344  0.00  0.00    +0.000 A 
ATOM     25  S   UNL     1      -8.174  -0.400   3.762  0.00  0.00    +0.000 S 
ATOM     26  C   UNL     1      -8.995   0.830   2.918  0.00  0.00    +0.000 A 
ATOM     27  N   UNL     1      -9.882   1.641   3.555  0.00  0.00    +0.000 NA
ATOM     28  C   UNL     1     -10.441   2.517   2.788  0.00  0.00    +0.000 A 
ATOM     29  N   UNL     1     -10.179   2.670   1.450  0.00  0.00    +0.000 N 
ATOM     30  C   UNL     1      -9.261   1.898   0.770  0.00  0.00    +0.000 A 
ATOM     31  O   UNL     1      -8.999   2.108  -0.410  0.00  0.00    +0.000 OA
ATOM     32  C   UNL     1      -8.649   0.858   1.579  0.00  0.00    +0.000 A 
ATOM     33  H   UNL     1     -10.629   3.399   0.917  0.00  0.00    +0.000 HD
ENDBRANCH  21  23
ENDBRANCH  19  21
ENDBRANCH  18  19
ENDBRANCH   4  18
TORSDOF 8
