REMARK  Name = 
REMARK  7 active torsions:
REMARK  status: ('A' for Active; 'I' for Inactive)
REMARK    1  A    between atoms: C_1  and  O_2
REMARK    2  A    between atoms: O_2  and  C_3
REMARK    3  A    between atoms: C_6  and  C_7
REMARK    4  A    between atoms: C_7  and  N_8
REMARK    5  A    between atoms: C_14  and  C_15
REMARK    6  A    between atoms: N_17  and  C_18
REMARK    7  A    between atoms: N_17  and  C_19
REMARK                            x       y       z     vdW  Elec       q    Type
REMARK                         _______ _______ _______ _____ _____    ______ ____
ROOT
ATOM      1  N   UNL     1       4.807   2.780   5.176  0.00  0.00    +0.000 N 
ATOM      2  C   UNL     1       4.411   3.979   5.725  0.00  0.00    +0.000 A 
ATOM      3  C   UNL     1       3.712   3.709   6.880  0.00  0.00    +0.000 A 
ATOM      4  C   UNL     1       3.685   2.297   7.042  0.00  0.00    +0.000 A 
ATOM      5  C   UNL     1       3.107   1.423   7.972  0.00  0.00    +0.000 A 
ATOM      6  C   UNL     1       3.316   0.057   7.782  0.00  0.00    +0.000 A 
ATOM      7  C   UNL     1       4.094  -0.385   6.707  0.00  0.00    +0.000 A 
ATOM      8  N   UNL     1       4.640   0.428   5.765  0.00  0.00    +0.000 NA
ATOM      9  C   UNL     1       4.403   1.742   5.985  0.00  0.00    +0.000 A 
ENDROOT
BRANCH   7  10
ATOM     10  C   UNL     1       4.239  -1.877   6.550  0.00  0.00    +0.000 C 
ATOM     11  O   UNL     1       3.295  -2.563   6.957  0.00  0.00    +0.000 OA
ATOM     12  N   UNL     1       5.385  -2.480   6.008  0.00  0.00    +0.000 N 
ATOM     13  C   UNL     1       6.640  -1.820   5.693  0.00  0.00    +0.000 C 
ATOM     14  C   UNL     1       5.424  -3.931   5.938  0.00  0.00    +0.000 C 
ENDBRANCH   7  10
BRANCH   1  15
ATOM     15  C   UNL     1       5.416   2.632   3.861  0.00  0.00    +0.000 C 
BRANCH  15  19
ATOM     16  C   UNL     1       9.698   3.273   3.850  0.00  0.00    +0.000 A 
ATOM     17  C   UNL     1       9.147   2.213   4.565  0.00  0.00    +0.000 A 
ATOM     18  C   UNL     1       7.762   2.022   4.578  0.00  0.00    +0.000 A 
ATOM     19  C   UNL     1       6.904   2.874   3.873  0.00  0.00    +0.000 A 
ATOM     20  C   UNL     1       7.468   3.927   3.141  0.00  0.00    +0.000 A 
ATOM     21  C   UNL     1       8.853   4.122   3.134  0.00  0.00    +0.000 A 
BRANCH  16  23
ATOM     22  C   UNL     1      11.916   2.787   4.551  0.00  0.00    +0.000 C 
ATOM     23  O   UNL     1      11.028   3.584   3.775  0.00  0.00    +0.000 OA
ENDBRANCH  16  23
ENDBRANCH  15  19
ENDBRANCH   1  15
TORSDOF 4
