REMARK  Name = 
REMARK  4 active torsions:
REMARK  status: ('A' for Active; 'I' for Inactive)
REMARK    1  A    between atoms: C_2  and  C_4
REMARK    2  A    between atoms: C_7  and  N_8
REMARK    3  A    between atoms: N_8  and  C_9
REMARK    4  A    between atoms: C_9  and  C_10
REMARK                            x       y       z     vdW  Elec       q    Type
REMARK                         _______ _______ _______ _____ _____    ______ ____
ROOT
ATOM      1  N   UNL     1       5.327   3.567  -4.092  0.00  0.00    +0.000 N 
ATOM      2  H   UNL     1       6.342   3.521  -4.028  0.00  0.00    +0.000 HD
ENDROOT
BRANCH   1   6
ATOM      3  C   UNL     1       3.368   3.387  -0.349  0.00  0.00    +0.000 A 
ATOM      4  C   UNL     1       2.787   2.783  -1.461  0.00  0.00    +0.000 A 
ATOM      5  C   UNL     1       3.437   2.818  -2.701  0.00  0.00    +0.000 A 
ATOM      6  C   UNL     1       4.689   3.428  -2.857  0.00  0.00    +0.000 A 
ATOM      7  C   UNL     1       5.248   4.051  -1.732  0.00  0.00    +0.000 A 
ATOM      8  C   UNL     1       4.598   4.037  -0.489  0.00  0.00    +0.000 A 
BRANCH   3  10
ATOM      9  N   UNL     1       1.832   2.365   1.242  0.00  0.00    +0.000 N 
ATOM     10  C   UNL     1       2.691   3.397   0.972  0.00  0.00    +0.000 C 
ATOM     11  O   UNL     1       2.907   4.268   1.805  0.00  0.00    +0.000 OA
ATOM     12  H   UNL     1       1.454   2.329   2.180  0.00  0.00    +0.000 HD
ATOM     13  H   UNL     1       1.818   1.514   0.698  0.00  0.00    +0.000 HD
ENDBRANCH   3  10
ENDBRANCH   1   6
BRANCH   1  14
ATOM     14  C   UNL     1       4.770   2.927  -5.274  0.00  0.00    +0.000 C 
BRANCH  14  15
ATOM     15  C   UNL     1       5.594   3.230  -6.496  0.00  0.00    +0.000 A 
ATOM     16  C   UNL     1       6.146   2.219  -7.275  0.00  0.00    +0.000 A 
ATOM     17  C   UNL     1       6.853   2.583  -8.407  0.00  0.00    +0.000 A 
ATOM     18  N   UNL     1       7.043   3.861  -8.806  0.00  0.00    +0.000 NA
ATOM     19  C   UNL     1       6.489   4.849  -8.073  0.00  0.00    +0.000 A 
ATOM     20  N   UNL     1       6.693   6.157  -8.436  0.00  0.00    +0.000 N 
ATOM     21  C   UNL     1       7.795   6.527  -9.324  0.00  0.00    +0.000 C 
ATOM     22  C   UNL     1       8.346   7.877  -8.820  0.00  0.00    +0.000 C 
ATOM     23  O   UNL     1       7.320   8.891  -8.755  0.00  0.00    +0.000 OA
ATOM     24  C   UNL     1       6.240   8.472  -7.899  0.00  0.00    +0.000 C 
ATOM     25  C   UNL     1       5.623   7.155  -8.387  0.00  0.00    +0.000 C 
ATOM     26  C   UNL     1       5.775   4.553  -6.913  0.00  0.00    +0.000 A 
ENDBRANCH  14  15
ENDBRANCH   1  14
TORSDOF 4
