REMARK  Name = 
REMARK  6 active torsions:
REMARK  status: ('A' for Active; 'I' for Inactive)
REMARK    1  A    between atoms: C_1  and  O_2
REMARK    2  A    between atoms: O_2  and  C_3
REMARK    3  A    between atoms: C_5  and  C_6
REMARK    4  A    between atoms: C_6  and  N_7
REMARK    5  A    between atoms: C_12  and  C_13
REMARK    6  A    between atoms: C_21  and  O_22
REMARK                            x       y       z     vdW  Elec       q    Type
REMARK                         _______ _______ _______ _____ _____    ______ ____
ROOT
ATOM      1  N   UNL     1       1.066   4.716   0.081  0.00  0.00    +0.000 N 
ATOM      2  C   UNL     1       0.327   4.638   1.233  0.00  0.00    +0.000 A 
ATOM      3  N   UNL     1      -0.964   4.753   1.000  0.00  0.00    +0.000 NA
ATOM      4  C   UNL     1      -1.064   4.930  -0.357  0.00  0.00    +0.000 A 
ATOM      5  C   UNL     1      -2.183   5.152  -1.166  0.00  0.00    +0.000 A 
ATOM      6  C   UNL     1      -1.955   5.335  -2.535  0.00  0.00    +0.000 A 
ATOM      7  C   UNL     1      -0.638   5.264  -3.012  0.00  0.00    +0.000 A 
ATOM      8  N   UNL     1       0.478   5.048  -2.265  0.00  0.00    +0.000 NA
ATOM      9  C   UNL     1       0.190   4.897  -0.956  0.00  0.00    +0.000 A 
ENDROOT
BRANCH   6  10
ATOM     10  C   UNL     1      -3.034   5.618  -3.517  0.00  0.00    +0.000 C 
ATOM     11  N   UNL     1      -4.322   5.698  -3.071  0.00  0.00    +0.000 N 
ATOM     12  O   UNL     1      -2.779   5.774  -4.706  0.00  0.00    +0.000 OA
ATOM     13  H   UNL     1      -4.623   5.571  -2.118  0.00  0.00    +0.000 HD
ATOM     14  H   UNL     1      -5.034   5.883  -3.766  0.00  0.00    +0.000 HD
ENDBRANCH   6  10
BRANCH   1  15
ATOM     15  C   UNL     1       2.515   4.789   0.001  0.00  0.00    +0.000 C 
BRANCH  15  18
ATOM     16  C   UNL     1       3.502   1.279  -1.168  0.00  0.00    +0.000 A 
ATOM     17  C   UNL     1       2.927   2.555  -1.127  0.00  0.00    +0.000 A 
ATOM     18  C   UNL     1       3.170   3.430  -0.053  0.00  0.00    +0.000 A 
ATOM     19  C   UNL     1       4.061   3.030   0.954  0.00  0.00    +0.000 A 
ATOM     20  C   UNL     1       4.660   1.770   0.913  0.00  0.00    +0.000 A 
ATOM     21  C   UNL     1       4.369   0.897  -0.136  0.00  0.00    +0.000 A 
BRANCH  16  23
ATOM     22  C   UNL     1       2.377   0.723  -3.191  0.00  0.00    +0.000 C 
ATOM     23  O   UNL     1       3.273   0.352  -2.152  0.00  0.00    +0.000 OA
ENDBRANCH  16  23
BRANCH  21  24
ATOM     24  O   UNL     1       4.937  -0.347  -0.158  0.00  0.00    +0.000 OA
ATOM     25  H   UNL     1       5.462  -0.475   0.649  0.00  0.00    +0.000 HD
ENDBRANCH  21  24
ENDBRANCH  15  18
ENDBRANCH   1  15
TORSDOF 5
