REMARK  Name = 
REMARK  6 active torsions:
REMARK  status: ('A' for Active; 'I' for Inactive)
REMARK    1  A    between atoms: C_2  and  C_5
REMARK    2  A    between atoms: C_8  and  C_9
REMARK    3  A    between atoms: C_13  and  C_14
REMARK    4  A    between atoms: C_14  and  N_15
REMARK    5  A    between atoms: N_15  and  C_16
REMARK    6  A    between atoms: C_21  and  C_22
REMARK                            x       y       z     vdW  Elec       q    Type
REMARK                         _______ _______ _______ _____ _____    ______ ____
ROOT
ATOM      1  C   UNL     1       3.516   2.485   4.998  0.00  0.00    +0.000 A 
ATOM      2  C   UNL     1       2.546   3.285   5.624  0.00  0.00    +0.000 A 
ATOM      3  C   UNL     1       2.731   3.764   6.922  0.00  0.00    +0.000 A 
ATOM      4  C   UNL     1       3.891   3.446   7.625  0.00  0.00    +0.000 A 
ATOM      5  C   UNL     1       4.888   2.645   7.055  0.00  0.00    +0.000 A 
ATOM      6  C   UNL     1       4.677   2.187   5.738  0.00  0.00    +0.000 A 
ENDROOT
BRANCH   1  10
ATOM      7  C   UNL     1       2.897   0.651   1.220  0.00  0.00    +0.000 A 
ATOM      8  C   UNL     1       2.352   1.916   1.439  0.00  0.00    +0.000 A 
ATOM      9  C   UNL     1       2.569   2.562   2.657  0.00  0.00    +0.000 A 
ATOM     10  C   UNL     1       3.323   1.928   3.643  0.00  0.00    +0.000 A 
ATOM     11  N   UNL     1       3.899   0.718   3.418  0.00  0.00    +0.000 NA
ATOM     12  C   UNL     1       3.675   0.110   2.231  0.00  0.00    +0.000 A 
BRANCH   7  14
ATOM     13  F   UNL     1       1.826   0.487  -0.910  0.00  0.00    +0.000 F 
ATOM     14  C   UNL     1       2.656  -0.137  -0.028  0.00  0.00    +0.000 C 
ATOM     15  F   UNL     1       2.088  -1.348   0.221  0.00  0.00    +0.000 F 
ATOM     16  F   UNL     1       3.802  -0.396  -0.715  0.00  0.00    +0.000 F 
ENDBRANCH   7  14
ENDBRANCH   1  10
BRANCH   5  17
ATOM     17  C   UNL     1       6.174   2.308   7.802  0.00  0.00    +0.000 C 
ATOM     18  C   UNL     1       6.504   0.827   7.947  0.00  0.00    +0.000 C 
ATOM     19  C   UNL     1       6.112   1.618   9.151  0.00  0.00    +0.000 C 
BRANCH  17  20
ATOM     20  N   UNL     1       7.288   3.247   7.498  0.00  0.00    +0.000 N 
ATOM     21  H   UNL     1       7.371   3.418   6.496  0.00  0.00    +0.000 HD
BRANCH  20  22
ATOM     22  C   UNL     1       7.375   4.459   8.223  0.00  0.00    +0.000 A 
ATOM     23  N   UNL     1       6.651   4.574   9.364  0.00  0.00    +0.000 NA
ATOM     24  C   UNL     1       6.802   5.666  10.144  0.00  0.00    +0.000 A 
ATOM     25  C   UNL     1       7.682   6.685   9.858  0.00  0.00    +0.000 A 
ATOM     26  C   UNL     1       8.422   6.579   8.692  0.00  0.00    +0.000 A 
ATOM     27  C   UNL     1       8.269   5.462   7.846  0.00  0.00    +0.000 A 
BRANCH  27  28
ATOM     28  C   UNL     1       9.055   5.421   6.573  0.00  0.00    +0.000 C 
ATOM     29  F   UNL     1       8.686   4.442   5.700  0.00  0.00    +0.000 F 
ATOM     30  F   UNL     1       8.933   6.585   5.867  0.00  0.00    +0.000 F 
ATOM     31  F   UNL     1      10.390   5.262   6.779  0.00  0.00    +0.000 F 
ENDBRANCH  27  28
ENDBRANCH  20  22
ENDBRANCH  17  20
ENDBRANCH   5  17
TORSDOF 6
