REMARK  Name = 
REMARK  5 active torsions:
REMARK  status: ('A' for Active; 'I' for Inactive)
REMARK    1  A    between atoms: N_1  and  C_2
REMARK    2  A    between atoms: C_2  and  C_3
REMARK    3  A    between atoms: C_7  and  C_8
REMARK    4  A    between atoms: C_9  and  C_10
REMARK    5  A    between atoms: C_13  and  C_14
REMARK                            x       y       z     vdW  Elec       q    Type
REMARK                         _______ _______ _______ _____ _____    ______ ____
ROOT
ATOM      1  C   UNL     1       3.953   2.530   4.083  0.00  0.00    +0.000 C 
ATOM      2  C   UNL     1       3.912   3.623   4.865  0.00  0.00    +0.000 C 
ENDROOT
BRANCH   1   7
ATOM      3  C   UNL     1       2.512   1.367   0.788  0.00  0.00    +0.000 A 
ATOM      4  C   UNL     1       2.713   2.498  -0.014  0.00  0.00    +0.000 A 
ATOM      5  C   UNL     1       3.353   3.625   0.499  0.00  0.00    +0.000 A 
ATOM      6  C   UNL     1       3.781   3.642   1.828  0.00  0.00    +0.000 A 
ATOM      7  C   UNL     1       3.561   2.538   2.662  0.00  0.00    +0.000 A 
ATOM      8  C   UNL     1       2.951   1.396   2.122  0.00  0.00    +0.000 A 
BRANCH   3   9
ATOM      9  C   UNL     1       1.783   0.163   0.245  0.00  0.00    +0.000 C 
BRANCH   9  10
ATOM     10  N   UNL     1       2.413  -0.357  -0.964  0.00  0.00    +0.000 NA
ATOM     11  H   UNL     1       1.954  -1.226  -1.229  0.00  0.00    +0.000 HD
ATOM     12  H   UNL     1       3.381  -0.597  -0.750  0.00  0.00    +0.000 HD
ENDBRANCH   9  10
ENDBRANCH   3   9
ENDBRANCH   1   7
BRANCH   2  13
ATOM     13  C   UNL     1       4.210   3.653   6.305  0.00  0.00    +0.000 A 
ATOM     14  C   UNL     1       5.076   2.747   6.928  0.00  0.00    +0.000 A 
ATOM     15  C   UNL     1       5.326   2.831   8.303  0.00  0.00    +0.000 A 
ATOM     16  C   UNL     1       4.734   3.837   9.071  0.00  0.00    +0.000 A 
ATOM     17  C   UNL     1       3.873   4.753   8.458  0.00  0.00    +0.000 A 
ATOM     18  C   UNL     1       3.621   4.661   7.085  0.00  0.00    +0.000 A 
BRANCH  16  19
ATOM     19  C   UNL     1       5.024   3.879  10.529  0.00  0.00    +0.000 C 
ATOM     20  N   UNL     1       4.898   5.082  11.165  0.00  0.00    +0.000 N 
ATOM     21  O   UNL     1       5.399   2.884  11.137  0.00  0.00    +0.000 OA
ATOM     22  H   UNL     1       4.820   5.958  10.670  0.00  0.00    +0.000 HD
ATOM     23  H   UNL     1       5.204   5.111  12.129  0.00  0.00    +0.000 HD
ENDBRANCH  16  19
ENDBRANCH   2  13
TORSDOF 5
