REMARK  Name = 
REMARK  8 active torsions:
REMARK  status: ('A' for Active; 'I' for Inactive)
REMARK    1  A    between atoms: C_1  and  C_2
REMARK    2  A    between atoms: C_2  and  C_3
REMARK    3  A    between atoms: C_7  and  C_8
REMARK    4  A    between atoms: C_8  and  C_9
REMARK    5  A    between atoms: C_9  and  N_10
REMARK    6  A    between atoms: N_10  and  C_11
REMARK    7  A    between atoms: C_14  and  C_15
REMARK    8  A    between atoms: C_23  and  O_24
REMARK                            x       y       z     vdW  Elec       q    Type
REMARK                         _______ _______ _______ _____ _____    ______ ____
ROOT
ATOM      1  C   UNL     1       2.840   0.421   1.472  0.00  0.00    +0.000 A 
ATOM      2  C   UNL     1       2.620   1.701   2.005  0.00  0.00    +0.000 A 
ATOM      3  C   UNL     1       2.947   1.998   3.333  0.00  0.00    +0.000 A 
ATOM      4  C   UNL     1       3.495   1.020   4.167  0.00  0.00    +0.000 A 
ATOM      5  C   UNL     1       3.738  -0.264   3.674  0.00  0.00    +0.000 A 
ATOM      6  C   UNL     1       3.423  -0.527   2.327  0.00  0.00    +0.000 A 
ENDROOT
BRANCH   1   8
ATOM      7  C   UNL     1       0.833   0.149   0.036  0.00  0.00    +0.000 C 
ATOM      8  C   UNL     1       2.378   0.045   0.041  0.00  0.00    +0.000 C 
ATOM      9  C   UNL     1       2.999   1.019  -0.994  0.00  0.00    +0.000 C 
ATOM     10  C   UNL     1       2.700   0.654  -2.454  0.00  0.00    +0.000 C 
ATOM     11  C   UNL     1       3.059  -0.788  -2.803  0.00  0.00    +0.000 C 
ATOM     12  C   UNL     1       2.464  -1.782  -1.812  0.00  0.00    +0.000 C 
ATOM     13  C   UNL     1       2.778  -1.410  -0.363  0.00  0.00    +0.000 C 
BRANCH  11  14
ATOM     14  O   UNL     1       4.474  -0.946  -2.858  0.00  0.00    +0.000 OA
ATOM     15  H   UNL     1       4.856  -0.685  -2.005  0.00  0.00    +0.000 HD
ENDBRANCH  11  14
ENDBRANCH   1   8
BRANCH   5  16
ATOM     16  C   UNL     1       4.287  -1.341   4.601  0.00  0.00    +0.000 C 
BRANCH  16  17
ATOM     17  C   UNL     1       4.552  -2.677   3.891  0.00  0.00    +0.000 C 
BRANCH  17  18
ATOM     18  N   UNL     1       5.021  -3.742   4.778  0.00  0.00    +0.000 N 
ATOM     19  H   UNL     1       4.422  -3.851   5.595  0.00  0.00    +0.000 HD
BRANCH  18  20
ATOM     20  C   UNL     1       5.243  -4.984   4.140  0.00  0.00    +0.000 A 
ATOM     21  C   UNL     1       5.686  -5.099   2.815  0.00  0.00    +0.000 A 
ATOM     22  C   UNL     1       5.963  -6.346   2.256  0.00  0.00    +0.000 A 
ATOM     23  C   UNL     1       5.821  -7.465   3.056  0.00  0.00    +0.000 A 
ATOM     24  N   UNL     1       5.428  -7.419   4.359  0.00  0.00    +0.000 NA
ATOM     25  C   UNL     1       5.170  -6.183   4.859  0.00  0.00    +0.000 A 
BRANCH  23  26
ATOM     26  C   UNL     1       6.142  -8.814   2.491  0.00  0.00    +0.000 C 
ATOM     27  N   UNL     1       6.003  -9.860   3.360  0.00  0.00    +0.000 N 
ATOM     28  O   UNL     1       6.511  -8.980   1.336  0.00  0.00    +0.000 OA
ATOM     29  H   UNL     1       5.721  -9.677   4.317  0.00  0.00    +0.000 HD
ATOM     30  H   UNL     1       6.237 -10.793   3.058  0.00  0.00    +0.000 HD
ENDBRANCH  23  26
ENDBRANCH  18  20
ENDBRANCH  17  18
ENDBRANCH  16  17
ENDBRANCH   5  16
TORSDOF 7
