REMARK  Name = 
REMARK  5 active torsions:
REMARK  status: ('A' for Active; 'I' for Inactive)
REMARK    1  A    between atoms: C_1  and  C_2
REMARK    2  A    between atoms: C_4  and  C_5
REMARK    3  A    between atoms: N_10  and  C_11
REMARK    4  A    between atoms: C_11  and  C_12
REMARK    5  A    between atoms: C_16  and  N_17
REMARK                            x       y       z     vdW  Elec       q    Type
REMARK                         _______ _______ _______ _____ _____    ______ ____
ROOT
ATOM      1  C   UNL     1       2.235  -1.363  -4.650  0.00  0.00    +0.000 C 
ATOM      2  C   UNL     1       2.508  -1.023  -3.217  0.00  0.00    +0.000 A 
ATOM      3  C   UNL     1       2.548  -1.998  -2.253  0.00  0.00    +0.000 A 
ATOM      4  C   UNL     1       2.818  -1.549  -0.980  0.00  0.00    +0.000 A 
ATOM      5  N   UNL     1       3.050  -0.251  -0.651  0.00  0.00    +0.000 NA
ATOM      6  C   UNL     1       3.015   0.621  -1.664  0.00  0.00    +0.000 A 
ATOM      7  N   UNL     1       3.334   1.954  -1.478  0.00  0.00    +0.000 N 
ATOM      8  N   UNL     1       2.729   0.278  -2.929  0.00  0.00    +0.000 NA
ATOM      9  H   UNL     1       3.002   2.464  -2.288  0.00  0.00    +0.000 HD
ENDROOT
BRANCH   4  10
ATOM     10  C   UNL     1       2.885  -2.554   0.129  0.00  0.00    +0.000 C 
ATOM     11  N   UNL     1       3.162  -2.046   1.371  0.00  0.00    +0.000 N 
ATOM     12  O   UNL     1       2.707  -3.749  -0.051  0.00  0.00    +0.000 OA
ATOM     13  H   UNL     1       3.338  -1.057   1.484  0.00  0.00    +0.000 HD
ATOM     14  H   UNL     1       3.251  -2.677   2.153  0.00  0.00    +0.000 HD
ENDBRANCH   4  10
BRANCH   7  15
ATOM     15  C   UNL     1       3.013   2.533  -0.196  0.00  0.00    +0.000 C 
BRANCH  15  16
ATOM     16  C   UNL     1       3.404   3.998  -0.167  0.00  0.00    +0.000 A 
ATOM     17  C   UNL     1       2.499   5.004  -0.517  0.00  0.00    +0.000 A 
ATOM     18  C   UNL     1       2.870   6.345  -0.404  0.00  0.00    +0.000 A 
ATOM     19  C   UNL     1       4.141   6.683   0.064  0.00  0.00    +0.000 A 
ATOM     20  C   UNL     1       5.087   5.707   0.404  0.00  0.00    +0.000 A 
ATOM     21  C   UNL     1       4.699   4.366   0.248  0.00  0.00    +0.000 A 
BRANCH  20  22
ATOM     22  N   UNL     1       6.344   6.068   0.853  0.00  0.00    +0.000 N 
ATOM     23  C   UNL     1       7.532   5.228   0.644  0.00  0.00    +0.000 C 
ATOM     24  C   UNL     1       8.047   4.661   1.973  0.00  0.00    +0.000 C 
ATOM     25  O   UNL     1       8.282   5.704   2.934  0.00  0.00    +0.000 OA
ATOM     26  C   UNL     1       7.059   6.411   3.200  0.00  0.00    +0.000 C 
ATOM     27  C   UNL     1       6.483   7.065   1.931  0.00  0.00    +0.000 C 
ENDBRANCH  20  22
ENDBRANCH  15  16
ENDBRANCH   7  15
TORSDOF 4
