REMARK  Name = 
REMARK  6 active torsions:
REMARK  status: ('A' for Active; 'I' for Inactive)
REMARK    1  A    between atoms: C_2  and  C_4
REMARK    2  A    between atoms: N_8  and  C_9
REMARK    3  A    between atoms: C_9  and  C_10
REMARK    4  A    between atoms: C_10  and  C_13
REMARK    5  A    between atoms: C_17  and  O_18
REMARK    6  A    between atoms: O_18  and  C_19
REMARK                            x       y       z     vdW  Elec       q    Type
REMARK                         _______ _______ _______ _____ _____    ______ ____
ROOT
ATOM      1  C   UNL     1       4.660   5.126  -3.440  0.00  0.00    +0.000 C 
ENDROOT
BRANCH   1   6
ATOM      2  C   UNL     1       3.031   1.253  -0.770  0.00  0.00    +0.000 A 
ATOM      3  C   UNL     1       4.013   0.705  -1.591  0.00  0.00    +0.000 A 
ATOM      4  C   UNL     1       4.696   1.538  -2.482  0.00  0.00    +0.000 A 
ATOM      5  C   UNL     1       4.379   2.895  -2.545  0.00  0.00    +0.000 A 
ATOM      6  N   UNL     1       5.131   3.721  -3.392  0.00  0.00    +0.000 N 
ATOM      7  N   UNL     1       3.421   3.428  -1.760  0.00  0.00    +0.000 NA
ATOM      8  C   UNL     1       2.761   2.605  -0.906  0.00  0.00    +0.000 A 
ATOM      9  H   UNL     1       5.202   3.315  -4.322  0.00  0.00    +0.000 HD
BRANCH   2  11
ATOM     10  N   UNL     1       2.865  -0.646   0.737  0.00  0.00    +0.000 N 
ATOM     11  C   UNL     1       2.267   0.472   0.226  0.00  0.00    +0.000 C 
ATOM     12  O   UNL     1       1.164   0.835   0.613  0.00  0.00    +0.000 OA
ATOM     13  H   UNL     1       2.382  -1.095   1.506  0.00  0.00    +0.000 HD
ATOM     14  H   UNL     1       3.855  -0.825   0.645  0.00  0.00    +0.000 HD
ENDBRANCH   2  11
ENDBRANCH   1   6
BRANCH   1  15
ATOM     15  C   UNL     1       5.411   5.977  -4.494  0.00  0.00    +0.000 C 
ATOM     16  F   UNL     1       6.754   5.915  -4.239  0.00  0.00    +0.000 F 
ATOM     17  F   UNL     1       5.255   5.367  -5.712  0.00  0.00    +0.000 F 
BRANCH  15  18
ATOM     18  C   UNL     1       4.908   7.410  -4.503  0.00  0.00    +0.000 A 
ATOM     19  C   UNL     1       5.468   8.358  -3.633  0.00  0.00    +0.000 A 
ATOM     20  C   UNL     1       5.004   9.674  -3.627  0.00  0.00    +0.000 A 
ATOM     21  C   UNL     1       3.976  10.060  -4.488  0.00  0.00    +0.000 A 
ATOM     22  C   UNL     1       3.408   9.131  -5.357  0.00  0.00    +0.000 A 
ATOM     23  C   UNL     1       3.877   7.813  -5.369  0.00  0.00    +0.000 A 
BRANCH  22  24
ATOM     24  O   UNL     1       2.428   9.439  -6.269  0.00  0.00    +0.000 OA
BRANCH  24  25
ATOM     25  C   UNL     1       1.451  10.435  -5.901  0.00  0.00    +0.000 C 
ATOM     26  C   UNL     1       0.365  10.713  -6.953  0.00  0.00    +0.000 C 
ATOM     27  C   UNL     1       0.639  12.177  -6.627  0.00  0.00    +0.000 C 
ATOM     28  O   UNL     1       1.900  11.822  -6.007  0.00  0.00    +0.000 OA
ENDBRANCH  24  25
ENDBRANCH  22  24
ENDBRANCH  15  18
ENDBRANCH   1  15
TORSDOF 6
