REMARK  Name = 
REMARK  7 active torsions:
REMARK  status: ('A' for Active; 'I' for Inactive)
REMARK    1  A    between atoms: C_1  and  C_2
REMARK    2  A    between atoms: C_2  and  C_3
REMARK    3  A    between atoms: C_7  and  C_8
REMARK    4  A    between atoms: C_8  and  C_9
REMARK    5  A    between atoms: C_9  and  N_10
REMARK    6  A    between atoms: N_10  and  C_11
REMARK    7  A    between atoms: C_14  and  C_15
REMARK                            x       y       z     vdW  Elec       q    Type
REMARK                         _______ _______ _______ _____ _____    ______ ____
ROOT
ATOM      1  C   UNL     1       3.147   3.687  -4.223  0.00  0.00    +0.000 C 
ENDROOT
BRANCH   1   2
ATOM      2  N   UNL     1       3.617   4.974  -4.754  0.00  0.00    +0.000 N 
ATOM      3  H   UNL     1       4.264   4.860  -5.532  0.00  0.00    +0.000 HD
BRANCH   2   4
ATOM      4  C   UNL     1       2.626   5.933  -5.040  0.00  0.00    +0.000 A 
ATOM      5  C   UNL     1       1.433   6.037  -4.317  0.00  0.00    +0.000 A 
ATOM      6  C   UNL     1       0.504   7.034  -4.605  0.00  0.00    +0.000 A 
ATOM      7  C   UNL     1       0.807   7.944  -5.603  0.00  0.00    +0.000 A 
ATOM      8  N   UNL     1       1.971   7.931  -6.309  0.00  0.00    +0.000 NA
ATOM      9  C   UNL     1       2.846   6.941  -5.989  0.00  0.00    +0.000 A 
BRANCH   7  10
ATOM     10  C   UNL     1      -0.184   9.017  -5.934  0.00  0.00    +0.000 C 
ATOM     11  N   UNL     1       0.191   9.875  -6.926  0.00  0.00    +0.000 N 
ATOM     12  O   UNL     1      -1.264   9.123  -5.367  0.00  0.00    +0.000 OA
ATOM     13  H   UNL     1       1.095   9.769  -7.371  0.00  0.00    +0.000 HD
ATOM     14  H   UNL     1      -0.424  10.629  -7.197  0.00  0.00    +0.000 HD
ENDBRANCH   7  10
ENDBRANCH   2   4
ENDBRANCH   1   2
BRANCH   1  15
ATOM     15  C   UNL     1       4.304   2.717  -3.957  0.00  0.00    +0.000 C 
BRANCH  15  20
ATOM     16  C   UNL     1       2.868   0.155  -1.490  0.00  0.00    +0.000 A 
ATOM     17  C   UNL     1       2.557  -0.887  -2.387  0.00  0.00    +0.000 A 
ATOM     18  C   UNL     1       2.837  -0.787  -3.751  0.00  0.00    +0.000 A 
ATOM     19  C   UNL     1       3.428   0.365  -4.260  0.00  0.00    +0.000 A 
ATOM     20  C   UNL     1       3.766   1.415  -3.400  0.00  0.00    +0.000 A 
ATOM     21  C   UNL     1       3.500   1.292  -2.022  0.00  0.00    +0.000 A 
BRANCH  16  23
ATOM     22  C   UNL     1       0.890  -0.024   0.026  0.00  0.00    +0.000 C 
ATOM     23  C   UNL     1       2.428   0.045  -0.019  0.00  0.00    +0.000 C 
ATOM     24  C   UNL     1       3.078  -1.160   0.671  0.00  0.00    +0.000 C 
ATOM     25  C   UNL     1       4.315  -0.598   1.356  0.00  0.00    +0.000 C 
ATOM     26  O   UNL     1       4.233   0.831   1.315  0.00  0.00    +0.000 OA
ATOM     27  C   UNL     1       2.899   1.167   0.921  0.00  0.00    +0.000 C 
ENDBRANCH  16  23
ENDBRANCH  15  20
ENDBRANCH   1  15
TORSDOF 6
