REMARK  Name = 
REMARK  4 active torsions:
REMARK  status: ('A' for Active; 'I' for Inactive)
REMARK    1  A    between atoms: C_2  and  C_3
REMARK    2  A    between atoms: C_6  and  N_7
REMARK    3  A    between atoms: N_7  and  C_8
REMARK    4  A    between atoms: C_8  and  C_9
REMARK                            x       y       z     vdW  Elec       q    Type
REMARK                         _______ _______ _______ _____ _____    ______ ____
ROOT
ATOM      1  N   UNL     1       7.652  -0.022  -0.255  0.00  0.00    +0.000 N 
ATOM      2  H   UNL     1       7.279   0.533  -1.016  0.00  0.00    +0.000 HD
ENDROOT
BRANCH   1   6
ATOM      3  C   UNL     1       5.047  -0.279   2.925  0.00  0.00    +0.000 A 
ATOM      4  C   UNL     1       5.652  -1.413   2.416  0.00  0.00    +0.000 A 
ATOM      5  N   UNL     1       6.521  -1.372   1.376  0.00  0.00    +0.000 NA
ATOM      6  C   UNL     1       6.771  -0.167   0.826  0.00  0.00    +0.000 A 
ATOM      7  C   UNL     1       6.158   0.972   1.366  0.00  0.00    +0.000 A 
ATOM      8  N   UNL     1       5.290   0.950   2.413  0.00  0.00    +0.000 NA
BRANCH   3  10
ATOM      9  N   UNL     1       3.384  -0.493   4.906  0.00  0.00    +0.000 NA
ATOM     10  C   UNL     1       4.129  -0.369   4.017  0.00  0.00    +0.000 C 
ENDBRANCH   3  10
ENDBRANCH   1   6
BRANCH   1  11
ATOM     11  C   UNL     1       8.796  -0.895  -0.540  0.00  0.00    +0.000 C 
ATOM     12  C   UNL     1       8.608  -2.057  -1.505  0.00  0.00    +0.000 C 
ATOM     13  C   UNL     1       8.941  -2.337  -0.078  0.00  0.00    +0.000 C 
BRANCH  11  14
ATOM     14  C   UNL     1      10.109  -0.126  -0.615  0.00  0.00    +0.000 A 
ATOM     15  C   UNL     1      10.853   0.113   0.552  0.00  0.00    +0.000 A 
ATOM     16  C   UNL     1      12.163   0.583   0.486  0.00  0.00    +0.000 A 
ATOM     17  C   UNL     1      12.738   0.855  -0.752  0.00  0.00    +0.000 A 
ATOM     18  C   UNL     1      11.985   0.722  -1.916  0.00  0.00    +0.000 A 
ATOM     19  C   UNL     1      10.673   0.256  -1.844  0.00  0.00    +0.000 A 
ENDBRANCH  11  14
ENDBRANCH   1  11
TORSDOF 4
