REMARK  Name = 
REMARK  6 active torsions:
REMARK  status: ('A' for Active; 'I' for Inactive)
REMARK    1  A    between atoms: N_1  and  C_2
REMARK    2  A    between atoms: C_2  and  C_3
REMARK    3  A    between atoms: C_6  and  O_7
REMARK    4  A    between atoms: O_7  and  C_8
REMARK    5  A    between atoms: C_8  and  C_9
REMARK    6  A    between atoms: C_13  and  C_14
REMARK                            x       y       z     vdW  Elec       q    Type
REMARK                         _______ _______ _______ _____ _____    ______ ____
ROOT
ATOM      1  C   UNL     1       5.015  -2.769  -6.978  0.00  0.00    +0.000 A 
ATOM      2  C   UNL     1       3.921  -3.461  -7.509  0.00  0.00    +0.000 A 
ATOM      3  C   UNL     1       4.088  -4.326  -8.591  0.00  0.00    +0.000 A 
ATOM      4  F   UNL     1       2.994  -4.959  -9.044  0.00  0.00    +0.000 F 
ATOM      5  C   UNL     1       5.338  -4.530  -9.180  0.00  0.00    +0.000 A 
ATOM      6  C   UNL     1       6.424  -3.825  -8.655  0.00  0.00    +0.000 A 
ATOM      7  F   UNL     1       7.656  -3.949  -9.170  0.00  0.00    +0.000 F 
ATOM      8  C   UNL     1       6.271  -2.958  -7.567  0.00  0.00    +0.000 A 
ENDROOT
BRANCH   5   9
ATOM      9  C   UNL     1       5.527  -5.458 -10.323  0.00  0.00    +0.000 C 
ATOM     10  N   UNL     1       4.429  -6.133 -10.785  0.00  0.00    +0.000 N 
ATOM     11  O   UNL     1       6.613  -5.639 -10.857  0.00  0.00    +0.000 OA
ATOM     12  H   UNL     1       3.503  -6.038 -10.387  0.00  0.00    +0.000 HD
ATOM     13  H   UNL     1       4.556  -6.773 -11.557  0.00  0.00    +0.000 HD
ENDBRANCH   5   9
BRANCH   1  14
ATOM     14  C   UNL     1       4.830  -1.841  -5.801  0.00  0.00    +0.000 C 
BRANCH  14  15
ATOM     15  O   UNL     1       4.329  -2.605  -4.706  0.00  0.00    +0.000 OA
BRANCH  15  19
ATOM     16  C   UNL     1       3.497  -0.802  -1.022  0.00  0.00    +0.000 A 
ATOM     17  C   UNL     1       3.987  -0.010  -2.070  0.00  0.00    +0.000 A 
ATOM     18  C   UNL     1       4.279  -0.569  -3.320  0.00  0.00    +0.000 A 
ATOM     19  C   UNL     1       4.089  -1.933  -3.538  0.00  0.00    +0.000 A 
ATOM     20  C   UNL     1       3.609  -2.728  -2.495  0.00  0.00    +0.000 A 
ATOM     21  C   UNL     1       3.316  -2.171  -1.247  0.00  0.00    +0.000 A 
BRANCH  16  22
ATOM     22  C   UNL     1       3.186  -0.191   0.321  0.00  0.00    +0.000 C 
BRANCH  22  23
ATOM     23  N   UNL     1       2.156   0.836   0.216  0.00  0.00    +0.000 NA
ATOM     24  H   UNL     1       1.919   1.167   1.149  0.00  0.00    +0.000 HD
ATOM     25  H   UNL     1       1.309   0.413  -0.162  0.00  0.00    +0.000 HD
ENDBRANCH  22  23
ENDBRANCH  16  22
ENDBRANCH  15  19
ENDBRANCH  14  15
ENDBRANCH   1  14
TORSDOF 6
