REMARK  Name = 
REMARK  5 active torsions:
REMARK  status: ('A' for Active; 'I' for Inactive)
REMARK    1  A    between atoms: C_2  and  C_4
REMARK    2  A    between atoms: N_8  and  C_9
REMARK    3  A    between atoms: C_9  and  C_10
REMARK    4  A    between atoms: C_14  and  N_15
REMARK    5  A    between atoms: C_18  and  O_19
REMARK                            x       y       z     vdW  Elec       q    Type
REMARK                         _______ _______ _______ _____ _____    ______ ____
ROOT
ATOM      1  C   UNL     1       5.213   5.985   0.846  0.00  0.00    +0.000 C 
ENDROOT
BRANCH   1   6
ATOM      2  C   UNL     1       1.847   2.442  -0.678  0.00  0.00    +0.000 A 
ATOM      3  C   UNL     1       2.302   2.794   0.586  0.00  0.00    +0.000 A 
ATOM      4  C   UNL     1       3.245   3.814   0.707  0.00  0.00    +0.000 A 
ATOM      5  C   UNL     1       3.719   4.469  -0.428  0.00  0.00    +0.000 A 
ATOM      6  N   UNL     1       4.629   5.492  -0.375  0.00  0.00    +0.000 N 
ATOM      7  N   UNL     1       3.293   4.122  -1.658  0.00  0.00    +0.000 NA
ATOM      8  C   UNL     1       2.381   3.116  -1.764  0.00  0.00    +0.000 A 
ATOM      9  H   UNL     1       4.899   5.872  -1.274  0.00  0.00    +0.000 HD
BRANCH   2  11
ATOM     10  N   UNL     1      -0.040   1.142   0.122  0.00  0.00    +0.000 N 
ATOM     11  C   UNL     1       0.846   1.379  -0.896  0.00  0.00    +0.000 C 
ATOM     12  O   UNL     1       0.787   0.756  -1.947  0.00  0.00    +0.000 OA
ATOM     13  H   UNL     1      -0.779   0.477  -0.072  0.00  0.00    +0.000 HD
ATOM     14  H   UNL     1      -0.179   1.783   0.887  0.00  0.00    +0.000 HD
ENDBRANCH   2  11
ENDBRANCH   1   6
BRANCH   1  15
ATOM     15  C   UNL     1       6.155   7.123   0.594  0.00  0.00    +0.000 A 
ATOM     16  C   UNL     1       7.504   6.904   0.365  0.00  0.00    +0.000 A 
ATOM     17  N   UNL     1       8.403   7.892   0.200  0.00  0.00    +0.000 NA
ATOM     18  C   UNL     1       7.924   9.163   0.255  0.00  0.00    +0.000 A 
ATOM     19  C   UNL     1       6.590   9.532   0.463  0.00  0.00    +0.000 A 
ATOM     20  C   UNL     1       5.711   8.454   0.626  0.00  0.00    +0.000 A 
BRANCH  19  21
ATOM     21  N   UNL     1       6.158  10.843   0.536  0.00  0.00    +0.000 N 
ATOM     22  C   UNL     1       4.816  11.244   0.110  0.00  0.00    +0.000 C 
ATOM     23  C   UNL     1       4.110  11.955   1.260  0.00  0.00    +0.000 C 
ATOM     24  C   UNL     1       4.955  13.099   1.821  0.00  0.00    +0.000 C 
ATOM     25  C   UNL     1       6.383  12.662   2.141  0.00  0.00    +0.000 C 
ATOM     26  C   UNL     1       7.040  11.926   0.972  0.00  0.00    +0.000 C 
BRANCH  24  27
ATOM     27  O   UNL     1       4.961  14.207   0.921  0.00  0.00    +0.000 OA
ATOM     28  H   UNL     1       5.383  13.939   0.088  0.00  0.00    +0.000 HD
ENDBRANCH  24  27
ENDBRANCH  19  21
ENDBRANCH   1  15
TORSDOF 5
