REMARK  Name = 
REMARK  7 active torsions:
REMARK  status: ('A' for Active; 'I' for Inactive)
REMARK    1  A    between atoms: C_2  and  C_4
REMARK    2  A    between atoms: C_7  and  N_8
REMARK    3  A    between atoms: N_8  and  C_9
REMARK    4  A    between atoms: C_9  and  C_10
REMARK    5  A    between atoms: C_10  and  C_13
REMARK    6  A    between atoms: C_17  and  S_18
REMARK    7  A    between atoms: S_18  and  C_19
REMARK                            x       y       z     vdW  Elec       q    Type
REMARK                         _______ _______ _______ _____ _____    ______ ____
ROOT
ATOM      1  C   UNL     1       5.048  -0.448  -5.995  0.00  0.00    +0.000 C 
ENDROOT
BRANCH   1   2
ATOM      2  C   UNL     1       5.987  -0.936  -7.132  0.00  0.00    +0.000 C 
ATOM      3  F   UNL     1       7.267  -0.547  -6.857  0.00  0.00    +0.000 F 
ATOM      4  F   UNL     1       6.013  -2.305  -7.101  0.00  0.00    +0.000 F 
BRANCH   2   5
ATOM      5  C   UNL     1       5.507  -0.402  -8.469  0.00  0.00    +0.000 A 
ATOM      6  C   UNL     1       4.586  -1.130  -9.235  0.00  0.00    +0.000 A 
ATOM      7  C   UNL     1       4.076  -0.595 -10.418  0.00  0.00    +0.000 A 
ATOM      8  C   UNL     1       4.479   0.672 -10.846  0.00  0.00    +0.000 A 
ATOM      9  C   UNL     1       5.406   1.408 -10.103  0.00  0.00    +0.000 A 
ATOM     10  C   UNL     1       5.919   0.866  -8.920  0.00  0.00    +0.000 A 
BRANCH   9  11
ATOM     11  S   UNL     1       5.783   3.088 -10.556  0.00  0.00    +0.000 S 
BRANCH  11  12
ATOM     12  C   UNL     1       7.324   2.818 -11.504  0.00  0.00    +0.000 C 
ATOM     13  C   UNL     1       7.925   4.172 -11.964  0.00  0.00    +0.000 C 
ATOM     14  C   UNL     1       8.137   3.550 -13.355  0.00  0.00    +0.000 C 
ATOM     15  C   UNL     1       7.068   2.500 -12.994  0.00  0.00    +0.000 C 
ENDBRANCH  11  12
ENDBRANCH   9  11
ENDBRANCH   2   5
ENDBRANCH   1   2
BRANCH   1  16
ATOM     16  N   UNL     1       5.449  -0.918  -4.660  0.00  0.00    +0.000 N 
ATOM     17  H   UNL     1       5.842  -1.859  -4.640  0.00  0.00    +0.000 HD
BRANCH  16  21
ATOM     18  C   UNL     1       3.439   0.204  -1.122  0.00  0.00    +0.000 A 
ATOM     19  C   UNL     1       2.967   0.657  -2.352  0.00  0.00    +0.000 A 
ATOM     20  C   UNL     1       3.612   0.276  -3.537  0.00  0.00    +0.000 A 
ATOM     21  C   UNL     1       4.715  -0.586  -3.524  0.00  0.00    +0.000 A 
ATOM     22  C   UNL     1       5.185  -1.016  -2.276  0.00  0.00    +0.000 A 
ATOM     23  C   UNL     1       4.562  -0.628  -1.086  0.00  0.00    +0.000 A 
BRANCH  18  25
ATOM     24  N   UNL     1       1.481   0.935   0.128  0.00  0.00    +0.000 N 
ATOM     25  C   UNL     1       2.809   0.610   0.162  0.00  0.00    +0.000 C 
ATOM     26  O   UNL     1       3.435   0.622   1.213  0.00  0.00    +0.000 OA
ATOM     27  H   UNL     1       1.044   1.102   1.025  0.00  0.00    +0.000 HD
ATOM     28  H   UNL     1       0.885   0.687  -0.647  0.00  0.00    +0.000 HD
ENDBRANCH  18  25
ENDBRANCH  16  21
ENDBRANCH   1  16
TORSDOF 7
