REMARK  Name = 
REMARK  10 active torsions:
REMARK  status: ('A' for Active; 'I' for Inactive)
REMARK    1  A    between atoms: C_1  and  O_2
REMARK    2  A    between atoms: O_2  and  C_3
REMARK    3  A    between atoms: C_10  and  C_11
REMARK    4  A    between atoms: N_13  and  C_14
REMARK    5  A    between atoms: C_14  and  C_15
REMARK    6  A    between atoms: C_18  and  C_19
REMARK    7  A    between atoms: C_19  and  N_20
REMARK    8  A    between atoms: N_20  and  C_21
REMARK    9  A    between atoms: C_21  and  C_22
REMARK   10  A    between atoms: C_21  and  C_23
REMARK                            x       y       z     vdW  Elec       q    Type
REMARK                         _______ _______ _______ _____ _____    ______ ____
ROOT
ATOM      1  C   UNL     1       1.795   3.440   0.494  0.00  0.00    +0.000 A 
ATOM      2  C   UNL     1       0.952   2.377   0.149  0.00  0.00    +0.000 A 
ATOM      3  C   UNL     1      -0.174   2.590  -0.652  0.00  0.00    +0.000 A 
ATOM      4  C   UNL     1      -0.485   3.872  -1.130  0.00  0.00    +0.000 A 
ATOM      5  C   UNL     1       0.350   4.939  -0.771  0.00  0.00    +0.000 A 
ATOM      6  C   UNL     1       1.480   4.725   0.029  0.00  0.00    +0.000 A 
ENDROOT
BRANCH   1   7
ATOM      7  C   UNL     1       3.029   3.192   1.320  0.00  0.00    +0.000 C 
BRANCH   7  10
ATOM      8  C   UNL     1       5.358   2.477   1.079  0.00  0.00    +0.000 C 
ATOM      9  O   UNL     1       5.501   2.522   2.300  0.00  0.00    +0.000 OA
ATOM     10  N   UNL     1       4.156   2.796   0.503  0.00  0.00    +0.000 N 
ATOM     11  H   UNL     1       4.026   2.723  -0.498  0.00  0.00    +0.000 HD
BRANCH   8  19
ATOM     12  C   UNL     1       5.716   2.099  -2.339  0.00  0.00    +0.000 A 
ATOM     13  N   UNL     1       6.139   1.887  -3.603  0.00  0.00    +0.000 NA
ATOM     14  C   UNL     1       7.413   1.532  -3.792  0.00  0.00    +0.000 A 
ATOM     15  N   UNL     1       8.340   1.359  -2.857  0.00  0.00    +0.000 NA
ATOM     16  C   UNL     1       7.878   1.572  -1.614  0.00  0.00    +0.000 A 
ATOM     17  S   UNL     1       8.929   1.387  -0.295  0.00  0.00    +0.000 S 
ATOM     18  C   UNL     1       7.699   1.798   0.801  0.00  0.00    +0.000 A 
ATOM     19  C   UNL     1       6.477   2.088   0.202  0.00  0.00    +0.000 A 
ATOM     20  C   UNL     1       6.586   1.943  -1.247  0.00  0.00    +0.000 A 
BRANCH  12  22
ATOM     21  C   UNL     1       3.797   3.012  -3.309  0.00  0.00    +0.000 C 
ATOM     22  O   UNL     1       4.393   2.441  -2.144  0.00  0.00    +0.000 OA
ENDBRANCH  12  22
ENDBRANCH   8  19
ENDBRANCH   7  10
ENDBRANCH   1   7
BRANCH   4  23
ATOM     23  C   UNL     1      -1.657   4.075  -2.068  0.00  0.00    +0.000 C 
BRANCH  23  24
ATOM     24  N   UNL     1      -2.911   3.609  -1.479  0.00  0.00    +0.000 NA
ATOM     25  H   UNL     1      -3.062   4.114  -0.604  0.00  0.00    +0.000 HD
BRANCH  24  26
ATOM     26  C   UNL     1      -4.089   3.821  -2.333  0.00  0.00    +0.000 C 
ATOM     27  C   UNL     1      -4.027   3.032  -3.652  0.00  0.00    +0.000 C 
BRANCH  26  28
ATOM     28  C   UNL     1      -5.354   3.432  -1.577  0.00  0.00    +0.000 A 
ATOM     29  C   UNL     1      -6.401   4.351  -1.410  0.00  0.00    +0.000 A 
ATOM     30  C   UNL     1      -7.569   3.984  -0.733  0.00  0.00    +0.000 A 
ATOM     31  C   UNL     1      -7.704   2.698  -0.214  0.00  0.00    +0.000 A 
ATOM     32  C   UNL     1      -6.675   1.774  -0.373  0.00  0.00    +0.000 A 
ATOM     33  C   UNL     1      -5.507   2.139  -1.045  0.00  0.00    +0.000 A 
ENDBRANCH  26  28
ENDBRANCH  24  26
ENDBRANCH  23  24
ENDBRANCH   4  23
TORSDOF 8
