REMARK  Name = 
REMARK  5 active torsions:
REMARK  status: ('A' for Active; 'I' for Inactive)
REMARK    1  A    between atoms: N_1  and  C_2
REMARK    2  A    between atoms: C_2  and  C_3
REMARK    3  A    between atoms: C_6  and  C_7
REMARK    4  A    between atoms: C_7  and  N_8
REMARK    5  A    between atoms: C_14  and  C_15
REMARK                            x       y       z     vdW  Elec       q    Type
REMARK                         _______ _______ _______ _____ _____    ______ ____
ROOT
ATOM      1  N   UNL     1       3.385   5.543  -3.382  0.00  0.00    +0.000 N 
ATOM      2  C   UNL     1       2.237   5.920  -4.027  0.00  0.00    +0.000 A 
ATOM      3  N   UNL     1       1.897   7.156  -3.740  0.00  0.00    +0.000 NA
ATOM      4  C   UNL     1       2.850   7.593  -2.865  0.00  0.00    +0.000 A 
ATOM      5  N   UNL     1       2.897   8.823  -2.312  0.00  0.00    +0.000 NA
ATOM      6  C   UNL     1       3.930   9.015  -1.455  0.00  0.00    +0.000 A 
ATOM      7  C   UNL     1       4.910   8.077  -1.125  0.00  0.00    +0.000 A 
ATOM      8  C   UNL     1       4.865   6.817  -1.733  0.00  0.00    +0.000 A 
ATOM      9  C   UNL     1       3.796   6.602  -2.608  0.00  0.00    +0.000 A 
ENDROOT
BRANCH   7  10
ATOM     10  C   UNL     1       5.941   8.465  -0.130  0.00  0.00    +0.000 C 
ATOM     11  N   UNL     1       6.900   7.551   0.214  0.00  0.00    +0.000 N 
ATOM     12  O   UNL     1       5.940   9.575   0.390  0.00  0.00    +0.000 OA
ATOM     13  H   UNL     1       6.977   6.613  -0.142  0.00  0.00    +0.000 HD
ATOM     14  H   UNL     1       7.571   7.846   0.913  0.00  0.00    +0.000 HD
ENDBRANCH   7  10
BRANCH   1  15
ATOM     15  C   UNL     1       4.096   4.297  -3.610  0.00  0.00    +0.000 C 
BRANCH  15  19
ATOM     16  C   UNL     1       2.983   1.139  -0.860  0.00  0.00    +0.000 A 
ATOM     17  C   UNL     1       2.298   1.308  -2.072  0.00  0.00    +0.000 A 
ATOM     18  C   UNL     1       2.650   2.332  -2.955  0.00  0.00    +0.000 A 
ATOM     19  C   UNL     1       3.691   3.213  -2.645  0.00  0.00    +0.000 A 
ATOM     20  C   UNL     1       4.363   3.055  -1.424  0.00  0.00    +0.000 A 
ATOM     21  C   UNL     1       4.013   2.029  -0.541  0.00  0.00    +0.000 A 
BRANCH  16  22
ATOM     22  C   UNL     1       2.605   0.016   0.073  0.00  0.00    +0.000 C 
BRANCH  22  23
ATOM     23  N   UNL     1       2.756  -1.282  -0.575  0.00  0.00    +0.000 NA
ATOM     24  H   UNL     1       2.556  -2.018   0.099  0.00  0.00    +0.000 HD
ATOM     25  H   UNL     1       3.729  -1.399  -0.854  0.00  0.00    +0.000 HD
ENDBRANCH  22  23
ENDBRANCH  16  22
ENDBRANCH  15  19
ENDBRANCH   1  15
TORSDOF 5
