REMARK  Name = 
REMARK  12 active torsions:
REMARK  status: ('A' for Active; 'I' for Inactive)
REMARK    1  A    between atoms: C_1  and  C_2
REMARK    2  A    between atoms: C_2  and  C_3
REMARK    3  A    between atoms: C_2  and  C_4
REMARK    4  A    between atoms: C_2  and  C_5
REMARK    5  A    between atoms: C_5  and  C_6
REMARK    6  A    between atoms: C_6  and  N_7
REMARK    7  A    between atoms: C_6  and  C_8
REMARK    8  A    between atoms: C_8  and  O_9
REMARK    9  A    between atoms: O_9  and  C_10
REMARK   10  A    between atoms: C_13  and  C_14
REMARK   11  A    between atoms: C_14  and  N_15
REMARK   12  A    between atoms: C_20  and  C_21
REMARK                            x       y       z     vdW  Elec       q    Type
REMARK                         _______ _______ _______ _____ _____    ______ ____
ROOT
ATOM      1  C   UNL     1       6.836  -1.092   4.021  0.00  0.00    +0.000 C 
ATOM      2  C   UNL     1       6.423  -2.558   4.200  0.00  0.00    +0.000 C 
ATOM      3  C   UNL     1       6.752  -3.035   5.615  0.00  0.00    +0.000 C 
ATOM      4  C   UNL     1       6.021  -2.208   6.688  0.00  0.00    +0.000 C 
ATOM      5  C   UNL     1       6.332  -0.712   6.497  0.00  0.00    +0.000 C 
ATOM      6  C   UNL     1       6.084  -0.237   5.061  0.00  0.00    +0.000 C 
ENDROOT
BRANCH   1   7
ATOM      7  O   UNL     1       8.256  -0.943   4.191  0.00  0.00    +0.000 OA
BRANCH   7   8
ATOM      8  C   UNL     1       9.011  -1.665   3.196  0.00  0.00    +0.000 C 
BRANCH   8   9
ATOM      9  C   UNL     1      10.519  -1.565   3.484  0.00  0.00    +0.000 C 
BRANCH   9  10
ATOM     10  N   UNL     1      10.766  -2.101   4.832  0.00  0.00    +0.000 NA
ATOM     11  H   UNL     1      10.549  -3.097   4.851  0.00  0.00    +0.000 HD
ATOM     12  H   UNL     1      10.099  -1.658   5.468  0.00  0.00    +0.000 HD
ENDBRANCH   9  10
BRANCH   9  13
ATOM     13  C   UNL     1      11.327  -2.331   2.404  0.00  0.00    +0.000 C 
BRANCH  13  15
ATOM     14  C   UNL     1      13.393  -2.876   3.837  0.00  0.00    +0.000 C 
ATOM     15  C   UNL     1      12.880  -2.273   2.519  0.00  0.00    +0.000 C 
ATOM     16  C   UNL     1      13.361  -0.819   2.393  0.00  0.00    +0.000 C 
ATOM     17  C   UNL     1      13.505  -3.096   1.373  0.00  0.00    +0.000 C 
ENDBRANCH  13  15
ENDBRANCH   9  13
ENDBRANCH   8   9
ENDBRANCH   7   8
ENDBRANCH   1   7
BRANCH   4  18
ATOM     18  C   UNL     1       4.492  -2.444   6.696  0.00  0.00    +0.000 C 
BRANCH  18  19
ATOM     19  N   UNL     1       4.111  -3.826   6.922  0.00  0.00    +0.000 N 
ATOM     20  C   UNL     1       4.436  -4.541   8.047  0.00  0.00    +0.000 A 
ATOM     21  C   UNL     1       4.045  -5.843   7.853  0.00  0.00    +0.000 A 
ATOM     22  C   UNL     1       3.339  -5.897   6.624  0.00  0.00    +0.000 A 
ATOM     23  C   UNL     1       2.665  -6.932   5.955  0.00  0.00    +0.000 A 
ATOM     24  C   UNL     1       2.003  -6.650   4.755  0.00  0.00    +0.000 A 
ATOM     25  C   UNL     1       2.060  -5.370   4.195  0.00  0.00    +0.000 A 
ATOM     26  C   UNL     1       2.750  -4.334   4.833  0.00  0.00    +0.000 A 
ATOM     27  C   UNL     1       3.370  -4.616   6.052  0.00  0.00    +0.000 A 
BRANCH  24  28
ATOM     28  C   UNL     1       1.237  -7.699   4.044  0.00  0.00    +0.000 C 
ATOM     29  N   UNL     1       0.704  -8.717   4.792  0.00  0.00    +0.000 N 
ATOM     30  O   UNL     1       1.051  -7.645   2.837  0.00  0.00    +0.000 OA
ATOM     31  H   UNL     1       0.659  -8.704   5.799  0.00  0.00    +0.000 HD
ATOM     32  H   UNL     1       0.107  -9.369   4.301  0.00  0.00    +0.000 HD
ENDBRANCH  24  28
ENDBRANCH  18  19
ENDBRANCH   4  18
TORSDOF 9
