REMARK  Name = 
REMARK  7 active torsions:
REMARK  status: ('A' for Active; 'I' for Inactive)
REMARK    1  A    between atoms: C_1  and  C_2
REMARK    2  A    between atoms: C_2  and  N_3
REMARK    3  A    between atoms: C_2  and  C_16
REMARK    4  A    between atoms: C_4  and  C_6
REMARK    5  A    between atoms: C_19  and  O_20
REMARK    6  A    between atoms: O_20  and  C_21
REMARK    7  A    between atoms: C_21  and  C_22
REMARK                            x       y       z     vdW  Elec       q    Type
REMARK                         _______ _______ _______ _____ _____    ______ ____
ROOT
ATOM      1  C   UNL     1       0.936  -0.015   0.038  0.00  0.00    +0.000 C 
ATOM      2  C   UNL     1       2.467  -0.096   0.156  0.00  0.00    +0.000 C 
ENDROOT
BRANCH   2   3
ATOM      3  C   UNL     1       3.051  -0.437  -1.205  0.00  0.00    +0.000 A 
ATOM      4  C   UNL     1       3.945   0.430  -1.849  0.00  0.00    +0.000 A 
ATOM      5  C   UNL     1       4.446   0.116  -3.117  0.00  0.00    +0.000 A 
ATOM      6  C   UNL     1       4.072  -1.071  -3.749  0.00  0.00    +0.000 A 
ATOM      7  C   UNL     1       3.159  -1.921  -3.129  0.00  0.00    +0.000 A 
ATOM      8  C   UNL     1       2.672  -1.618  -1.861  0.00  0.00    +0.000 A 
BRANCH   6   9
ATOM      9  O   UNL     1       4.650  -1.313  -4.967  0.00  0.00    +0.000 OA
BRANCH   9  10
ATOM     10  C   UNL     1       4.691  -2.696  -5.337  0.00  0.00    +0.000 C 
BRANCH  10  11
ATOM     11  C   UNL     1       5.745  -2.965  -6.376  0.00  0.00    +0.000 A 
ATOM     12  C   UNL     1       6.901  -2.195  -6.455  0.00  0.00    +0.000 A 
ATOM     13  N   UNL     1       7.907  -2.465  -7.319  0.00  0.00    +0.000 NA
ATOM     14  C   UNL     1       7.722  -3.550  -8.101  0.00  0.00    +0.000 A 
ATOM     15  C   UNL     1       6.585  -4.333  -8.024  0.00  0.00    +0.000 A 
ATOM     16  N   UNL     1       5.579  -4.066  -7.160  0.00  0.00    +0.000 NA
ENDBRANCH  10  11
ENDBRANCH   9  10
ENDBRANCH   6   9
ENDBRANCH   2   3
BRANCH   2  17
ATOM     17  N   UNL     1       2.908  -1.071   1.146  0.00  0.00    +0.000 N 
ATOM     18  C   UNL     1       2.563  -0.958   2.471  0.00  0.00    +0.000 C 
ATOM     19  O   UNL     1       1.821  -0.071   2.883  0.00  0.00    +0.000 OA
ATOM     20  H   UNL     1       3.735  -1.615   0.916  0.00  0.00    +0.000 HD
BRANCH  18  21
ATOM     21  C   UNL     1       3.073  -1.979   3.391  0.00  0.00    +0.000 A 
ATOM     22  C   UNL     1       2.335  -2.296   4.524  0.00  0.00    +0.000 A 
ATOM     23  S   UNL     1       3.080  -3.458   5.522  0.00  0.00    +0.000 S 
ATOM     24  C   UNL     1       4.431  -3.550   4.492  0.00  0.00    +0.000 A 
ATOM     25  N   UNL     1       5.493  -4.339   4.804  0.00  0.00    +0.000 NA
ATOM     26  C   UNL     1       6.464  -4.284   3.955  0.00  0.00    +0.000 A 
ATOM     27  N   UNL     1       6.459  -3.530   2.809  0.00  0.00    +0.000 N 
ATOM     28  C   UNL     1       5.385  -2.757   2.427  0.00  0.00    +0.000 A 
ATOM     29  O   UNL     1       5.368  -2.159   1.357  0.00  0.00    +0.000 OA
ATOM     30  C   UNL     1       4.292  -2.744   3.376  0.00  0.00    +0.000 A 
ATOM     31  H   UNL     1       7.241  -3.557   2.172  0.00  0.00    +0.000 HD
ENDBRANCH  18  21
ENDBRANCH   2  17
TORSDOF 6
