REMARK  Name = 
REMARK  6 active torsions:
REMARK  status: ('A' for Active; 'I' for Inactive)
REMARK    1  A    between atoms: C_2  and  C_4
REMARK    2  A    between atoms: C_7  and  O_8
REMARK    3  A    between atoms: O_8  and  C_9
REMARK    4  A    between atoms: C_12  and  C_13
REMARK    5  A    between atoms: C_13  and  N_14
REMARK    6  A    between atoms: C_15  and  C_17
REMARK                            x       y       z     vdW  Elec       q    Type
REMARK                         _______ _______ _______ _____ _____    ______ ____
ROOT
ATOM      1  C   UNL     1       4.748   5.551   1.942  0.00  0.00    +0.000 A 
ATOM      2  N   UNL     1       4.191   6.688   1.493  0.00  0.00    +0.000 NA
ATOM      3  C   UNL     1       3.653   7.493   2.433  0.00  0.00    +0.000 A 
ATOM      4  C   UNL     1       3.653   7.208   3.781  0.00  0.00    +0.000 A 
ATOM      5  C   UNL     1       4.222   5.999   4.119  0.00  0.00    +0.000 A 
ATOM      6  N   UNL     1       4.768   5.151   3.226  0.00  0.00    +0.000 NA
ENDROOT
BRANCH   1   7
ATOM      7  O   UNL     1       5.269   4.729   0.952  0.00  0.00    +0.000 OA
BRANCH   7  11
ATOM      8  C   UNL     1       8.324   2.085   1.679  0.00  0.00    +0.000 A 
ATOM      9  C   UNL     1       8.389   3.311   2.326  0.00  0.00    +0.000 A 
ATOM     10  C   UNL     1       7.368   4.233   2.108  0.00  0.00    +0.000 A 
ATOM     11  C   UNL     1       6.301   3.888   1.279  0.00  0.00    +0.000 A 
ATOM     12  C   UNL     1       6.334   2.643   0.659  0.00  0.00    +0.000 A 
ATOM     13  N   UNL     1       7.316   1.724   0.833  0.00  0.00    +0.000 NA
BRANCH   8  15
ATOM     14  N   UNL     1       9.319  -0.063   1.146  0.00  0.00    +0.000 N 
ATOM     15  C   UNL     1       9.420   1.083   1.884  0.00  0.00    +0.000 C 
ATOM     16  O   UNL     1      10.353   1.274   2.655  0.00  0.00    +0.000 OA
ATOM     17  H   UNL     1      10.033  -0.772   1.223  0.00  0.00    +0.000 HD
ATOM     18  H   UNL     1       8.541  -0.177   0.501  0.00  0.00    +0.000 HD
ENDBRANCH   8  15
ENDBRANCH   7  11
ENDBRANCH   1   7
BRANCH   4  19
ATOM     19  C   UNL     1       3.042   8.129   4.787  0.00  0.00    +0.000 C 
BRANCH  19  20
ATOM     20  N   UNL     1       1.643   7.853   4.986  0.00  0.00    +0.000 N 
ATOM     21  C   UNL     1       0.916   8.531   5.935  0.00  0.00    +0.000 C 
ATOM     22  O   UNL     1       1.430   9.406   6.629  0.00  0.00    +0.000 OA
ATOM     23  H   UNL     1       1.148   7.341   4.260  0.00  0.00    +0.000 HD
BRANCH  21  24
ATOM     24  C   UNL     1      -0.469   8.095   6.148  0.00  0.00    +0.000 A 
ATOM     25  C   UNL     1      -1.239   8.670   7.151  0.00  0.00    +0.000 A 
ATOM     26  S   UNL     1      -2.688   7.820   7.461  0.00  0.00    +0.000 S 
ATOM     27  C   UNL     1      -2.353   6.697   6.227  0.00  0.00    +0.000 A 
ATOM     28  N   UNL     1      -3.137   5.605   6.025  0.00  0.00    +0.000 NA
ATOM     29  C   UNL     1      -2.784   4.874   5.019  0.00  0.00    +0.000 A 
ATOM     30  N   UNL     1      -1.751   5.165   4.165  0.00  0.00    +0.000 N 
ATOM     31  C   UNL     1      -0.952   6.273   4.314  0.00  0.00    +0.000 A 
ATOM     32  O   UNL     1      -0.099   6.576   3.486  0.00  0.00    +0.000 OA
ATOM     33  C   UNL     1      -1.228   7.052   5.505  0.00  0.00    +0.000 A 
ATOM     34  H   UNL     1      -1.580   4.598   3.348  0.00  0.00    +0.000 HD
ENDBRANCH  21  24
ENDBRANCH  19  20
ENDBRANCH   4  19
TORSDOF 6
