REMARK  Name = 
REMARK  8 active torsions:
REMARK  status: ('A' for Active; 'I' for Inactive)
REMARK    1  A    between atoms: C_1  and  O_2
REMARK    2  A    between atoms: O_2  and  C_3
REMARK    3  A    between atoms: C_10  and  C_11
REMARK    4  A    between atoms: N_13  and  C_14
REMARK    5  A    between atoms: C_14  and  C_15
REMARK    6  A    between atoms: C_18  and  N_19
REMARK    7  A    between atoms: N_19  and  C_20
REMARK    8  A    between atoms: C_20  and  C_21
REMARK                            x       y       z     vdW  Elec       q    Type
REMARK                         _______ _______ _______ _____ _____    ______ ____
ROOT
ATOM      1  C   UNL     1       2.848   0.411   3.346  0.00  0.00    +0.000 C 
ENDROOT
BRANCH   1   2
ATOM      2  C   UNL     1       1.765   1.433   3.107  0.00  0.00    +0.000 A 
ATOM      3  C   UNL     1       0.430   1.043   2.955  0.00  0.00    +0.000 A 
ATOM      4  C   UNL     1      -0.578   1.994   2.735  0.00  0.00    +0.000 A 
ATOM      5  C   UNL     1      -0.285   3.357   2.631  0.00  0.00    +0.000 A 
ATOM      6  C   UNL     1       1.056   3.739   2.784  0.00  0.00    +0.000 A 
ATOM      7  C   UNL     1       2.070   2.794   3.006  0.00  0.00    +0.000 A 
BRANCH   5   8
ATOM      8  N   UNL     1      -1.251   4.360   2.480  0.00  0.00    +0.000 N 
ATOM      9  H   UNL     1      -0.947   5.057   1.806  0.00  0.00    +0.000 HD
BRANCH   8  10
ATOM     10  C   UNL     1      -2.672   4.025   2.413  0.00  0.00    +0.000 C 
BRANCH  10  11
ATOM     11  C   UNL     1      -3.586   5.268   2.298  0.00  0.00    +0.000 C 
ATOM     12  C   UNL     1      -3.359   6.090   1.014  0.00  0.00    +0.000 C 
ATOM     13  C   UNL     1      -4.250   7.334   0.957  0.00  0.00    +0.000 C 
ATOM     14  C   UNL     1      -4.082   8.197   2.202  0.00  0.00    +0.000 C 
ATOM     15  C   UNL     1      -4.375   7.393   3.463  0.00  0.00    +0.000 C 
ATOM     16  C   UNL     1      -3.493   6.150   3.554  0.00  0.00    +0.000 C 
ENDBRANCH  10  11
ENDBRANCH   8  10
ENDBRANCH   5   8
ENDBRANCH   1   2
BRANCH   1  19
ATOM     17  C   UNL     1       4.394  -1.008   2.060  0.00  0.00    +0.000 C 
ATOM     18  O   UNL     1       4.854  -1.500   3.094  0.00  0.00    +0.000 OA
ATOM     19  N   UNL     1       3.409  -0.063   2.103  0.00  0.00    +0.000 N 
ATOM     20  H   UNL     1       3.100   0.390   1.254  0.00  0.00    +0.000 HD
BRANCH  17  28
ATOM     21  C   UNL     1       3.511  -0.157  -1.151  0.00  0.00    +0.000 A 
ATOM     22  N   UNL     1       3.371  -0.003  -2.483  0.00  0.00    +0.000 NA
ATOM     23  C   UNL     1       4.168  -0.707  -3.282  0.00  0.00    +0.000 A 
ATOM     24  N   UNL     1       5.113  -1.570  -2.913  0.00  0.00    +0.000 NA
ATOM     25  C   UNL     1       5.224  -1.688  -1.579  0.00  0.00    +0.000 A 
ATOM     26  S   UNL     1       6.377  -2.749  -0.926  0.00  0.00    +0.000 S 
ATOM     27  C   UNL     1       5.913  -2.356   0.661  0.00  0.00    +0.000 A 
ATOM     28  C   UNL     1       4.889  -1.418   0.734  0.00  0.00    +0.000 A 
ATOM     29  C   UNL     1       4.477  -1.023  -0.612  0.00  0.00    +0.000 A 
BRANCH  21  31
ATOM     30  C   UNL     1       1.461   0.922  -0.965  0.00  0.00    +0.000 C 
ATOM     31  O   UNL     1       2.699   0.601  -0.333  0.00  0.00    +0.000 OA
ENDBRANCH  21  31
ENDBRANCH  17  28
ENDBRANCH   1  19
TORSDOF 7
