REMARK  Name = 
REMARK  10 active torsions:
REMARK  status: ('A' for Active; 'I' for Inactive)
REMARK    1  A    between atoms: C_1  and  N_2
REMARK    2  A    between atoms: N_2  and  C_3
REMARK    3  A    between atoms: C_3  and  C_4
REMARK    4  A    between atoms: C_4  and  C_5
REMARK    5  A    between atoms: C_5  and  O_6
REMARK    6  A    between atoms: O_6  and  C_7
REMARK    7  A    between atoms: C_10  and  O_11
REMARK    8  A    between atoms: O_11  and  C_12
REMARK    9  A    between atoms: C_12  and  C_13
REMARK   10  A    between atoms: C_16  and  C_17
REMARK                            x       y       z     vdW  Elec       q    Type
REMARK                         _______ _______ _______ _____ _____    ______ ____
ROOT
ATOM      1  C   UNL     1       7.017   2.373   3.150  0.00  0.00    +0.000 A 
ATOM      2  C   UNL     1       6.596   2.329   4.481  0.00  0.00    +0.000 A 
ATOM      3  C   UNL     1       7.395   2.884   5.488  0.00  0.00    +0.000 A 
ATOM      4  C   UNL     1       8.618   3.474   5.168  0.00  0.00    +0.000 A 
ATOM      5  C   UNL     1       9.001   3.574   3.829  0.00  0.00    +0.000 A 
ATOM      6  C   UNL     1       8.216   3.004   2.830  0.00  0.00    +0.000 A 
ENDROOT
BRANCH   1   7
ATOM      7  O   UNL     1       6.377   1.789   2.092  0.00  0.00    +0.000 OA
BRANCH   7   8
ATOM      8  C   UNL     1       4.956   1.738   2.200  0.00  0.00    +0.000 C 
BRANCH   8   9
ATOM      9  C   UNL     1       4.390   1.159   0.907  0.00  0.00    +0.000 C 
BRANCH   9  10
ATOM     10  C   UNL     1       2.867   1.021   0.947  0.00  0.00    +0.000 C 
BRANCH  10  12
ATOM     11  C   UNL     1       0.767   2.189   1.154  0.00  0.00    +0.000 C 
ATOM     12  N   UNL     1       2.215   2.323   1.093  0.00  0.00    +0.000 NA
ATOM     13  H   UNL     1       2.526   2.785   1.945  0.00  0.00    +0.000 HD
ENDBRANCH  10  12
ENDBRANCH   9  10
ENDBRANCH   8   9
ENDBRANCH   7   8
ENDBRANCH   1   7
BRANCH   4  14
ATOM     14  O   UNL     1       9.379   3.901   6.228  0.00  0.00    +0.000 OA
BRANCH  14  15
ATOM     15  C   UNL     1      10.777   3.994   5.932  0.00  0.00    +0.000 C 
BRANCH  15  16
ATOM     16  C   UNL     1      11.626   3.979   7.180  0.00  0.00    +0.000 A 
ATOM     17  C   UNL     1      12.890   3.368   7.136  0.00  0.00    +0.000 A 
ATOM     18  C   UNL     1      13.728   3.386   8.254  0.00  0.00    +0.000 A 
ATOM     19  C   UNL     1      13.314   4.022   9.425  0.00  0.00    +0.000 A 
ATOM     20  C   UNL     1      12.060   4.641   9.474  0.00  0.00    +0.000 A 
ATOM     21  C   UNL     1      11.222   4.624   8.355  0.00  0.00    +0.000 A 
BRANCH  19  22
ATOM     22  C   UNL     1      14.176   4.049  10.568  0.00  0.00    +0.000 C 
ATOM     23  N   UNL     1      14.879   4.070  11.494  0.00  0.00    +0.000 NA
ENDBRANCH  19  22
ENDBRANCH  15  16
ENDBRANCH  14  15
ENDBRANCH   4  14
TORSDOF 9
