REMARK  Name = 
REMARK  8 active torsions:
REMARK  status: ('A' for Active; 'I' for Inactive)
REMARK    1  A    between atoms: C_1  and  C_2
REMARK    2  A    between atoms: N_4  and  C_5
REMARK    3  A    between atoms: C_7  and  C_8
REMARK    4  A    between atoms: C_8  and  C_9
REMARK    5  A    between atoms: C_9  and  N_10
REMARK    6  A    between atoms: C_15  and  C_16
REMARK    7  A    between atoms: C_21  and  C_22
REMARK    8  A    between atoms: C_28  and  C_29
REMARK                            x       y       z     vdW  Elec       q    Type
REMARK                         _______ _______ _______ _____ _____    ______ ____
ROOT
ATOM      1  C   UNL     1       1.791   1.474  -3.386  0.00  0.00    +0.000 A 
ATOM      2  C   UNL     1       2.193   2.755  -3.810  0.00  0.00    +0.000 A 
ATOM      3  C   UNL     1       1.449   3.519  -4.732  0.00  0.00    +0.000 A 
ATOM      4  C   UNL     1       0.250   2.984  -5.218  0.00  0.00    +0.000 A 
ATOM      5  C   UNL     1      -0.186   1.717  -4.831  0.00  0.00    +0.000 A 
ATOM      6  C   UNL     1       0.589   0.984  -3.922  0.00  0.00    +0.000 A 
ENDROOT
BRANCH   1  10
ATOM      7  C   UNL     1       1.837   1.473   0.544  0.00  0.00    +0.000 C 
ATOM      8  C   UNL     1       3.031   0.748  -0.073  0.00  0.00    +0.000 C 
ATOM      9  C   UNL     1       3.406   1.302  -1.469  0.00  0.00    +0.000 C 
ATOM     10  N   UNL     1       2.529   0.725  -2.496  0.00  0.00    +0.000 N 
ATOM     11  C   UNL     1       2.523  -0.744  -2.483  0.00  0.00    +0.000 C 
ATOM     12  C   UNL     1       2.103  -1.267  -1.097  0.00  0.00    +0.000 C 
ATOM     13  C   UNL     1       0.600  -1.177  -0.848  0.00  0.00    +0.000 C 
ATOM     14  O   UNL     1       2.869  -0.682  -0.030  0.00  0.00    +0.000 OA
ENDBRANCH   1  10
BRANCH   5  15
ATOM     15  C   UNL     1      -1.456   1.130  -5.388  0.00  0.00    +0.000 C 
ATOM     16  F   UNL     1      -2.093   1.951  -6.271  0.00  0.00    +0.000 F 
ATOM     17  F   UNL     1      -1.239  -0.035  -6.059  0.00  0.00    +0.000 F 
ATOM     18  F   UNL     1      -2.371   0.841  -4.422  0.00  0.00    +0.000 F 
ENDBRANCH   5  15
BRANCH   3  19
ATOM     19  C   UNL     1       1.985   4.869  -5.190  0.00  0.00    +0.000 C 
BRANCH  19  20
ATOM     20  C   UNL     1       1.092   5.571  -6.221  0.00  0.00    +0.000 C 
BRANCH  20  21
ATOM     21  N   UNL     1       1.638   6.844  -6.688  0.00  0.00    +0.000 N 
ATOM     22  C   UNL     1       0.786   7.452  -7.642  0.00  0.00    +0.000 A 
ATOM     23  C   UNL     1       1.175   8.671  -8.192  0.00  0.00    +0.000 A 
ATOM     24  C   UNL     1       0.346   9.308  -9.117  0.00  0.00    +0.000 A 
ATOM     25  C   UNL     1      -0.855   8.714  -9.476  0.00  0.00    +0.000 A 
ATOM     26  C   UNL     1      -1.176   7.504  -8.884  0.00  0.00    +0.000 A 
ATOM     27  N   UNL     1      -0.384   6.869  -7.976  0.00  0.00    +0.000 NA
ATOM     28  H   UNL     1       2.561   6.743  -7.102  0.00  0.00    +0.000 HD
BRANCH  26  29
ATOM     29  C   UNL     1      -2.453   6.810  -9.245  0.00  0.00    +0.000 C 
ATOM     30  N   UNL     1      -2.666   5.607  -8.631  0.00  0.00    +0.000 N 
ATOM     31  O   UNL     1      -3.258   7.280 -10.041  0.00  0.00    +0.000 OA
ATOM     32  H   UNL     1      -1.984   5.254  -7.970  0.00  0.00    +0.000 HD
ATOM     33  H   UNL     1      -3.511   5.089  -8.823  0.00  0.00    +0.000 HD
ENDBRANCH  26  29
ENDBRANCH  20  21
ENDBRANCH  19  20
ENDBRANCH   3  19
TORSDOF 6
