REMARK  Name = 
REMARK  6 active torsions:
REMARK  status: ('A' for Active; 'I' for Inactive)
REMARK    1  A    between atoms: N_1  and  C_2
REMARK    2  A    between atoms: C_2  and  C_3
REMARK    3  A    between atoms: C_3  and  C_4
REMARK    4  A    between atoms: C_7  and  C_8
REMARK    5  A    between atoms: C_8  and  N_9
REMARK    6  A    between atoms: C_14  and  C_15
REMARK                            x       y       z     vdW  Elec       q    Type
REMARK                         _______ _______ _______ _____ _____    ______ ____
ROOT
ATOM      1  N   UNL     1       9.966  -1.837   0.383  0.00  0.00    +0.000 N 
ATOM      2  C   UNL     1       9.867  -1.972   1.744  0.00  0.00    +0.000 A 
ATOM      3  N   UNL     1      11.042  -2.132   2.307  0.00  0.00    +0.000 NA
ATOM      4  C   UNL     1      11.940  -2.126   1.274  0.00  0.00    +0.000 A 
ATOM      5  C   UNL     1      13.337  -2.120   1.315  0.00  0.00    +0.000 A 
ATOM      6  C   UNL     1      14.060  -2.051   0.114  0.00  0.00    +0.000 A 
ATOM      7  C   UNL     1      13.382  -2.123  -1.112  0.00  0.00    +0.000 A 
ATOM      8  C   UNL     1      11.977  -2.135  -1.172  0.00  0.00    +0.000 A 
ATOM      9  C   UNL     1      11.288  -2.066   0.044  0.00  0.00    +0.000 A 
ENDROOT
BRANCH   6  10
ATOM     10  C   UNL     1      15.528  -1.803   0.227  0.00  0.00    +0.000 C 
ATOM     11  N   UNL     1      16.279  -1.723  -0.912  0.00  0.00    +0.000 N 
ATOM     12  O   UNL     1      16.066  -1.625   1.314  0.00  0.00    +0.000 OA
ATOM     13  H   UNL     1      15.946  -1.862  -1.850  0.00  0.00    +0.000 HD
ATOM     14  H   UNL     1      17.256  -1.488  -0.783  0.00  0.00    +0.000 HD
ENDBRANCH   6  10
BRANCH   1  15
ATOM     15  C   UNL     1       9.010  -1.133  -0.465  0.00  0.00    +0.000 C 
BRANCH  15  19
ATOM     16  C   UNL     1       4.822  -2.096   0.125  0.00  0.00    +0.000 A 
ATOM     17  C   UNL     1       5.417  -1.054   0.845  0.00  0.00    +0.000 A 
ATOM     18  C   UNL     1       6.772  -0.748   0.661  0.00  0.00    +0.000 A 
ATOM     19  C   UNL     1       7.559  -1.482  -0.240  0.00  0.00    +0.000 A 
ATOM     20  C   UNL     1       6.957  -2.517  -0.966  0.00  0.00    +0.000 A 
ATOM     21  C   UNL     1       5.601  -2.813  -0.792  0.00  0.00    +0.000 A 
BRANCH  16  22
ATOM     22  C   UNL     1       3.370  -2.455   0.342  0.00  0.00    +0.000 C 
BRANCH  22  23
ATOM     23  C   UNL     1       2.415  -1.692  -0.583  0.00  0.00    +0.000 C 
BRANCH  23  24
ATOM     24  N   UNL     1       1.029  -2.097  -0.347  0.00  0.00    +0.000 NA
ATOM     25  H   UNL     1       0.410  -1.573  -0.966  0.00  0.00    +0.000 HD
ATOM     26  H   UNL     1       0.754  -1.852   0.603  0.00  0.00    +0.000 HD
ENDBRANCH  23  24
ENDBRANCH  22  23
ENDBRANCH  16  22
ENDBRANCH  15  19
ENDBRANCH   1  15
TORSDOF 6
