REMARK  Name = 
REMARK  7 active torsions:
REMARK  status: ('A' for Active; 'I' for Inactive)
REMARK    1  A    between atoms: C_1  and  N_2
REMARK    2  A    between atoms: N_2  and  C_3
REMARK    3  A    between atoms: C_3  and  C_4
REMARK    4  A    between atoms: C_7  and  C_8
REMARK    5  A    between atoms: C_8  and  O_9
REMARK    6  A    between atoms: O_9  and  C_10
REMARK    7  A    between atoms: C_18  and  C_20
REMARK                            x       y       z     vdW  Elec       q    Type
REMARK                         _______ _______ _______ _____ _____    ______ ____
ROOT
ATOM      1  C   UNL     1       1.007   0.560  -0.055  0.00  0.00    +0.000 C 
ATOM      2  N   UNL     1       2.378   0.056  -0.042  0.00  0.00    +0.000 N 
ATOM      3  C   UNL     1       2.946  -0.113   1.234  0.00  0.00    +0.000 C 
ATOM      4  O   UNL     1       2.314   0.170   2.250  0.00  0.00    +0.000 OA
ENDROOT
BRANCH   3   5
ATOM      5  C   UNL     1       4.327  -0.597   1.354  0.00  0.00    +0.000 A 
ATOM      6  C   UNL     1       5.390  -0.138   0.594  0.00  0.00    +0.000 A 
ATOM      7  S   UNL     1       6.888  -0.838   1.022  0.00  0.00    +0.000 S 
ATOM      8  C   UNL     1       6.185  -1.666   2.330  0.00  0.00    +0.000 A 
ATOM      9  N   UNL     1       6.949  -2.384   3.195  0.00  0.00    +0.000 NA
ATOM     10  C   UNL     1       6.287  -2.898   4.180  0.00  0.00    +0.000 A 
ATOM     11  N   UNL     1       4.930  -2.794   4.353  0.00  0.00    +0.000 N 
ATOM     12  C   UNL     1       4.103  -2.201   3.425  0.00  0.00    +0.000 A 
ATOM     13  O   UNL     1       2.886  -2.343   3.480  0.00  0.00    +0.000 OA
ATOM     14  C   UNL     1       4.814  -1.494   2.375  0.00  0.00    +0.000 A 
ATOM     15  H   UNL     1       4.467  -3.283   5.104  0.00  0.00    +0.000 HD
ENDBRANCH   3   5
BRANCH   2  16
ATOM     16  C   UNL     1       2.998  -0.442  -1.277  0.00  0.00    +0.000 C 
BRANCH  16  17
ATOM     17  C   UNL     1       2.108  -0.579  -2.473  0.00  0.00    +0.000 A 
ATOM     18  C   UNL     1       1.366  -1.738  -2.693  0.00  0.00    +0.000 A 
ATOM     19  C   UNL     1       0.493  -1.794  -3.773  0.00  0.00    +0.000 A 
ATOM     20  C   UNL     1       0.366  -0.676  -4.593  0.00  0.00    +0.000 A 
ATOM     21  N   UNL     1       1.096   0.454  -4.413  0.00  0.00    +0.000 NA
ATOM     22  C   UNL     1       1.957   0.470  -3.373  0.00  0.00    +0.000 A 
BRANCH  20  23
ATOM     23  C   UNL     1      -0.633  -0.676  -5.722  0.00  0.00    +0.000 C 
BRANCH  23  24
ATOM     24  O   UNL     1      -0.025  -1.235  -6.884  0.00  0.00    +0.000 OA
BRANCH  24  25
ATOM     25  C   UNL     1      -0.792  -1.242  -8.012  0.00  0.00    +0.000 A 
ATOM     26  C   UNL     1      -2.132  -0.875  -8.102  0.00  0.00    +0.000 A 
ATOM     27  C   UNL     1      -2.786  -0.950  -9.331  0.00  0.00    +0.000 A 
ATOM     28  C   UNL     1      -2.074  -1.392 -10.431  0.00  0.00    +0.000 A 
ATOM     29  N   UNL     1      -0.773  -1.754 -10.385  0.00  0.00    +0.000 NA
ATOM     30  C   UNL     1      -0.166  -1.668  -9.177  0.00  0.00    +0.000 A 
ENDBRANCH  24  25
ENDBRANCH  23  24
ENDBRANCH  20  23
ENDBRANCH  16  17
ENDBRANCH   2  16
TORSDOF 6
