REMARK  Name = 
REMARK  8 active torsions:
REMARK  status: ('A' for Active; 'I' for Inactive)
REMARK    1  A    between atoms: C_1  and  O_2
REMARK    2  A    between atoms: O_2  and  C_3
REMARK    3  A    between atoms: C_5  and  C_6
REMARK    4  A    between atoms: C_11  and  O_12
REMARK    5  A    between atoms: O_12  and  C_13
REMARK    6  A    between atoms: C_13  and  C_14
REMARK    7  A    between atoms: C_18  and  C_19
REMARK    8  A    between atoms: C_23  and  C_24
REMARK                            x       y       z     vdW  Elec       q    Type
REMARK                         _______ _______ _______ _____ _____    ______ ____
ROOT
ATOM      1  C   UNL     1       4.281  -3.402   1.162  0.00  0.00    +0.000 A 
ATOM      2  C   UNL     1       5.547  -3.448   1.752  0.00  0.00    +0.000 A 
ATOM      3  C   UNL     1       5.906  -4.533   2.548  0.00  0.00    +0.000 A 
ATOM      4  C   UNL     1       4.999  -5.573   2.773  0.00  0.00    +0.000 A 
ATOM      5  C   UNL     1       3.714  -5.557   2.207  0.00  0.00    +0.000 A 
ATOM      6  C   UNL     1       3.386  -4.465   1.382  0.00  0.00    +0.000 A 
ENDROOT
BRANCH   5   7
ATOM      7  C   UNL     1       2.709  -6.594   2.523  0.00  0.00    +0.000 A 
ATOM      8  C   UNL     1       2.579  -7.121   3.812  0.00  0.00    +0.000 A 
ATOM      9  N   UNL     1       1.651  -8.034   4.192  0.00  0.00    +0.000 NA
ATOM     10  C   UNL     1       0.781  -8.449   3.248  0.00  0.00    +0.000 A 
ATOM     11  C   UNL     1       0.801  -8.002   1.938  0.00  0.00    +0.000 A 
ATOM     12  C   UNL     1       1.789  -7.070   1.580  0.00  0.00    +0.000 A 
BRANCH  11  13
ATOM     13  C   UNL     1      -0.212  -8.487   0.949  0.00  0.00    +0.000 C 
ATOM     14  F   UNL     1      -1.095  -9.387   1.464  0.00  0.00    +0.000 F 
ATOM     15  F   UNL     1      -0.969  -7.473   0.444  0.00  0.00    +0.000 F 
ATOM     16  F   UNL     1       0.358  -9.097  -0.126  0.00  0.00    +0.000 F 
ENDBRANCH  11  13
ENDBRANCH   5   7
BRANCH   1  17
ATOM     17  C   UNL     1       3.796  -2.155   0.455  0.00  0.00    +0.000 C 
BRANCH  17  18
ATOM     18  O   UNL     1       4.708  -1.707  -0.544  0.00  0.00    +0.000 OA
BRANCH  18  24
ATOM     19  C   UNL     1       3.219   0.237  -1.084  0.00  0.00    +0.000 A 
ATOM     20  C   UNL     1       3.026   1.329  -1.944  0.00  0.00    +0.000 A 
ATOM     21  C   UNL     1       3.926   1.614  -2.983  0.00  0.00    +0.000 A 
ATOM     22  C   UNL     1       5.040   0.791  -3.158  0.00  0.00    +0.000 A 
ATOM     23  C   UNL     1       5.239  -0.302  -2.306  0.00  0.00    +0.000 A 
ATOM     24  C   UNL     1       4.341  -0.593  -1.269  0.00  0.00    +0.000 A 
BRANCH  21  25
ATOM     25  C   UNL     1       3.625   2.802  -3.834  0.00  0.00    +0.000 C 
ATOM     26  N   UNL     1       4.491   3.131  -4.839  0.00  0.00    +0.000 N 
ATOM     27  O   UNL     1       2.623   3.481  -3.651  0.00  0.00    +0.000 OA
ATOM     28  H   UNL     1       5.341   2.643  -5.061  0.00  0.00    +0.000 HD
ATOM     29  H   UNL     1       4.252   3.944  -5.391  0.00  0.00    +0.000 HD
ENDBRANCH  21  25
BRANCH  19  31
ATOM     30  C   UNL     1       1.054   0.503  -0.096  0.00  0.00    +0.000 C 
ATOM     31  O   UNL     1       2.380  -0.008  -0.031  0.00  0.00    +0.000 OA
ENDBRANCH  19  31
ENDBRANCH  18  24
ENDBRANCH  17  18
ENDBRANCH   1  17
TORSDOF 7
