REMARK  Name = 
REMARK  8 active torsions:
REMARK  status: ('A' for Active; 'I' for Inactive)
REMARK    1  A    between atoms: C_1  and  C_2
REMARK    2  A    between atoms: C_2  and  C_3
REMARK    3  A    between atoms: C_3  and  N_4
REMARK    4  A    between atoms: C_3  and  C_17
REMARK    5  A    between atoms: C_5  and  C_7
REMARK    6  A    between atoms: C_20  and  O_21
REMARK    7  A    between atoms: O_21  and  C_22
REMARK    8  A    between atoms: C_22  and  C_23
REMARK                            x       y       z     vdW  Elec       q    Type
REMARK                         _______ _______ _______ _____ _____    ______ ____
ROOT
ATOM      1  C   UNL     1       3.131   0.767   1.090  0.00  0.00    +0.000 C 
ENDROOT
BRANCH   1   2
ATOM      2  C   UNL     1       4.641   0.778   1.259  0.00  0.00    +0.000 A 
ATOM      3  C   UNL     1       5.348   1.988   1.207  0.00  0.00    +0.000 A 
ATOM      4  C   UNL     1       6.691   2.034   1.589  0.00  0.00    +0.000 A 
ATOM      5  C   UNL     1       7.336   0.876   2.021  0.00  0.00    +0.000 A 
ATOM      6  C   UNL     1       6.673  -0.349   1.956  0.00  0.00    +0.000 A 
ATOM      7  C   UNL     1       5.333  -0.397   1.585  0.00  0.00    +0.000 A 
BRANCH   5   8
ATOM      8  O   UNL     1       8.603   1.038   2.518  0.00  0.00    +0.000 OA
BRANCH   8   9
ATOM      9  C   UNL     1       8.963   0.064   3.509  0.00  0.00    +0.000 C 
BRANCH   9  10
ATOM     10  C   UNL     1      10.051   0.561   4.430  0.00  0.00    +0.000 A 
ATOM     11  C   UNL     1      10.154   1.908   4.768  0.00  0.00    +0.000 A 
ATOM     12  C   UNL     1      11.126   2.300   5.683  0.00  0.00    +0.000 A 
ATOM     13  C   UNL     1      11.957   1.341   6.247  0.00  0.00    +0.000 A 
ATOM     14  C   UNL     1      11.780   0.021   5.874  0.00  0.00    +0.000 A 
ATOM     15  N   UNL     1      10.848  -0.389   4.988  0.00  0.00    +0.000 NA
ENDBRANCH   9  10
ENDBRANCH   8   9
ENDBRANCH   5   8
ENDBRANCH   1   2
BRANCH   1  16
ATOM     16  N   UNL     1       2.770  -0.079  -0.032  0.00  0.00    +0.000 N 
ATOM     17  C   UNL     1       1.691   0.173  -0.836  0.00  0.00    +0.000 C 
ATOM     18  O   UNL     1       1.020   1.196  -0.738  0.00  0.00    +0.000 OA
ATOM     19  H   UNL     1       3.202  -0.995  -0.065  0.00  0.00    +0.000 HD
BRANCH  17  20
ATOM     20  C   UNL     1       1.394  -0.840  -1.857  0.00  0.00    +0.000 A 
ATOM     21  C   UNL     1       0.715  -0.476  -3.011  0.00  0.00    +0.000 A 
ATOM     22  S   UNL     1       0.413  -1.781  -4.066  0.00  0.00    +0.000 S 
ATOM     23  C   UNL     1       1.142  -2.886  -2.997  0.00  0.00    +0.000 A 
ATOM     24  N   UNL     1       1.164  -4.216  -3.276  0.00  0.00    +0.000 NA
ATOM     25  C   UNL     1       1.716  -4.944  -2.363  0.00  0.00    +0.000 A 
ATOM     26  N   UNL     1       2.270  -4.458  -1.207  0.00  0.00    +0.000 N 
ATOM     27  C   UNL     1       2.328  -3.116  -0.913  0.00  0.00    +0.000 A 
ATOM     28  O   UNL     1       2.934  -2.707   0.073  0.00  0.00    +0.000 OA
ATOM     29  C   UNL     1       1.661  -2.260  -1.877  0.00  0.00    +0.000 A 
ATOM     30  H   UNL     1       2.724  -5.080  -0.556  0.00  0.00    +0.000 HD
ENDBRANCH  17  20
ENDBRANCH   1  16
BRANCH   1  32
ATOM     31  C   UNL     1       2.752   1.145   3.600  0.00  0.00    +0.000 C 
ATOM     32  C   UNL     1       2.439   0.277   2.384  0.00  0.00    +0.000 C 
ENDBRANCH   1  32
TORSDOF 7
