REMARK  Name = 
REMARK  10 active torsions:
REMARK  status: ('A' for Active; 'I' for Inactive)
REMARK    1  A    between atoms: C_1  and  O_2
REMARK    2  A    between atoms: O_2  and  C_3
REMARK    3  A    between atoms: C_10  and  C_11
REMARK    4  A    between atoms: N_13  and  C_14
REMARK    5  A    between atoms: C_14  and  C_15
REMARK    6  A    between atoms: C_18  and  N_19
REMARK    7  A    between atoms: N_19  and  C_20
REMARK    8  A    between atoms: C_20  and  C_21
REMARK    9  A    between atoms: C_20  and  C_22
REMARK   10  A    between atoms: C_22  and  C_23
REMARK                            x       y       z     vdW  Elec       q    Type
REMARK                         _______ _______ _______ _____ _____    ______ ____
ROOT
ATOM      1  C   UNL     1       1.692  -2.092  -2.705  0.00  0.00    +0.000 A 
ATOM      2  C   UNL     1       1.754  -3.490  -2.705  0.00  0.00    +0.000 A 
ATOM      3  C   UNL     1       0.698  -4.252  -2.187  0.00  0.00    +0.000 A 
ATOM      4  C   UNL     1      -0.424  -3.640  -1.620  0.00  0.00    +0.000 A 
ATOM      5  C   UNL     1      -0.539  -2.253  -1.745  0.00  0.00    +0.000 A 
ATOM      6  C   UNL     1       0.506  -1.484  -2.277  0.00  0.00    +0.000 A 
ENDROOT
BRANCH   4   7
ATOM      7  N   UNL     1      -1.403  -4.327  -0.898  0.00  0.00    +0.000 N 
ATOM      8  H   UNL     1      -2.301  -4.399  -1.385  0.00  0.00    +0.000 HD
BRANCH   7   9
ATOM      9  C   UNL     1      -1.042  -5.526  -0.123  0.00  0.00    +0.000 C 
ATOM     10  C   UNL     1      -0.021  -5.124   0.956  0.00  0.00    +0.000 C 
BRANCH   9  11
ATOM     11  C   UNL     1      -2.280  -6.146   0.567  0.00  0.00    +0.000 C 
BRANCH  11  12
ATOM     12  C   UNL     1      -3.325  -6.622  -0.414  0.00  0.00    +0.000 A 
ATOM     13  C   UNL     1      -3.303  -7.922  -0.916  0.00  0.00    +0.000 A 
ATOM     14  C   UNL     1      -4.234  -8.282  -1.888  0.00  0.00    +0.000 A 
ATOM     15  C   UNL     1      -5.160  -7.345  -2.330  0.00  0.00    +0.000 A 
ATOM     16  C   UNL     1      -5.130  -6.084  -1.763  0.00  0.00    +0.000 A 
ATOM     17  N   UNL     1      -4.234  -5.704  -0.826  0.00  0.00    +0.000 NA
ENDBRANCH  11  12
ENDBRANCH   9  11
ENDBRANCH   7   9
ENDBRANCH   4   7
BRANCH   1  18
ATOM     18  C   UNL     1       2.883  -1.269  -3.126  0.00  0.00    +0.000 C 
BRANCH  18  21
ATOM     19  C   UNL     1       3.924  -0.313  -5.140  0.00  0.00    +0.000 C 
ATOM     20  O   UNL     1       4.868   0.109  -4.479  0.00  0.00    +0.000 OA
ATOM     21  N   UNL     1       2.895  -1.002  -4.545  0.00  0.00    +0.000 N 
ATOM     22  H   UNL     1       2.060  -1.233  -5.069  0.00  0.00    +0.000 HD
BRANCH  19  30
ATOM     23  C   UNL     1       1.673  -1.296  -7.570  0.00  0.00    +0.000 A 
ATOM     24  N   UNL     1       1.031  -1.615  -8.713  0.00  0.00    +0.000 NA
ATOM     25  C   UNL     1       1.552  -1.207  -9.868  0.00  0.00    +0.000 A 
ATOM     26  N   UNL     1       2.663  -0.499 -10.035  0.00  0.00    +0.000 NA
ATOM     27  C   UNL     1       3.286  -0.218  -8.875  0.00  0.00    +0.000 A 
ATOM     28  S   UNL     1       4.717   0.692  -8.904  0.00  0.00    +0.000 S 
ATOM     29  C   UNL     1       4.869   0.598  -7.215  0.00  0.00    +0.000 A 
ATOM     30  C   UNL     1       3.849  -0.120  -6.597  0.00  0.00    +0.000 A 
ATOM     31  C   UNL     1       2.884  -0.581  -7.594  0.00  0.00    +0.000 A 
BRANCH  23  33
ATOM     32  C   UNL     1      -0.165  -2.328  -6.553  0.00  0.00    +0.000 C 
ATOM     33  O   UNL     1       1.083  -1.658  -6.375  0.00  0.00    +0.000 OA
ENDBRANCH  23  33
ENDBRANCH  19  30
ENDBRANCH  18  21
ENDBRANCH   1  18
TORSDOF 8
