REMARK  Name = 
REMARK  8 active torsions:
REMARK  status: ('A' for Active; 'I' for Inactive)
REMARK    1  A    between atoms: C_1  and  C_2
REMARK    2  A    between atoms: C_4  and  C_5
REMARK    3  A    between atoms: C_10  and  O_11
REMARK    4  A    between atoms: O_11  and  C_12
REMARK    5  A    between atoms: C_12  and  C_13
REMARK    6  A    between atoms: C_13  and  C_14
REMARK    7  A    between atoms: C_13  and  C_15
REMARK    8  A    between atoms: C_19  and  C_20
REMARK                            x       y       z     vdW  Elec       q    Type
REMARK                         _______ _______ _______ _____ _____    ______ ____
ROOT
ATOM      1  C   UNL     1       0.934  -5.171  -3.712  0.00  0.00    +0.000 C 
ATOM      2  C   UNL     1       1.244  -6.567  -3.267  0.00  0.00    +0.000 A 
ATOM      3  N   UNL     1       0.817  -7.501  -4.165  0.00  0.00    +0.000 NA
ATOM      4  C   UNL     1       1.070  -8.811  -3.903  0.00  0.00    +0.000 A 
ATOM      5  C   UNL     1       1.736  -9.250  -2.777  0.00  0.00    +0.000 A 
ATOM      6  C   UNL     1       2.158  -8.285  -1.866  0.00  0.00    +0.000 A 
ATOM      7  C   UNL     1       1.920  -6.921  -2.091  0.00  0.00    +0.000 A 
ENDROOT
BRANCH   4   8
ATOM      8  C   UNL     1       0.573  -9.792  -4.923  0.00  0.00    +0.000 C 
ATOM      9  N   UNL     1      -0.081  -9.234  -5.988  0.00  0.00    +0.000 N 
ATOM     10  O   UNL     1       0.734 -10.999  -4.816  0.00  0.00    +0.000 OA
ATOM     11  H   UNL     1      -0.200  -8.229  -6.025  0.00  0.00    +0.000 HD
ATOM     12  H   UNL     1      -0.466  -9.827  -6.709  0.00  0.00    +0.000 HD
ENDBRANCH   4   8
BRANCH   7  13
ATOM     13  O   UNL     1       2.436  -6.143  -1.091  0.00  0.00    +0.000 OA
BRANCH  13  14
ATOM     14  C   UNL     1       2.154  -4.749  -1.045  0.00  0.00    +0.000 C 
BRANCH  14  15
ATOM     15  C   UNL     1       2.783  -4.098   0.205  0.00  0.00    +0.000 C 
ATOM     16  C   UNL     1       4.306  -4.268   0.204  0.00  0.00    +0.000 C 
BRANCH  15  17
ATOM     17  C   UNL     1       2.090  -4.567   1.478  0.00  0.00    +0.000 A 
ATOM     18  C   UNL     1       2.559  -5.651   2.229  0.00  0.00    +0.000 A 
ATOM     19  C   UNL     1       1.873  -6.088   3.367  0.00  0.00    +0.000 A 
ATOM     20  C   UNL     1       0.699  -5.451   3.765  0.00  0.00    +0.000 A 
ATOM     21  C   UNL     1       0.210  -4.368   3.030  0.00  0.00    +0.000 A 
ATOM     22  C   UNL     1       0.907  -3.930   1.895  0.00  0.00    +0.000 A 
BRANCH  21  23
ATOM     23  C   UNL     1      -1.006  -3.717   3.429  0.00  0.00    +0.000 C 
ATOM     24  N   UNL     1      -1.990  -3.189   3.747  0.00  0.00    +0.000 NA
ENDBRANCH  21  23
ENDBRANCH  15  17
ENDBRANCH  14  15
ENDBRANCH  13  14
ENDBRANCH   7  13
TORSDOF 6
