REMARK  Name = 
REMARK  7 active torsions:
REMARK  status: ('A' for Active; 'I' for Inactive)
REMARK    1  A    between atoms: C_2  and  C_3
REMARK    2  A    between atoms: N_7  and  C_8
REMARK    3  A    between atoms: C_8  and  C_9
REMARK    4  A    between atoms: C_9  and  C_10
REMARK    5  A    between atoms: C_9  and  C_12
REMARK    6  A    between atoms: C_16  and  O_17
REMARK    7  A    between atoms: O_17  and  C_18
REMARK                            x       y       z     vdW  Elec       q    Type
REMARK                         _______ _______ _______ _____ _____    ______ ____
ROOT
ATOM      1  C   UNL     1      -5.800   1.188  -0.220  0.00  0.00    +0.000 C 
ENDROOT
BRANCH   1   2
ATOM      2  C   UNL     1      -6.541   2.509  -0.385  0.00  0.00    +0.000 A 
ATOM      3  C   UNL     1      -6.483   3.513   0.591  0.00  0.00    +0.000 A 
ATOM      4  C   UNL     1      -7.072   4.759   0.366  0.00  0.00    +0.000 A 
ATOM      5  C   UNL     1      -7.742   5.020  -0.831  0.00  0.00    +0.000 A 
ATOM      6  C   UNL     1      -7.846   4.020  -1.793  0.00  0.00    +0.000 A 
ATOM      7  C   UNL     1      -7.249   2.774  -1.568  0.00  0.00    +0.000 A 
BRANCH   6   8
ATOM      8  O   UNL     1      -8.455   4.156  -3.014  0.00  0.00    +0.000 OA
BRANCH   8   9
ATOM      9  C   UNL     1      -9.383   5.242  -3.232  0.00  0.00    +0.000 C 
ATOM     10  C   UNL     1     -10.761   5.169  -2.540  0.00  0.00    +0.000 C 
ATOM     11  N   UNL     1     -11.420   5.514  -3.815  0.00  0.00    +0.000 NA
ATOM     12  C   UNL     1     -10.196   5.133  -4.542  0.00  0.00    +0.000 C 
ATOM     13  H   UNL     1     -11.658   6.502  -3.905  0.00  0.00    +0.000 HD
ENDBRANCH   8   9
ENDBRANCH   6   8
ENDBRANCH   1   2
BRANCH   1  14
ATOM     14  C   UNL     1      -4.284   1.410  -0.135  0.00  0.00    +0.000 C 
ATOM     15  F   UNL     1      -3.961   2.074   1.008  0.00  0.00    +0.000 F 
ENDBRANCH   1  14
BRANCH   1  16
ATOM     16  C   UNL     1      -6.325   0.362   0.972  0.00  0.00    +0.000 C 
BRANCH  16  21
ATOM     17  C   UNL     1      -6.493  -4.517  -0.721  0.00  0.00    +0.000 A 
ATOM     18  C   UNL     1      -6.943  -3.353  -1.332  0.00  0.00    +0.000 A 
ATOM     19  C   UNL     1      -6.694  -2.123  -0.724  0.00  0.00    +0.000 A 
ATOM     20  C   UNL     1      -5.997  -2.072   0.479  0.00  0.00    +0.000 A 
ATOM     21  N   UNL     1      -5.628  -0.909   1.102  0.00  0.00    +0.000 N 
ATOM     22  N   UNL     1      -5.564  -3.197   1.076  0.00  0.00    +0.000 NA
ATOM     23  C   UNL     1      -5.816  -4.387   0.481  0.00  0.00    +0.000 A 
ATOM     24  H   UNL     1      -5.246  -1.126   2.021  0.00  0.00    +0.000 HD
BRANCH  17  26
ATOM     25  N   UNL     1      -6.892  -6.836  -1.787  0.00  0.00    +0.000 NA
ATOM     26  C   UNL     1      -6.712  -5.797  -1.304  0.00  0.00    +0.000 C 
ENDBRANCH  17  26
ENDBRANCH  16  21
ENDBRANCH   1  16
TORSDOF 7
