REMARK  Name = 
REMARK  10 active torsions:
REMARK  status: ('A' for Active; 'I' for Inactive)
REMARK    1  A    between atoms: C_1  and  O_2
REMARK    2  A    between atoms: O_2  and  C_3
REMARK    3  A    between atoms: C_5  and  C_6
REMARK    4  A    between atoms: C_11  and  N_12
REMARK    5  A    between atoms: N_12  and  C_13
REMARK    6  A    between atoms: C_13  and  C_14
REMARK    7  A    between atoms: C_14  and  C_15
REMARK    8  A    between atoms: C_14  and  C_16
REMARK    9  A    between atoms: C_14  and  C_17
REMARK   10  A    between atoms: C_21  and  C_22
REMARK                            x       y       z     vdW  Elec       q    Type
REMARK                         _______ _______ _______ _____ _____    ______ ____
ROOT
ATOM      1  C   UNL     1       6.804   2.829   2.790  0.00  0.00    +0.000 C 
ENDROOT
BRANCH   1   2
ATOM      2  C   UNL     1       8.069   3.675   2.440  0.00  0.00    +0.000 C 
ATOM      3  C   UNL     1       8.971   2.753   1.577  0.00  0.00    +0.000 C 
ATOM      4  C   UNL     1       7.647   4.878   1.564  0.00  0.00    +0.000 C 
BRANCH   2   5
ATOM      5  C   UNL     1       8.875   4.141   3.675  0.00  0.00    +0.000 A 
ATOM      6  C   UNL     1       8.453   3.896   4.991  0.00  0.00    +0.000 A 
ATOM      7  C   UNL     1       9.222   4.292   6.084  0.00  0.00    +0.000 A 
ATOM      8  C   UNL     1      10.447   4.920   5.886  0.00  0.00    +0.000 A 
ATOM      9  C   UNL     1      10.934   5.167   4.595  0.00  0.00    +0.000 A 
ATOM     10  C   UNL     1      10.117   4.793   3.508  0.00  0.00    +0.000 A 
BRANCH   9  11
ATOM     11  C   UNL     1      12.273   5.755   4.385  0.00  0.00    +0.000 A 
ATOM     12  C   UNL     1      12.564   6.629   3.330  0.00  0.00    +0.000 A 
ATOM     13  C   UNL     1      13.848   7.142   3.163  0.00  0.00    +0.000 A 
ATOM     14  C   UNL     1      14.827   6.775   4.071  0.00  0.00    +0.000 A 
ATOM     15  N   UNL     1      14.610   5.938   5.106  0.00  0.00    +0.000 NA
ATOM     16  C   UNL     1      13.349   5.453   5.230  0.00  0.00    +0.000 A 
ENDBRANCH   9  11
ENDBRANCH   2   5
ENDBRANCH   1   2
BRANCH   1  17
ATOM     17  N   UNL     1       5.761   3.609   3.433  0.00  0.00    +0.000 N 
ATOM     18  H   UNL     1       5.973   4.541   3.778  0.00  0.00    +0.000 HD
BRANCH  17  23
ATOM     19  C   UNL     1       2.911   3.444   5.512  0.00  0.00    +0.000 A 
ATOM     20  C   UNL     1       2.450   2.146   5.402  0.00  0.00    +0.000 A 
ATOM     21  C   UNL     1       3.177   1.257   4.612  0.00  0.00    +0.000 A 
ATOM     22  C   UNL     1       4.322   1.729   3.961  0.00  0.00    +0.000 A 
ATOM     23  C   UNL     1       4.705   3.053   4.108  0.00  0.00    +0.000 A 
ATOM     24  N   UNL     1       4.019   3.902   4.891  0.00  0.00    +0.000 NA
BRANCH  21  25
ATOM     25  C   UNL     1       2.760  -0.171   4.416  0.00  0.00    +0.000 C 
ATOM     26  F   UNL     1       1.598  -0.495   5.044  0.00  0.00    +0.000 F 
ATOM     27  F   UNL     1       2.575  -0.477   3.102  0.00  0.00    +0.000 F 
ATOM     28  F   UNL     1       3.694  -1.050   4.874  0.00  0.00    +0.000 F 
ENDBRANCH  21  25
BRANCH  19  30
ATOM     29  C   UNL     1       2.702   5.612   6.364  0.00  0.00    +0.000 C 
ATOM     30  O   UNL     1       2.155   4.298   6.289  0.00  0.00    +0.000 OA
ENDBRANCH  19  30
ENDBRANCH  17  23
ENDBRANCH   1  17
TORSDOF 7
