REMARK  Name = 
REMARK  6 active torsions:
REMARK  status: ('A' for Active; 'I' for Inactive)
REMARK    1  A    between atoms: C_1  and  O_2
REMARK    2  A    between atoms: O_2  and  C_3
REMARK    3  A    between atoms: C_3  and  C_4
REMARK    4  A    between atoms: C_4  and  N_5
REMARK    5  A    between atoms: C_4  and  C_15
REMARK    6  A    between atoms: C_9  and  C_10
REMARK                            x       y       z     vdW  Elec       q    Type
REMARK                         _______ _______ _______ _____ _____    ______ ____
ROOT
ATOM      1  N   UNL     1       2.998  -0.541  -0.946  0.00  0.00    +0.000 N 
ATOM      2  C   UNL     1       2.486   0.486  -0.165  0.00  0.00    +0.000 A 
ATOM      3  C   UNL     1       1.255   1.028  -0.526  0.00  0.00    +0.000 A 
ATOM      4  C   UNL     1       0.758   2.138   0.159  0.00  0.00    +0.000 A 
ATOM      5  C   UNL     1       1.472   2.666   1.232  0.00  0.00    +0.000 A 
ATOM      6  C   UNL     1       2.659   2.029   1.561  0.00  0.00    +0.000 A 
ATOM      7  N   UNL     1       3.183   0.971   0.881  0.00  0.00    +0.000 NA
ATOM      8  H   UNL     1       2.439  -1.383  -0.929  0.00  0.00    +0.000 HD
ENDROOT
BRANCH   5   9
ATOM      9  C   UNL     1       0.952   3.875   1.918  0.00  0.00    +0.000 C 
ATOM     10  N   UNL     1       1.621   4.362   3.010  0.00  0.00    +0.000 N 
ATOM     11  O   UNL     1      -0.056   4.445   1.519  0.00  0.00    +0.000 OA
ATOM     12  H   UNL     1       2.444   3.966   3.431  0.00  0.00    +0.000 HD
ATOM     13  H   UNL     1       1.237   5.201   3.431  0.00  0.00    +0.000 HD
ENDBRANCH   5   9
BRANCH   1  14
ATOM     14  C   UNL     1       4.448  -0.725  -1.015  0.00  0.00    +0.000 C 
BRANCH  14  15
ATOM     15  C   UNL     1       4.785  -1.390  -2.354  0.00  0.00    +0.000 A 
ATOM     16  C   UNL     1       5.641  -0.732  -3.252  0.00  0.00    +0.000 A 
ATOM     17  C   UNL     1       6.089  -1.370  -4.409  0.00  0.00    +0.000 A 
ATOM     18  C   UNL     1       5.678  -2.671  -4.691  0.00  0.00    +0.000 A 
ATOM     19  C   UNL     1       4.799  -3.324  -3.830  0.00  0.00    +0.000 A 
ATOM     20  C   UNL     1       4.348  -2.688  -2.672  0.00  0.00    +0.000 A 
ENDBRANCH  14  15
BRANCH  14  21
ATOM     21  C   UNL     1       5.059  -1.551   0.143  0.00  0.00    +0.000 C 
BRANCH  21  23
ATOM     22  C   UNL     1       7.147  -2.418   0.911  0.00  0.00    +0.000 C 
ATOM     23  O   UNL     1       6.484  -1.618  -0.048  0.00  0.00    +0.000 OA
ENDBRANCH  21  23
ENDBRANCH  14  21
ENDBRANCH   1  14
TORSDOF 5
