REMARK  Name = 
REMARK  6 active torsions:
REMARK  status: ('A' for Active; 'I' for Inactive)
REMARK    1  A    between atoms: C_2  and  C_4
REMARK    2  A    between atoms: N_8  and  C_9
REMARK    3  A    between atoms: C_9  and  C_10
REMARK    4  A    between atoms: C_10  and  C_13
REMARK    5  A    between atoms: C_17  and  N_18
REMARK    6  A    between atoms: N_18  and  C_19
REMARK                            x       y       z     vdW  Elec       q    Type
REMARK                         _______ _______ _______ _____ _____    ______ ____
ROOT
ATOM      1  C   UNL     1       6.206  -2.097   6.703  0.00  0.00    +0.000 C 
ATOM      2  F   UNL     1       7.454  -2.113   6.140  0.00  0.00    +0.000 F 
ATOM      3  F   UNL     1       6.152  -0.931   7.414  0.00  0.00    +0.000 F 
ENDROOT
BRANCH   1   4
ATOM      4  C   UNL     1       5.993  -3.309   7.592  0.00  0.00    +0.000 A 
ATOM      5  C   UNL     1       6.615  -4.522   7.272  0.00  0.00    +0.000 A 
ATOM      6  C   UNL     1       6.489  -5.614   8.135  0.00  0.00    +0.000 A 
ATOM      7  C   UNL     1       5.760  -5.493   9.318  0.00  0.00    +0.000 A 
ATOM      8  C   UNL     1       5.106  -4.305   9.656  0.00  0.00    +0.000 A 
ATOM      9  C   UNL     1       5.218  -3.219   8.769  0.00  0.00    +0.000 A 
BRANCH   8  10
ATOM     10  N   UNL     1       4.381  -4.124  10.862  0.00  0.00    +0.000 N 
ATOM     11  H   UNL     1       4.851  -3.445  11.466  0.00  0.00    +0.000 HD
BRANCH  10  12
ATOM     12  C   UNL     1       3.672  -5.154  11.583  0.00  0.00    +0.000 C 
ATOM     13  C   UNL     1       2.967  -4.675  12.864  0.00  0.00    +0.000 C 
ATOM     14  O   UNL     1       3.667  -5.661  13.666  0.00  0.00    +0.000 OA
ATOM     15  C   UNL     1       4.486  -6.035  12.532  0.00  0.00    +0.000 C 
ENDBRANCH  10  12
ENDBRANCH   8  10
ENDBRANCH   1   4
BRANCH   1  16
ATOM     16  C   UNL     1       5.164  -2.030   5.562  0.00  0.00    +0.000 C 
BRANCH  16  21
ATOM     17  C   UNL     1       2.860   0.018   1.496  0.00  0.00    +0.000 A 
ATOM     18  C   UNL     1       2.336  -0.752   2.525  0.00  0.00    +0.000 A 
ATOM     19  C   UNL     1       3.153  -1.080   3.603  0.00  0.00    +0.000 A 
ATOM     20  C   UNL     1       4.472  -0.631   3.641  0.00  0.00    +0.000 A 
ATOM     21  N   UNL     1       5.285  -0.825   4.735  0.00  0.00    +0.000 N 
ATOM     22  N   UNL     1       4.997   0.091   2.634  0.00  0.00    +0.000 NA
ATOM     23  C   UNL     1       4.193   0.392   1.579  0.00  0.00    +0.000 A 
ATOM     24  H   UNL     1       6.218  -0.436   4.595  0.00  0.00    +0.000 HD
BRANCH  17  26
ATOM     25  N   UNL     1       0.716   0.610   0.534  0.00  0.00    +0.000 N 
ATOM     26  C   UNL     1       2.051   0.434   0.337  0.00  0.00    +0.000 C 
ATOM     27  O   UNL     1       2.572   0.642  -0.758  0.00  0.00    +0.000 OA
ATOM     28  H   UNL     1       0.193   1.002  -0.240  0.00  0.00    +0.000 HD
ATOM     29  H   UNL     1       0.315   0.701   1.462  0.00  0.00    +0.000 HD
ENDBRANCH  17  26
ENDBRANCH  16  21
ENDBRANCH   1  16
TORSDOF 6
