REMARK  Name = 
REMARK  5 active torsions:
REMARK  status: ('A' for Active; 'I' for Inactive)
REMARK    1  A    between atoms: C_2  and  C_3
REMARK    2  A    between atoms: C_6  and  N_7
REMARK    3  A    between atoms: N_7  and  C_8
REMARK    4  A    between atoms: C_8  and  C_9
REMARK    5  A    between atoms: C_13  and  C_14
REMARK                            x       y       z     vdW  Elec       q    Type
REMARK                         _______ _______ _______ _____ _____    ______ ____
ROOT
ATOM      1  C   UNL     1       8.679  -0.975   0.155  0.00  0.00    +0.000 C 
ATOM      2  C   UNL     1       8.883  -1.583  -1.228  0.00  0.00    +0.000 C 
ATOM      3  C   UNL     1       8.936  -2.455  -0.018  0.00  0.00    +0.000 C 
ENDROOT
BRANCH   1   4
ATOM      4  C   UNL     1       9.764  -0.096   0.754  0.00  0.00    +0.000 A 
ATOM      5  C   UNL     1      10.343  -0.364   2.002  0.00  0.00    +0.000 A 
ATOM      6  C   UNL     1      11.163   0.573   2.628  0.00  0.00    +0.000 A 
ATOM      7  C   UNL     1      11.406   1.806   2.019  0.00  0.00    +0.000 A 
ATOM      8  C   UNL     1      10.862   2.118   0.764  0.00  0.00    +0.000 A 
ATOM      9  C   UNL     1      10.085   1.129   0.137  0.00  0.00    +0.000 A 
BRANCH   8  10
ATOM     10  C   UNL     1      11.000   3.462   0.161  0.00  0.00    +0.000 A 
ATOM     11  C   UNL     1      11.090   3.646  -1.231  0.00  0.00    +0.000 A 
ATOM     12  C   UNL     1      11.149   4.925  -1.794  0.00  0.00    +0.000 A 
ATOM     13  C   UNL     1      11.131   6.049  -0.975  0.00  0.00    +0.000 A 
ATOM     14  C   UNL     1      11.044   5.897   0.404  0.00  0.00    +0.000 A 
ATOM     15  C   UNL     1      10.975   4.618   0.963  0.00  0.00    +0.000 A 
ENDBRANCH   8  10
ENDBRANCH   1   4
BRANCH   1  16
ATOM     16  N   UNL     1       7.339  -0.375   0.299  0.00  0.00    +0.000 N 
ATOM     17  H   UNL     1       7.279   0.549  -0.127  0.00  0.00    +0.000 HD
BRANCH  16  21
ATOM     18  C   UNL     1       4.701  -0.657   3.452  0.00  0.00    +0.000 A 
ATOM     19  N   UNL     1       5.814  -1.415   3.541  0.00  0.00    +0.000 NA
ATOM     20  C   UNL     1       6.698  -1.289   2.520  0.00  0.00    +0.000 A 
ATOM     21  C   UNL     1       6.534  -0.439   1.444  0.00  0.00    +0.000 A 
ATOM     22  C   UNL     1       5.351   0.286   1.487  0.00  0.00    +0.000 A 
ATOM     23  N   UNL     1       4.428   0.216   2.463  0.00  0.00    +0.000 NA
BRANCH  18  25
ATOM     24  N   UNL     1       2.861  -0.953   5.271  0.00  0.00    +0.000 NA
ATOM     25  C   UNL     1       3.694  -0.817   4.468  0.00  0.00    +0.000 C 
ENDBRANCH  18  25
ENDBRANCH  16  21
ENDBRANCH   1  16
TORSDOF 5
