REMARK  Name = 
REMARK  10 active torsions:
REMARK  status: ('A' for Active; 'I' for Inactive)
REMARK    1  A    between atoms: C_1  and  O_2
REMARK    2  A    between atoms: O_2  and  C_3
REMARK    3  A    between atoms: C_10  and  C_11
REMARK    4  A    between atoms: N_13  and  C_14
REMARK    5  A    between atoms: C_14  and  C_15
REMARK    6  A    between atoms: C_18  and  O_19
REMARK    7  A    between atoms: O_19  and  C_20
REMARK    8  A    between atoms: C_20  and  C_21
REMARK    9  A    between atoms: C_21  and  O_22
REMARK   10  A    between atoms: C_21  and  C_23
REMARK                            x       y       z     vdW  Elec       q    Type
REMARK                         _______ _______ _______ _____ _____    ______ ____
ROOT
ATOM      1  C   UNL     1       1.779   1.547   3.125  0.00  0.00    +0.000 A 
ATOM      2  C   UNL     1       0.444   1.157   2.960  0.00  0.00    +0.000 A 
ATOM      3  C   UNL     1      -0.558   2.107   2.726  0.00  0.00    +0.000 A 
ATOM      4  C   UNL     1      -0.246   3.466   2.651  0.00  0.00    +0.000 A 
ATOM      5  C   UNL     1       1.085   3.859   2.803  0.00  0.00    +0.000 A 
ATOM      6  C   UNL     1       2.091   2.910   3.027  0.00  0.00    +0.000 A 
ENDROOT
BRANCH   1   7
ATOM      7  C   UNL     1       2.853   0.518   3.372  0.00  0.00    +0.000 C 
BRANCH   7  10
ATOM      8  C   UNL     1       4.399  -0.925   2.106  0.00  0.00    +0.000 C 
ATOM      9  O   UNL     1       4.841  -1.415   3.143  0.00  0.00    +0.000 OA
ATOM     10  N   UNL     1       3.421   0.034   2.137  0.00  0.00    +0.000 N 
ATOM     11  H   UNL     1       3.140   0.497   1.283  0.00  0.00    +0.000 HD
BRANCH   8  19
ATOM     12  C   UNL     1       3.555  -0.070  -1.116  0.00  0.00    +0.000 A 
ATOM     13  N   UNL     1       3.430   0.081  -2.450  0.00  0.00    +0.000 NA
ATOM     14  C   UNL     1       4.221  -0.639  -3.242  0.00  0.00    +0.000 A 
ATOM     15  N   UNL     1       5.145  -1.517  -2.859  0.00  0.00    +0.000 NA
ATOM     16  C   UNL     1       5.247  -1.629  -1.527  0.00  0.00    +0.000 A 
ATOM     17  S   UNL     1       6.372  -2.712  -0.859  0.00  0.00    +0.000 S 
ATOM     18  C   UNL     1       5.903  -2.303   0.724  0.00  0.00    +0.000 A 
ATOM     19  C   UNL     1       4.895  -1.345   0.785  0.00  0.00    +0.000 A 
ATOM     20  C   UNL     1       4.502  -0.948  -0.567  0.00  0.00    +0.000 A 
BRANCH  12  22
ATOM     21  C   UNL     1       1.518   1.034  -0.954  0.00  0.00    +0.000 C 
ATOM     22  O   UNL     1       2.745   0.701  -0.309  0.00  0.00    +0.000 OA
ENDBRANCH  12  22
ENDBRANCH   8  19
ENDBRANCH   7  10
ENDBRANCH   1   7
BRANCH   4  23
ATOM     23  O   UNL     1      -1.142   4.481   2.434  0.00  0.00    +0.000 OA
BRANCH  23  24
ATOM     24  C   UNL     1      -2.511   4.086   2.258  0.00  0.00    +0.000 C 
BRANCH  24  25
ATOM     25  C   UNL     1      -3.446   5.287   2.034  0.00  0.00    +0.000 C 
BRANCH  25  26
ATOM     26  C   UNL     1      -3.143   6.046   0.753  0.00  0.00    +0.000 A 
ATOM     27  C   UNL     1      -3.742   5.694  -0.459  0.00  0.00    +0.000 A 
ATOM     28  C   UNL     1      -3.440   6.432  -1.604  0.00  0.00    +0.000 A 
ATOM     29  C   UNL     1      -2.549   7.492  -1.516  0.00  0.00    +0.000 A 
ATOM     30  C   UNL     1      -1.998   7.776  -0.278  0.00  0.00    +0.000 A 
ATOM     31  N   UNL     1      -2.276   7.089   0.853  0.00  0.00    +0.000 NA
ENDBRANCH  25  26
BRANCH  25  32
ATOM     32  O   UNL     1      -3.380   6.161   3.171  0.00  0.00    +0.000 OA
ATOM     33  H   UNL     1      -2.701   6.822   2.926  0.00  0.00    +0.000 HD
ENDBRANCH  25  32
ENDBRANCH  24  25
ENDBRANCH  23  24
ENDBRANCH   4  23
TORSDOF 9
