REMARK  Name = 
REMARK  4 active torsions:
REMARK  status: ('A' for Active; 'I' for Inactive)
REMARK    1  A    between atoms: C_2  and  C_4
REMARK    2  A    between atoms: N_12  and  C_13
REMARK    3  A    between atoms: C_13  and  C_14
REMARK    4  A    between atoms: C_17  and  C_18
REMARK                            x       y       z     vdW  Elec       q    Type
REMARK                         _______ _______ _______ _____ _____    ______ ____
ROOT
ATOM      1  C   UNL     1       3.014   0.832  -0.923  0.00  0.00    +0.000 A 
ATOM      2  C   UNL     1       2.412   2.101  -0.956  0.00  0.00    +0.000 A 
ATOM      3  C   UNL     1       2.911   3.132  -1.763  0.00  0.00    +0.000 A 
ATOM      4  C   UNL     1       4.022   2.823  -2.553  0.00  0.00    +0.000 A 
ATOM      5  C   UNL     1       4.621   1.568  -2.556  0.00  0.00    +0.000 A 
ATOM      6  C   UNL     1       4.124   0.548  -1.733  0.00  0.00    +0.000 A 
ATOM      7  N   UNL     1       5.671   1.558  -3.434  0.00  0.00    +0.000 NA
ATOM      8  N   UNL     1       5.761   2.761  -3.983  0.00  0.00    +0.000 NA
ATOM      9  N   UNL     1       4.797   3.532  -3.438  0.00  0.00    +0.000 N 
ENDROOT
BRANCH   1  11
ATOM     10  N   UNL     1       3.262  -1.184   0.430  0.00  0.00    +0.000 N 
ATOM     11  C   UNL     1       2.425  -0.206  -0.036  0.00  0.00    +0.000 C 
ATOM     12  O   UNL     1       1.248  -0.169   0.297  0.00  0.00    +0.000 OA
ATOM     13  H   UNL     1       2.869  -1.826   1.107  0.00  0.00    +0.000 HD
ATOM     14  H   UNL     1       4.268  -1.119   0.373  0.00  0.00    +0.000 HD
ENDBRANCH   1  11
BRANCH   9  15
ATOM     15  C   UNL     1       4.732   4.945  -3.778  0.00  0.00    +0.000 C 
BRANCH  15  16
ATOM     16  C   UNL     1       5.498   5.770  -2.778  0.00  0.00    +0.000 A 
ATOM     17  C   UNL     1       6.877   5.602  -2.596  0.00  0.00    +0.000 A 
ATOM     18  C   UNL     1       7.527   6.268  -1.562  0.00  0.00    +0.000 A 
ATOM     19  C   UNL     1       6.774   7.102  -0.750  0.00  0.00    +0.000 A 
ATOM     20  N   UNL     1       5.448   7.356  -0.944  0.00  0.00    +0.000 NA
ATOM     21  C   UNL     1       4.850   6.687  -1.955  0.00  0.00    +0.000 A 
BRANCH  19  22
ATOM     22  C   UNL     1       7.400   7.704   0.469  0.00  0.00    +0.000 C 
ATOM     23  N   UNL     1       6.577   8.503   1.216  0.00  0.00    +0.000 N 
ATOM     24  O   UNL     1       8.555   7.475   0.803  0.00  0.00    +0.000 OA
ATOM     25  H   UNL     1       5.606   8.608   0.944  0.00  0.00    +0.000 HD
ATOM     26  H   UNL     1       6.903   8.854   2.104  0.00  0.00    +0.000 HD
ENDBRANCH  19  22
ENDBRANCH  15  16
ENDBRANCH   9  15
TORSDOF 4
