REMARK  Name = 
REMARK  7 active torsions:
REMARK  status: ('A' for Active; 'I' for Inactive)
REMARK    1  A    between atoms: C_2  and  C_3
REMARK    2  A    between atoms: C_6  and  N_7
REMARK    3  A    between atoms: N_7  and  C_8
REMARK    4  A    between atoms: C_8  and  C_9
REMARK    5  A    between atoms: C_9  and  C_12
REMARK    6  A    between atoms: C_16  and  N_17
REMARK    7  A    between atoms: N_17  and  C_18
REMARK                            x       y       z     vdW  Elec       q    Type
REMARK                         _______ _______ _______ _____ _____    ______ ____
ROOT
ATOM      1  C   UNL     1      -6.009   0.693  -0.160  0.00  0.00    +0.000 C 
ATOM      2  F   UNL     1      -6.688  -0.470   0.089  0.00  0.00    +0.000 F 
ATOM      3  F   UNL     1      -5.064   0.759   0.831  0.00  0.00    +0.000 F 
ENDROOT
BRANCH   1   4
ATOM      4  C   UNL     1      -6.914   1.909  -0.114  0.00  0.00    +0.000 A 
ATOM      5  C   UNL     1      -8.299   1.767   0.033  0.00  0.00    +0.000 A 
ATOM      6  C   UNL     1      -9.119   2.893   0.128  0.00  0.00    +0.000 A 
ATOM      7  C   UNL     1      -8.567   4.176   0.065  0.00  0.00    +0.000 A 
ATOM      8  C   UNL     1      -7.189   4.344  -0.075  0.00  0.00    +0.000 A 
ATOM      9  C   UNL     1      -6.375   3.206  -0.160  0.00  0.00    +0.000 A 
BRANCH   8  10
ATOM     10  N   UNL     1      -6.562   5.606  -0.148  0.00  0.00    +0.000 N 
ATOM     11  H   UNL     1      -5.864   5.682   0.592  0.00  0.00    +0.000 HD
BRANCH  10  12
ATOM     12  C   UNL     1      -7.199   6.864  -0.435  0.00  0.00    +0.000 C 
ATOM     13  C   UNL     1      -7.636   7.030  -1.899  0.00  0.00    +0.000 C 
ATOM     14  O   UNL     1      -6.854   8.246  -2.037  0.00  0.00    +0.000 OA
ATOM     15  C   UNL     1      -6.183   7.967  -0.783  0.00  0.00    +0.000 C 
ENDBRANCH  10  12
ENDBRANCH   8  10
ENDBRANCH   1   4
BRANCH   1  16
ATOM     16  C   UNL     1      -5.244   0.523  -1.501  0.00  0.00    +0.000 C 
BRANCH  16  17
ATOM     17  N   UNL     1      -6.109   0.296  -2.679  0.00  0.00    +0.000 N 
ATOM     18  H   UNL     1      -6.919   0.915  -2.701  0.00  0.00    +0.000 HD
BRANCH  17  22
ATOM     19  C   UNL     1      -4.555  -0.292  -6.506  0.00  0.00    +0.000 A 
ATOM     20  C   UNL     1      -3.749  -0.617  -5.423  0.00  0.00    +0.000 A 
ATOM     21  C   UNL     1      -4.244  -0.404  -4.132  0.00  0.00    +0.000 A 
ATOM     22  C   UNL     1      -5.515   0.142  -3.936  0.00  0.00    +0.000 A 
ATOM     23  C   UNL     1      -6.246   0.397  -5.101  0.00  0.00    +0.000 A 
ATOM     24  N   UNL     1      -5.799   0.214  -6.370  0.00  0.00    +0.000 NA
BRANCH  19  26
ATOM     25  N   UNL     1      -3.683  -0.688  -8.921  0.00  0.00    +0.000 NA
ATOM     26  C   UNL     1      -4.094  -0.502  -7.852  0.00  0.00    +0.000 C 
ENDBRANCH  19  26
ENDBRANCH  17  22
ENDBRANCH  16  17
ENDBRANCH   1  16
TORSDOF 7
