REMARK  Name = 
REMARK  12 active torsions:
REMARK  status: ('A' for Active; 'I' for Inactive)
REMARK    1  A    between atoms: C_1  and  C_2
REMARK    2  A    between atoms: C_2  and  C_3
REMARK    3  A    between atoms: C_2  and  C_4
REMARK    4  A    between atoms: C_2  and  C_5
REMARK    5  A    between atoms: C_9  and  C_10
REMARK    6  A    between atoms: C_10  and  O_12
REMARK    7  A    between atoms: N_16  and  C_17
REMARK    8  A    between atoms: C_17  and  C_18
REMARK    9  A    between atoms: C_21  and  O_22
REMARK   10  A    between atoms: O_22  and  C_23
REMARK   11  A    between atoms: C_23  and  C_24
REMARK   12  A    between atoms: C_24  and  N_25
REMARK                            x       y       z     vdW  Elec       q    Type
REMARK                         _______ _______ _______ _____ _____    ______ ____
ROOT
ATOM      1  C   UNL     1       2.939  -1.388   0.389  0.00  0.00    +0.000 A 
ATOM      2  N   UNL     1       3.979  -1.663   1.159  0.00  0.00    +0.000 NA
ATOM      3  C   UNL     1       4.119  -3.022   1.173  0.00  0.00    +0.000 A 
ATOM      4  C   UNL     1       5.055  -3.811   1.872  0.00  0.00    +0.000 A 
ATOM      5  C   UNL     1       5.014  -5.208   1.726  0.00  0.00    +0.000 A 
ATOM      6  C   UNL     1       4.080  -5.796   0.879  0.00  0.00    +0.000 A 
ATOM      7  C   UNL     1       3.154  -5.016   0.181  0.00  0.00    +0.000 A 
ATOM      8  C   UNL     1       3.161  -3.623   0.361  0.00  0.00    +0.000 A 
ATOM      9  N   UNL     1       2.359  -2.573  -0.068  0.00  0.00    +0.000 N 
ENDROOT
BRANCH   1  11
ATOM     10  C   UNL     1       3.416   1.063   0.742  0.00  0.00    +0.000 C 
ATOM     11  C   UNL     1       2.469   0.035   0.071  0.00  0.00    +0.000 C 
ATOM     12  C   UNL     1       1.062   0.313   0.633  0.00  0.00    +0.000 C 
ATOM     13  C   UNL     1       2.542   0.309  -1.445  0.00  0.00    +0.000 C 
ENDBRANCH   1  11
BRANCH   5  14
ATOM     14  C   UNL     1       5.908  -6.120   2.477  0.00  0.00    +0.000 C 
ATOM     15  O   UNL     1       5.566  -7.234   2.840  0.00  0.00    +0.000 OA
BRANCH  14  16
ATOM     16  O   UNL     1       7.151  -5.629   2.664  0.00  0.00    +0.000 OA
ATOM     17  H   UNL     1       7.348  -4.805   2.181  0.00  0.00    +0.000 HD
ENDBRANCH  14  16
ENDBRANCH   5  14
BRANCH   9  18
ATOM     18  C   UNL     1       1.016  -2.665  -0.652  0.00  0.00    +0.000 C 
BRANCH  18  19
ATOM     19  C   UNL     1       0.777  -3.838  -1.555  0.00  0.00    +0.000 A 
ATOM     20  C   UNL     1       0.120  -4.957  -1.038  0.00  0.00    +0.000 A 
ATOM     21  C   UNL     1       0.102  -6.143  -1.759  0.00  0.00    +0.000 A 
ATOM     22  C   UNL     1       0.701  -6.220  -3.021  0.00  0.00    +0.000 A 
ATOM     23  C   UNL     1       1.229  -5.063  -3.597  0.00  0.00    +0.000 A 
ATOM     24  C   UNL     1       1.274  -3.873  -2.866  0.00  0.00    +0.000 A 
BRANCH  22  25
ATOM     25  O   UNL     1       0.854  -7.384  -3.737  0.00  0.00    +0.000 OA
BRANCH  25  26
ATOM     26  C   UNL     1       0.568  -8.565  -2.979  0.00  0.00    +0.000 C 
BRANCH  26  27
ATOM     27  C   UNL     1       0.876  -9.833  -3.771  0.00  0.00    +0.000 C 
BRANCH  27  28
ATOM     28  N   UNL     1       0.498 -11.015  -2.991  0.00  0.00    +0.000 NA
ATOM     29  H   UNL     1       1.042 -11.050  -2.129  0.00  0.00    +0.000 HD
ATOM     30  H   UNL     1       0.725 -11.858  -3.512  0.00  0.00    +0.000 HD
ENDBRANCH  27  28
ENDBRANCH  26  27
ENDBRANCH  25  26
ENDBRANCH  22  25
ENDBRANCH  18  19
ENDBRANCH   9  18
TORSDOF 9
