REMARK  Name = 
REMARK  8 active torsions:
REMARK  status: ('A' for Active; 'I' for Inactive)
REMARK    1  A    between atoms: C_1  and  O_2
REMARK    2  A    between atoms: O_2  and  C_3
REMARK    3  A    between atoms: C_5  and  C_6
REMARK    4  A    between atoms: C_6  and  N_7
REMARK    5  A    between atoms: C_8  and  C_10
REMARK    6  A    between atoms: C_22  and  C_23
REMARK    7  A    between atoms: C_23  and  O_24
REMARK    8  A    between atoms: O_24  and  C_25
REMARK                            x       y       z     vdW  Elec       q    Type
REMARK                         _______ _______ _______ _____ _____    ______ ____
ROOT
ATOM      1  C   UNL     1       2.934  -1.050  -0.473  0.00  0.00    +0.000 A 
ATOM      2  C   UNL     1       2.680  -1.705  -1.681  0.00  0.00    +0.000 A 
ATOM      3  C   UNL     1       3.417  -2.835  -2.044  0.00  0.00    +0.000 A 
ATOM      4  C   UNL     1       4.386  -3.277  -1.157  0.00  0.00    +0.000 A 
ATOM      5  N   UNL     1       4.680  -2.661   0.008  0.00  0.00    +0.000 NA
ATOM      6  C   UNL     1       3.961  -1.548   0.339  0.00  0.00    +0.000 A 
ENDROOT
BRANCH   1   8
ATOM      7  C   UNL     1       1.006   0.309  -0.686  0.00  0.00    +0.000 C 
ATOM      8  O   UNL     1       2.262   0.067  -0.056  0.00  0.00    +0.000 OA
ENDBRANCH   1   8
BRANCH   3   9
ATOM      9  C   UNL     1       3.137  -3.551  -3.330  0.00  0.00    +0.000 C 
BRANCH   9  10
ATOM     10  N   UNL     1       2.139  -4.577  -3.159  0.00  0.00    +0.000 N 
ATOM     11  C   UNL     1       0.820  -4.393  -3.473  0.00  0.00    +0.000 C 
ATOM     12  O   UNL     1       0.392  -3.332  -3.917  0.00  0.00    +0.000 OA
ATOM     13  H   UNL     1       2.414  -5.391  -2.617  0.00  0.00    +0.000 HD
BRANCH  11  14
ATOM     14  C   UNL     1      -0.057  -5.564  -3.316  0.00  0.00    +0.000 A 
ATOM     15  C   UNL     1      -1.251  -5.626  -4.021  0.00  0.00    +0.000 A 
ATOM     16  S   UNL     1      -2.125  -7.067  -3.766  0.00  0.00    +0.000 S 
ATOM     17  C   UNL     1      -0.963  -7.642  -2.666  0.00  0.00    +0.000 A 
ATOM     18  N   UNL     1      -1.122  -8.842  -2.045  0.00  0.00    +0.000 NA
ATOM     19  C   UNL     1      -0.188  -9.139  -1.209  0.00  0.00    +0.000 A 
ATOM     20  N   UNL     1       0.900  -8.346  -0.939  0.00  0.00    +0.000 N 
ATOM     21  C   UNL     1       1.138  -7.162  -1.594  0.00  0.00    +0.000 A 
ATOM     22  O   UNL     1       2.181  -6.538  -1.423  0.00  0.00    +0.000 OA
ATOM     23  C   UNL     1       0.091  -6.759  -2.515  0.00  0.00    +0.000 A 
ATOM     24  H   UNL     1       1.612  -8.650  -0.290  0.00  0.00    +0.000 HD
ENDBRANCH  11  14
ENDBRANCH   9  10
ENDBRANCH   3   9
BRANCH   6  25
ATOM     25  C   UNL     1       4.333  -0.877   1.648  0.00  0.00    +0.000 C 
BRANCH  25  26
ATOM     26  O   UNL     1       3.541  -1.409   2.716  0.00  0.00    +0.000 OA
BRANCH  26  27
ATOM     27  C   UNL     1       3.918  -0.916   3.951  0.00  0.00    +0.000 A 
ATOM     28  C   UNL     1       3.228  -1.405   5.051  0.00  0.00    +0.000 A 
ATOM     29  C   UNL     1       3.576  -0.932   6.314  0.00  0.00    +0.000 A 
ATOM     30  C   UNL     1       4.594   0.005   6.435  0.00  0.00    +0.000 A 
ATOM     31  C   UNL     1       5.229   0.433   5.278  0.00  0.00    +0.000 A 
ATOM     32  N   UNL     1       4.910  -0.003   4.040  0.00  0.00    +0.000 NA
ENDBRANCH  26  27
ENDBRANCH  25  26
ENDBRANCH   6  25
TORSDOF 7
