REMARK  Name = 
REMARK  3 active torsions:
REMARK  status: ('A' for Active; 'I' for Inactive)
REMARK    1  A    between atoms: C_2  and  C_4
REMARK    2  A    between atoms: N_8  and  C_9
REMARK    3  A    between atoms: C_9  and  C_10
REMARK                            x       y       z     vdW  Elec       q    Type
REMARK                         _______ _______ _______ _____ _____    ______ ____
ROOT
ATOM      1  C   UNL     1       8.431  -1.906  -3.000  0.00  0.00    +0.000 A 
ATOM      2  C   UNL     1       8.209  -3.046  -3.732  0.00  0.00    +0.000 A 
ATOM      3  N   UNL     1       7.050  -3.739  -3.666  0.00  0.00    +0.000 NA
ATOM      4  C   UNL     1       6.110  -3.265  -2.825  0.00  0.00    +0.000 A 
ATOM      5  N   UNL     1       4.871  -3.895  -2.740  0.00  0.00    +0.000 N 
ATOM      6  N   UNL     1       6.306  -2.155  -2.072  0.00  0.00    +0.000 NA
ATOM      7  N   UNL     1       7.483  -1.453  -2.159  0.00  0.00    +0.000 NA
ATOM      8  H   UNL     1       4.211  -3.361  -2.194  0.00  0.00    +0.000 HD
ENDROOT
BRANCH   1  10
ATOM      9  N   UNL     1       9.803  -0.016  -2.364  0.00  0.00    +0.000 N 
ATOM     10  C   UNL     1       9.687  -1.141  -3.134  0.00  0.00    +0.000 C 
ATOM     11  O   UNL     1      10.573  -1.486  -3.906  0.00  0.00    +0.000 OA
ATOM     12  H   UNL     1      10.640   0.547  -2.441  0.00  0.00    +0.000 HD
ATOM     13  H   UNL     1       9.065   0.273  -1.732  0.00  0.00    +0.000 HD
ENDBRANCH   1  10
BRANCH   5  14
ATOM     14  C   UNL     1       4.419  -4.822  -3.787  0.00  0.00    +0.000 C 
ATOM     15  C   UNL     1       4.187  -4.282  -5.191  0.00  0.00    +0.000 C 
ATOM     16  C   UNL     1       3.013  -4.643  -4.342  0.00  0.00    +0.000 C 
BRANCH  14  17
ATOM     17  C   UNL     1       4.920  -6.261  -3.601  0.00  0.00    +0.000 A 
ATOM     18  C   UNL     1       6.061  -6.718  -4.276  0.00  0.00    +0.000 A 
ATOM     19  C   UNL     1       6.569  -7.990  -4.019  0.00  0.00    +0.000 A 
ATOM     20  C   UNL     1       5.922  -8.786  -3.095  0.00  0.00    +0.000 A 
ATOM     21  F   UNL     1       6.395 -10.004  -2.802  0.00  0.00    +0.000 F 
ATOM     22  C   UNL     1       4.788  -8.299  -2.477  0.00  0.00    +0.000 A 
ATOM     23  N   UNL     1       4.271  -7.066  -2.711  0.00  0.00    +0.000 NA
ENDBRANCH  14  17
ENDBRANCH   5  14
TORSDOF 3
