REMARK  Name = 
REMARK  8 active torsions:
REMARK  status: ('A' for Active; 'I' for Inactive)
REMARK    1  A    between atoms: N_1  and  C_2
REMARK    2  A    between atoms: C_2  and  C_3
REMARK    3  A    between atoms: C_3  and  C_4
REMARK    4  A    between atoms: C_7  and  C_8
REMARK    5  A    between atoms: C_8  and  O_9
REMARK    6  A    between atoms: O_9  and  C_10
REMARK    7  A    between atoms: CA_13  and  C_14
REMARK    8  A    between atoms: C_14  and  OXT_16
REMARK                            x       y       z     vdW  Elec       q    Type
REMARK                         _______ _______ _______ _____ _____    ______ ____
ROOT
ATOM      1  C   UNL     1       8.876  -1.133   0.891  0.00  0.00    +0.000 C 
ENDROOT
BRANCH   1   5
ATOM      2  C   UNL     1       4.544  -1.151   0.672  0.00  0.00    +0.000 A 
ATOM      3  C   UNL     1       5.251   0.057   0.738  0.00  0.00    +0.000 A 
ATOM      4  C   UNL     1       6.647   0.064   0.822  0.00  0.00    +0.000 A 
ATOM      5  C   UNL     1       7.366  -1.137   0.846  0.00  0.00    +0.000 A 
ATOM      6  C   UNL     1       6.660  -2.345   0.809  0.00  0.00    +0.000 A 
ATOM      7  C   UNL     1       5.264  -2.352   0.719  0.00  0.00    +0.000 A 
BRANCH   2   8
ATOM      8  C   UNL     1       3.032  -1.173   0.609  0.00  0.00    +0.000 C 
BRANCH   8   9
ATOM      9  C   UNL     1       2.450  -0.443  -0.610  0.00  0.00    +0.000 C 
BRANCH   9  10
ATOM     10  N   UNL     1       0.988  -0.511  -0.616  0.00  0.00    +0.000 NA
ATOM     11  H   UNL     1       0.630   0.003  -1.421  0.00  0.00    +0.000 HD
ATOM     12  H   UNL     1       0.618  -0.039   0.209  0.00  0.00    +0.000 HD
ENDBRANCH   9  10
ENDBRANCH   8   9
ENDBRANCH   2   8
ENDBRANCH   1   5
BRANCH   1  13
ATOM     13  O   UNL     1       9.330  -1.109   2.248  0.00  0.00    +0.000 OA
BRANCH  13  14
ATOM     14  C   UNL     1      10.704  -1.201   2.330  0.00  0.00    +0.000 A 
ATOM     15  C   UNL     1      11.301  -1.179   3.589  0.00  0.00    +0.000 A 
ATOM     16  N   UNL     1      12.647  -1.291   3.773  0.00  0.00    +0.000 NA
ATOM     17  CA  UNL     1      13.361  -1.429   2.615  0.00  0.00    +0.000 A 
ATOM     18  C   UNL     1      12.774  -1.445   1.362  0.00  0.00    +0.000 A 
ATOM     19  N   UNL     1      11.435  -1.327   1.196  0.00  0.00    +0.000 NA
BRANCH  17  20
ATOM     20  C   UNL     1      14.831  -1.579   2.738  0.00  0.00    +0.000 C 
ATOM     21  O   UNL     1      15.591  -1.720   1.799  0.00  0.00    +0.000 OA
BRANCH  20  22
ATOM     22  OXT UNL     1      15.212  -1.544   4.036  0.00  0.00    +0.000 OA
ATOM     23  HXT UNL     1      14.415  -1.425   4.607  0.00  0.00    +0.000 HD
ENDBRANCH  20  22
ENDBRANCH  17  20
ENDBRANCH  13  14
ENDBRANCH   1  13
TORSDOF 8
