REMARK  Name = 
REMARK  5 active torsions:
REMARK  status: ('A' for Active; 'I' for Inactive)
REMARK    1  A    between atoms: N_1  and  C_2
REMARK    2  A    between atoms: C_2  and  C_3
REMARK    3  A    between atoms: N_6  and  C_7
REMARK    4  A    between atoms: C_7  and  C_8
REMARK    5  A    between atoms: C_14  and  C_15
REMARK                            x       y       z     vdW  Elec       q    Type
REMARK                         _______ _______ _______ _____ _____    ______ ____
ROOT
ATOM      1  C   UNL     1       5.955  -3.308  -2.923  0.00  0.00    +0.000 A 
ATOM      2  C   UNL     1       6.933  -4.142  -2.398  0.00  0.00    +0.000 A 
ATOM      3  N   UNL     1       8.100  -3.938  -3.093  0.00  0.00    +0.000 N 
ATOM      4  C   UNL     1       7.892  -3.017  -4.080  0.00  0.00    +0.000 A 
ATOM      5  N   UNL     1       8.806  -2.621  -4.991  0.00  0.00    +0.000 NA
ATOM      6  C   UNL     1       8.264  -1.733  -5.865  0.00  0.00    +0.000 A 
ATOM      7  C   UNL     1       6.951  -1.279  -5.796  0.00  0.00    +0.000 A 
ATOM      8  N   UNL     1       6.046  -1.671  -4.849  0.00  0.00    +0.000 NA
ATOM      9  C   UNL     1       6.568  -2.591  -3.989  0.00  0.00    +0.000 A 
ATOM     10  H   UNL     1       8.979  -4.411  -2.939  0.00  0.00    +0.000 HD
ENDROOT
BRANCH   7  11
ATOM     11  C   UNL     1       6.454  -0.337  -6.840  0.00  0.00    +0.000 C 
ATOM     12  N   UNL     1       5.175   0.122  -6.666  0.00  0.00    +0.000 N 
ATOM     13  O   UNL     1       7.135  -0.001  -7.800  0.00  0.00    +0.000 OA
ATOM     14  H   UNL     1       4.621  -0.204  -5.881  0.00  0.00    +0.000 HD
ATOM     15  H   UNL     1       4.757   0.707  -7.376  0.00  0.00    +0.000 HD
ENDBRANCH   7  11
BRANCH   1  16
ATOM     16  C   UNL     1       4.520  -3.209  -2.515  0.00  0.00    +0.000 C 
BRANCH  16  20
ATOM     17  C   UNL     1       3.140  -0.987   0.896  0.00  0.00    +0.000 C 
ATOM     18  C   UNL     1       4.642  -1.001   0.589  0.00  0.00    +0.000 C 
ATOM     19  C   UNL     1       4.937  -1.507  -0.826  0.00  0.00    +0.000 C 
ATOM     20  N   UNL     1       4.364  -2.837  -1.091  0.00  0.00    +0.000 NA
ATOM     21  C   UNL     1       2.926  -2.905  -0.752  0.00  0.00    +0.000 C 
ATOM     22  C   UNL     1       2.604  -2.405   0.659  0.00  0.00    +0.000 C 
BRANCH  17  23
ATOM     23  C   UNL     1       2.421   0.098   0.067  0.00  0.00    +0.000 C 
BRANCH  23  24
ATOM     24  N   UNL     1       0.992   0.157   0.356  0.00  0.00    +0.000 NA
ATOM     25  H   UNL     1       0.575   0.925  -0.170  0.00  0.00    +0.000 HD
ATOM     26  H   UNL     1       0.851   0.379   1.341  0.00  0.00    +0.000 HD
ENDBRANCH  23  24
ENDBRANCH  17  23
ENDBRANCH  16  20
ENDBRANCH   1  16
TORSDOF 5
