REMARK  Name = 
REMARK  3 active torsions:
REMARK  status: ('A' for Active; 'I' for Inactive)
REMARK    1  A    between atoms: C_2  and  C_4
REMARK    2  A    between atoms: N_8  and  C_9
REMARK    3  A    between atoms: C_9  and  C_10
REMARK                            x       y       z     vdW  Elec       q    Type
REMARK                         _______ _______ _______ _____ _____    ______ ____
ROOT
ATOM      1  C   UNL     1       2.524  -1.456   2.136  0.00  0.00    +0.000 A 
ATOM      2  C   UNL     1       3.603  -1.068   1.350  0.00  0.00    +0.000 A 
ATOM      3  C   UNL     1       4.627  -1.984   1.122  0.00  0.00    +0.000 A 
ATOM      4  C   UNL     1       4.560  -3.268   1.673  0.00  0.00    +0.000 A 
ATOM      5  N   UNL     1       5.620  -4.143   1.353  0.00  0.00    +0.000 N 
ATOM      6  N   UNL     1       3.513  -3.653   2.429  0.00  0.00    +0.000 NA
ATOM      7  C   UNL     1       2.534  -2.739   2.665  0.00  0.00    +0.000 A 
ATOM      8  H   UNL     1       6.506  -3.698   1.571  0.00  0.00    +0.000 HD
ENDROOT
BRANCH   1  10
ATOM      9  N   UNL     1       1.116   0.433   1.536  0.00  0.00    +0.000 N 
ATOM     10  C   UNL     1       1.398  -0.547   2.443  0.00  0.00    +0.000 C 
ATOM     11  O   UNL     1       0.724  -0.690   3.458  0.00  0.00    +0.000 OA
ATOM     12  H   UNL     1       0.283   0.983   1.717  0.00  0.00    +0.000 HD
ATOM     13  H   UNL     1       1.472   0.426   0.592  0.00  0.00    +0.000 HD
ENDBRANCH   1  10
BRANCH   5  14
ATOM     14  C   UNL     1       5.562  -5.606   1.561  0.00  0.00    +0.000 C 
ATOM     15  C   UNL     1       5.645  -6.389   0.255  0.00  0.00    +0.000 C 
ATOM     16  C   UNL     1       4.399  -6.448   1.074  0.00  0.00    +0.000 C 
BRANCH  14  17
ATOM     17  C   UNL     1       6.312  -6.163   2.777  0.00  0.00    +0.000 C 
ATOM     18  C   UNL     1       5.736  -5.627   4.095  0.00  0.00    +0.000 C 
ATOM     19  C   UNL     1       6.436  -6.262   5.294  0.00  0.00    +0.000 C 
ATOM     20  C   UNL     1       7.946  -6.047   5.237  0.00  0.00    +0.000 C 
ATOM     21  C   UNL     1       8.539  -6.526   3.915  0.00  0.00    +0.000 C 
ATOM     22  C   UNL     1       7.825  -5.910   2.710  0.00  0.00    +0.000 C 
ENDBRANCH  14  17
ENDBRANCH   5  14
TORSDOF 3
