REMARK  Name = 
REMARK  10 active torsions:
REMARK  status: ('A' for Active; 'I' for Inactive)
REMARK    1  A    between atoms: C_1  and  O_2
REMARK    2  A    between atoms: O_2  and  C_3
REMARK    3  A    between atoms: C_9  and  C_10
REMARK    4  A    between atoms: C_10  and  C_11
REMARK    5  A    between atoms: C_14  and  C_15
REMARK    6  A    between atoms: C_15  and  N_16
REMARK    7  A    between atoms: C_15  and  C_17
REMARK    8  A    between atoms: C_17  and  C_18
REMARK    9  A    between atoms: C_18  and  C_19
REMARK   10  A    between atoms: C_18  and  C_20
REMARK                            x       y       z     vdW  Elec       q    Type
REMARK                         _______ _______ _______ _____ _____    ______ ____
ROOT
ATOM      1  C   UNL     1       2.109   4.136   2.883  0.00  0.00    +0.000 C 
ATOM      2  C   UNL     1       3.582   3.813   3.127  0.00  0.00    +0.000 C 
ATOM      3  C   UNL     1       3.812   2.397   3.647  0.00  0.00    +0.000 C 
ATOM      4  C   UNL     1       3.237   1.309   2.722  0.00  0.00    +0.000 C 
ATOM      5  C   UNL     1       1.789   1.599   2.302  0.00  0.00    +0.000 C 
ATOM      6  C   UNL     1       1.325   3.043   2.158  0.00  0.00    +0.000 C 
ENDROOT
BRANCH   1   7
ATOM      7  C   UNL     1       1.884   5.513   2.202  0.00  0.00    +0.000 C 
BRANCH   7  14
ATOM      8  C   UNL     1       0.398   5.481  -2.299  0.00  0.00    +0.000 A 
ATOM      9  C   UNL     1       1.379   5.942  -3.179  0.00  0.00    +0.000 A 
ATOM     10  C   UNL     1       2.669   6.240  -2.722  0.00  0.00    +0.000 A 
ATOM     11  C   UNL     1       2.932   6.107  -1.361  0.00  0.00    +0.000 A 
ATOM     12  N   UNL     1       4.067   6.369  -0.645  0.00  0.00    +0.000 N 
ATOM     13  C   UNL     1       3.850   6.200   0.689  0.00  0.00    +0.000 A 
ATOM     14  C   UNL     1       2.552   5.743   0.871  0.00  0.00    +0.000 A 
ATOM     15  C   UNL     1       1.976   5.665  -0.443  0.00  0.00    +0.000 A 
ATOM     16  C   UNL     1       0.701   5.310  -0.940  0.00  0.00    +0.000 A 
ATOM     17  H   UNL     1       4.935   6.701  -1.071  0.00  0.00    +0.000 HD
BRANCH   8  19
ATOM     18  C   UNL     1      -1.293   5.355  -3.982  0.00  0.00    +0.000 C 
ATOM     19  O   UNL     1      -0.902   5.192  -2.625  0.00  0.00    +0.000 OA
ENDBRANCH   8  19
ENDBRANCH   7  14
ENDBRANCH   1   7
BRANCH   4  20
ATOM     20  C   UNL     1       3.361  -0.129   3.361  0.00  0.00    +0.000 C 
BRANCH  20  21
ATOM     21  N   UNL     1       4.778  -0.431   3.581  0.00  0.00    +0.000 NA
ATOM     22  H   UNL     1       5.274  -0.410   2.691  0.00  0.00    +0.000 HD
ATOM     23  H   UNL     1       4.887  -1.372   3.952  0.00  0.00    +0.000 HD
ENDBRANCH  20  21
BRANCH  20  24
ATOM     24  C   UNL     1       2.687  -1.223   2.491  0.00  0.00    +0.000 C 
BRANCH  24  25
ATOM     25  C   UNL     1       2.751  -2.701   2.954  0.00  0.00    +0.000 C 
ATOM     26  C   UNL     1       2.099  -2.982   4.310  0.00  0.00    +0.000 C 
ATOM     27  C   UNL     1       2.054  -3.568   1.892  0.00  0.00    +0.000 C 
ENDBRANCH  24  25
ENDBRANCH  20  24
ENDBRANCH   4  20
TORSDOF 7
