REMARK  Name = 
REMARK  9 active torsions:
REMARK  status: ('A' for Active; 'I' for Inactive)
REMARK    1  A    between atoms: C_2  and  C_22
REMARK    2  A    between atoms: N_3  and  CA_4
REMARK    3  A    between atoms: CA_4  and  C_5
REMARK    4  A    between atoms: CA_4  and  C_7
REMARK    5  A    between atoms: C_5  and  O_6
REMARK    6  A    between atoms: C_10  and  C_11
REMARK    7  A    between atoms: C_11  and  N_12
REMARK    8  A    between atoms: N_12  and  C_13
REMARK    9  A    between atoms: C_13  and  C_14
REMARK                            x       y       z     vdW  Elec       q    Type
REMARK                         _______ _______ _______ _____ _____    ______ ____
ROOT
ATOM      1  CA  UNL     1       2.203   2.496  -0.610  0.00  0.00    +0.000 C 
ENDROOT
BRANCH   1   2
ATOM      2  C   UNL     1       3.162   3.517  -1.188  0.00  0.00    +0.000 A 
ATOM      3  C   UNL     1       2.735   4.844  -1.335  0.00  0.00    +0.000 A 
ATOM      4  C   UNL     1       3.644   5.850  -1.648  0.00  0.00    +0.000 A 
ATOM      5  C   UNL     1       4.980   5.512  -1.826  0.00  0.00    +0.000 A 
ATOM      6  N   UNL     1       5.405   4.225  -1.780  0.00  0.00    +0.000 NA
ATOM      7  C   UNL     1       4.497   3.266  -1.477  0.00  0.00    +0.000 A 
BRANCH   5   8
ATOM      8  C   UNL     1       6.032   6.595  -1.993  0.00  0.00    +0.000 C 
BRANCH   8   9
ATOM      9  N   UNL     1       6.754   6.478  -3.262  0.00  0.00    +0.000 NA
ATOM     10  H   UNL     1       6.092   6.560  -4.030  0.00  0.00    +0.000 HD
BRANCH   9  11
ATOM     11  C   UNL     1       7.777   7.518  -3.396  0.00  0.00    +0.000 C 
BRANCH  11  12
ATOM     12  C   UNL     1       8.507   7.416  -4.723  0.00  0.00    +0.000 A 
ATOM     13  C   UNL     1       9.207   6.255  -5.054  0.00  0.00    +0.000 A 
ATOM     14  C   UNL     1       9.849   6.182  -6.287  0.00  0.00    +0.000 A 
ATOM     15  C   UNL     1       9.782   7.268  -7.152  0.00  0.00    +0.000 A 
ATOM     16  C   UNL     1       9.071   8.384  -6.746  0.00  0.00    +0.000 A 
ATOM     17  N   UNL     1       8.433   8.483  -5.558  0.00  0.00    +0.000 NA
ENDBRANCH  11  12
ENDBRANCH   9  11
ENDBRANCH   8   9
ENDBRANCH   5   8
ENDBRANCH   1   2
BRANCH   1  20
ATOM     18  O   UNL     1       0.409   4.123   0.911  0.00  0.00    +0.000 OA
ATOM     19  C   UNL     1       1.229   3.426   1.501  0.00  0.00    +0.000 C 
ATOM     20  N   UNL     1       2.150   2.651   0.843  0.00  0.00    +0.000 N 
ATOM     21  H   UNL     1       2.866   2.174   1.382  0.00  0.00    +0.000 HD
BRANCH  19  22
ATOM     22  C   UNL     1       1.277   3.378   2.964  0.00  0.00    +0.000 A 
ATOM     23  C   UNL     1       0.883   4.462   3.732  0.00  0.00    +0.000 A 
ATOM     24  S   UNL     1       0.921   4.158   5.411  0.00  0.00    +0.000 S 
ATOM     25  C   UNL     1       1.428   2.552   5.168  0.00  0.00    +0.000 A 
ATOM     26  N   UNL     1       1.585   1.699   6.214  0.00  0.00    +0.000 NA
ATOM     27  C   UNL     1       1.922   0.494   5.876  0.00  0.00    +0.000 A 
ATOM     28  N   UNL     1       2.138   0.079   4.586  0.00  0.00    +0.000 N 
ATOM     29  C   UNL     1       2.095   0.933   3.510  0.00  0.00    +0.000 A 
ATOM     30  O   UNL     1       2.479   0.572   2.399  0.00  0.00    +0.000 OA
ATOM     31  C   UNL     1       1.633   2.273   3.831  0.00  0.00    +0.000 A 
ATOM     32  H   UNL     1       2.455  -0.861   4.401  0.00  0.00    +0.000 HD
ENDBRANCH  19  22
ENDBRANCH   1  20
BRANCH   1  33
ATOM     33  C   UNL     1       2.432   1.012  -0.989  0.00  0.00    +0.000 C 
BRANCH  33  34
ATOM     34  O   UNL     1       3.702   0.499  -0.587  0.00  0.00    +0.000 OA
ATOM     35  H   UNL     1       3.643   0.271   0.355  0.00  0.00    +0.000 HD
ENDBRANCH  33  34
ENDBRANCH   1  33
TORSDOF 9
