REMARK  Name = 
REMARK  4 active torsions:
REMARK  status: ('A' for Active; 'I' for Inactive)
REMARK    1  A    between atoms: C_2  and  C_4
REMARK    2  A    between atoms: N_8  and  C_9
REMARK    3  A    between atoms: C_9  and  C_10
REMARK    4  A    between atoms: C_14  and  C_15
REMARK                            x       y       z     vdW  Elec       q    Type
REMARK                         _______ _______ _______ _____ _____    ______ ____
ROOT
ATOM      1  C   UNL     1       4.960   2.114  -5.687  0.00  0.00    +0.000 C 
ENDROOT
BRANCH   1   6
ATOM      2  C   UNL     1       0.456   0.702  -7.715  0.00  0.00    +0.000 A 
ATOM      3  C   UNL     1       1.329  -0.040  -6.927  0.00  0.00    +0.000 A 
ATOM      4  C   UNL     1       2.431   0.592  -6.354  0.00  0.00    +0.000 A 
ATOM      5  C   UNL     1       2.659   1.944  -6.594  0.00  0.00    +0.000 A 
ATOM      6  N   UNL     1       3.656   2.671  -5.985  0.00  0.00    +0.000 N 
ATOM      7  N   UNL     1       1.828   2.665  -7.378  0.00  0.00    +0.000 NA
ATOM      8  C   UNL     1       0.758   2.037  -7.929  0.00  0.00    +0.000 A 
ATOM      9  H   UNL     1       3.661   3.597  -6.404  0.00  0.00    +0.000 HD
BRANCH   2  11
ATOM     10  N   UNL     1      -1.332  -0.936  -7.668  0.00  0.00    +0.000 N 
ATOM     11  C   UNL     1      -0.765   0.128  -8.315  0.00  0.00    +0.000 C 
ATOM     12  O   UNL     1      -1.271   0.605  -9.321  0.00  0.00    +0.000 OA
ATOM     13  H   UNL     1      -2.226  -1.249  -8.024  0.00  0.00    +0.000 HD
ATOM     14  H   UNL     1      -1.099  -1.181  -6.717  0.00  0.00    +0.000 HD
ENDBRANCH   2  11
ENDBRANCH   1   6
BRANCH   1  15
ATOM     15  C   UNL     1       5.911   2.181  -6.858  0.00  0.00    +0.000 A 
ATOM     16  C   UNL     1       6.293   3.413  -7.403  0.00  0.00    +0.000 A 
ATOM     17  C   UNL     1       7.236   3.465  -8.427  0.00  0.00    +0.000 A 
ATOM     18  C   UNL     1       7.826   2.290  -8.899  0.00  0.00    +0.000 A 
ATOM     19  C   UNL     1       7.501   1.035  -8.353  0.00  0.00    +0.000 A 
ATOM     20  C   UNL     1       6.510   1.008  -7.351  0.00  0.00    +0.000 A 
BRANCH  19  21
ATOM     21  C   UNL     1       8.240  -0.195  -8.733  0.00  0.00    +0.000 A 
ATOM     22  C   UNL     1       9.619  -0.148  -9.029  0.00  0.00    +0.000 A 
ATOM     23  C   UNL     1      10.360  -1.308  -9.281  0.00  0.00    +0.000 A 
ATOM     24  C   UNL     1       9.738  -2.550  -9.237  0.00  0.00    +0.000 A 
ATOM     25  C   UNL     1       8.378  -2.614  -8.968  0.00  0.00    +0.000 A 
ATOM     26  F   UNL     1       7.776  -3.810  -8.912  0.00  0.00    +0.000 F 
ATOM     27  C   UNL     1       7.630  -1.461  -8.732  0.00  0.00    +0.000 A 
ENDBRANCH  19  21
ENDBRANCH   1  15
TORSDOF 4
