REMARK  Name = 
REMARK  7 active torsions:
REMARK  status: ('A' for Active; 'I' for Inactive)
REMARK    1  A    between atoms: C_2  and  C_4
REMARK    2  A    between atoms: C_7  and  O_8
REMARK    3  A    between atoms: O_8  and  C_9
REMARK    4  A    between atoms: C_9  and  C_10
REMARK    5  A    between atoms: C_10  and  C_13
REMARK    6  A    between atoms: C_17  and  N_18
REMARK    7  A    between atoms: N_18  and  C_19
REMARK                            x       y       z     vdW  Elec       q    Type
REMARK                         _______ _______ _______ _____ _____    ______ ____
ROOT
ATOM      1  C   UNL     1       5.964   3.929   5.794  0.00  0.00    +0.000 C 
ATOM      2  F   UNL     1       7.208   3.383   5.651  0.00  0.00    +0.000 F 
ATOM      3  F   UNL     1       6.049   5.179   5.249  0.00  0.00    +0.000 F 
ENDROOT
BRANCH   1   4
ATOM      4  C   UNL     1       5.544   3.982   7.253  0.00  0.00    +0.000 A 
ATOM      5  C   UNL     1       5.939   2.972   8.144  0.00  0.00    +0.000 A 
ATOM      6  C   UNL     1       5.536   3.013   9.477  0.00  0.00    +0.000 A 
ATOM      7  C   UNL     1       4.724   4.055   9.938  0.00  0.00    +0.000 A 
ATOM      8  C   UNL     1       4.316   5.073   9.072  0.00  0.00    +0.000 A 
ATOM      9  C   UNL     1       4.745   5.032   7.737  0.00  0.00    +0.000 A 
BRANCH   8  10
ATOM     10  N   UNL     1       3.542   6.176   9.495  0.00  0.00    +0.000 N 
ATOM     11  H   UNL     1       4.125   7.015   9.492  0.00  0.00    +0.000 HD
BRANCH  10  12
ATOM     12  C   UNL     1       2.601   6.158  10.592  0.00  0.00    +0.000 C 
ATOM     13  C   UNL     1       1.936   7.523  10.833  0.00  0.00    +0.000 C 
ATOM     14  O   UNL     1       2.389   7.552  12.208  0.00  0.00    +0.000 OA
ATOM     15  C   UNL     1       3.182   6.359  11.995  0.00  0.00    +0.000 C 
ENDBRANCH  10  12
ENDBRANCH   8  10
ENDBRANCH   1   4
BRANCH   1  16
ATOM     16  C   UNL     1       4.964   3.096   4.970  0.00  0.00    +0.000 C 
BRANCH  16  17
ATOM     17  O   UNL     1       5.348   3.066   3.585  0.00  0.00    +0.000 OA
BRANCH  17  21
ATOM     18  C   UNL     1       3.045   0.989   0.786  0.00  0.00    +0.000 A 
ATOM     19  C   UNL     1       2.639   0.982   2.125  0.00  0.00    +0.000 A 
ATOM     20  C   UNL     1       3.384   1.667   3.092  0.00  0.00    +0.000 A 
ATOM     21  C   UNL     1       4.540   2.362   2.732  0.00  0.00    +0.000 A 
ATOM     22  C   UNL     1       4.950   2.357   1.395  0.00  0.00    +0.000 A 
ATOM     23  C   UNL     1       4.212   1.670   0.425  0.00  0.00    +0.000 A 
BRANCH  18  25
ATOM     24  N   UNL     1       0.942   0.094  -0.054  0.00  0.00    +0.000 N 
ATOM     25  C   UNL     1       2.283   0.263  -0.262  0.00  0.00    +0.000 C 
ATOM     26  O   UNL     1       2.818  -0.140  -1.286  0.00  0.00    +0.000 OA
ATOM     27  H   UNL     1       0.419  -0.310  -0.821  0.00  0.00    +0.000 HD
ATOM     28  H   UNL     1       0.428   0.632   0.628  0.00  0.00    +0.000 HD
ENDBRANCH  18  25
ENDBRANCH  17  21
ENDBRANCH  16  17
ENDBRANCH   1  16
TORSDOF 7
