REMARK  Name = 
REMARK  5 active torsions:
REMARK  status: ('A' for Active; 'I' for Inactive)
REMARK    1  A    between atoms: C_2  and  C_4
REMARK    2  A    between atoms: C_7  and  O_8
REMARK    3  A    between atoms: O_8  and  C_9
REMARK    4  A    between atoms: C_9  and  C_10
REMARK    5  A    between atoms: C_12  and  C_13
REMARK                            x       y       z     vdW  Elec       q    Type
REMARK                         _______ _______ _______ _____ _____    ______ ____
ROOT
ATOM      1  C   UNL     1       5.070   3.011   5.193  0.00  0.00    +0.000 C 
ENDROOT
BRANCH   1   2
ATOM      2  C   UNL     1       5.986   3.912   5.992  0.00  0.00    +0.000 A 
ATOM      3  C   UNL     1       5.789   5.293   6.013  0.00  0.00    +0.000 A 
ATOM      4  C   UNL     1       6.583   6.114   6.827  0.00  0.00    +0.000 A 
ATOM      5  C   UNL     1       7.574   5.477   7.584  0.00  0.00    +0.000 A 
ATOM      6  C   UNL     1       7.712   4.100   7.509  0.00  0.00    +0.000 A 
ATOM      7  N   UNL     1       6.936   3.306   6.744  0.00  0.00    +0.000 NA
BRANCH   4   8
ATOM      8  C   UNL     1       6.359   7.577   6.900  0.00  0.00    +0.000 A 
ATOM      9  C   UNL     1       5.069   8.129   6.748  0.00  0.00    +0.000 A 
ATOM     10  C   UNL     1       4.840   9.506   6.839  0.00  0.00    +0.000 A 
ATOM     11  C   UNL     1       5.900  10.367   7.097  0.00  0.00    +0.000 A 
ATOM     12  C   UNL     1       7.176   9.843   7.246  0.00  0.00    +0.000 A 
ATOM     13  F   UNL     1       8.200  10.668   7.501  0.00  0.00    +0.000 F 
ATOM     14  C   UNL     1       7.412   8.474   7.142  0.00  0.00    +0.000 A 
ENDBRANCH   4   8
ENDBRANCH   1   2
BRANCH   1  15
ATOM     15  O   UNL     1       4.587   3.682   4.026  0.00  0.00    +0.000 OA
BRANCH  15  19
ATOM     16  C   UNL     1       2.000   1.760   1.385  0.00  0.00    +0.000 A 
ATOM     17  C   UNL     1       2.439   1.063   2.513  0.00  0.00    +0.000 A 
ATOM     18  C   UNL     1       3.301   1.674   3.430  0.00  0.00    +0.000 A 
ATOM     19  C   UNL     1       3.732   2.984   3.221  0.00  0.00    +0.000 A 
ATOM     20  C   UNL     1       3.289   3.683   2.094  0.00  0.00    +0.000 A 
ATOM     21  C   UNL     1       2.432   3.074   1.173  0.00  0.00    +0.000 A 
BRANCH  16  23
ATOM     22  N   UNL     1       0.294   0.125   0.805  0.00  0.00    +0.000 N 
ATOM     23  C   UNL     1       1.115   1.128   0.373  0.00  0.00    +0.000 C 
ATOM     24  O   UNL     1       1.097   1.504  -0.791  0.00  0.00    +0.000 OA
ATOM     25  H   UNL     1      -0.367  -0.234   0.126  0.00  0.00    +0.000 HD
ATOM     26  H   UNL     1       0.096  -0.036   1.782  0.00  0.00    +0.000 HD
ENDBRANCH  16  23
ENDBRANCH  15  19
ENDBRANCH   1  15
TORSDOF 5
