REMARK  Name = 
REMARK  5 active torsions:
REMARK  status: ('A' for Active; 'I' for Inactive)
REMARK    1  A    between atoms: C_2  and  C_4
REMARK    2  A    between atoms: N_8  and  C_9
REMARK    3  A    between atoms: C_9  and  C_10
REMARK    4  A    between atoms: C_10  and  N_11
REMARK    5  A    between atoms: C_14  and  N_15
REMARK                            x       y       z     vdW  Elec       q    Type
REMARK                         _______ _______ _______ _____ _____    ______ ____
ROOT
ATOM      1  C   UNL     1       5.814  -5.271  -4.887  0.00  0.00    +0.000 C 
ENDROOT
BRANCH   1   2
ATOM      2  N   UNL     1       5.532  -5.466  -6.328  0.00  0.00    +0.000 NA
ATOM      3  C   UNL     1       4.408  -4.615  -6.764  0.00  0.00    +0.000 C 
ATOM      4  C   UNL     1       3.161  -5.427  -6.460  0.00  0.00    +0.000 C 
ATOM      5  C   UNL     1       3.564  -6.828  -6.907  0.00  0.00    +0.000 C 
ATOM      6  C   UNL     1       5.091  -6.844  -6.652  0.00  0.00    +0.000 C 
BRANCH   5   7
ATOM      7  N   UNL     1       3.255  -7.002  -8.338  0.00  0.00    +0.000 N 
ATOM      8  C   UNL     1       1.946  -7.432  -8.617  0.00  0.00    +0.000 A 
ATOM      9  C   UNL     1       1.556  -7.536  -9.952  0.00  0.00    +0.000 A 
ATOM     10  C   UNL     1       0.260  -7.947 -10.264  0.00  0.00    +0.000 A 
ATOM     11  C   UNL     1      -0.616  -8.251  -9.232  0.00  0.00    +0.000 A 
ATOM     12  C   UNL     1      -0.148  -8.116  -7.940  0.00  0.00    +0.000 A 
ATOM     13 CL   UNL     1      -1.144  -8.495  -6.596  0.00  0.00    +0.000 Cl
ATOM     14  N   UNL     1       1.094  -7.706  -7.613  0.00  0.00    +0.000 NA
ATOM     15  H   UNL     1       3.908  -7.616  -8.816  0.00  0.00    +0.000 HD
ENDBRANCH   5   7
ENDBRANCH   1   2
BRANCH   1  16
ATOM     16  C   UNL     1       7.070  -6.032  -4.411  0.00  0.00    +0.000 C 
BRANCH  16  21
ATOM     17  C   UNL     1      10.506  -7.697  -1.091  0.00  0.00    +0.000 A 
ATOM     18  C   UNL     1      10.602  -7.500  -2.462  0.00  0.00    +0.000 A 
ATOM     19  C   UNL     1       9.559  -6.861  -3.128  0.00  0.00    +0.000 A 
ATOM     20  C   UNL     1       8.426  -6.455  -2.424  0.00  0.00    +0.000 A 
ATOM     21  N   UNL     1       7.387  -5.747  -3.016  0.00  0.00    +0.000 N 
ATOM     22  N   UNL     1       8.306  -6.683  -1.102  0.00  0.00    +0.000 NA
ATOM     23  C   UNL     1       9.336  -7.295  -0.465  0.00  0.00    +0.000 A 
ATOM     24  H   UNL     1       6.609  -5.734  -2.358  0.00  0.00    +0.000 HD
BRANCH  17  26
ATOM     25  N   UNL     1      12.866  -8.180  -0.785  0.00  0.00    +0.000 N 
ATOM     26  C   UNL     1      11.594  -8.308  -0.297  0.00  0.00    +0.000 C 
ATOM     27  O   UNL     1      11.374  -8.868   0.768  0.00  0.00    +0.000 OA
ATOM     28  H   UNL     1      13.612  -8.501  -0.180  0.00  0.00    +0.000 HD
ATOM     29  H   UNL     1      13.108  -7.520  -1.511  0.00  0.00    +0.000 HD
ENDBRANCH  17  26
ENDBRANCH  16  21
ENDBRANCH   1  16
TORSDOF 5
