REMARK  Name = 
REMARK  4 active torsions:
REMARK  status: ('A' for Active; 'I' for Inactive)
REMARK    1  A    between atoms: N_1  and  C_2
REMARK    2  A    between atoms: C_2  and  C_3
REMARK    3  A    between atoms: C_6  and  C_7
REMARK    4  A    between atoms: C_7  and  N_8
REMARK                            x       y       z     vdW  Elec       q    Type
REMARK                         _______ _______ _______ _____ _____    ______ ____
ROOT
ATOM      1  C   UNL     1       2.390   1.201  -1.321  0.00  0.00    +0.000 A 
ATOM      2  C   UNL     1       2.561   0.318  -2.390  0.00  0.00    +0.000 A 
ATOM      3  C   UNL     1       3.245   0.731  -3.531  0.00  0.00    +0.000 A 
ATOM      4  C   UNL     1       3.755   2.028  -3.584  0.00  0.00    +0.000 A 
ATOM      5  N   UNL     1       3.604   2.903  -2.558  0.00  0.00    +0.000 NA
ATOM      6  C   UNL     1       2.929   2.474  -1.466  0.00  0.00    +0.000 A 
ENDROOT
BRANCH   1   7
ATOM      7  C   UNL     1       1.635   0.809  -0.085  0.00  0.00    +0.000 C 
BRANCH   7   8
ATOM      8  N   UNL     1       2.228  -0.348   0.574  0.00  0.00    +0.000 NA
ATOM      9  H   UNL     1       1.712  -0.542   1.433  0.00  0.00    +0.000 HD
ATOM     10  H   UNL     1       3.178  -0.120   0.862  0.00  0.00    +0.000 HD
ENDBRANCH   7   8
ENDBRANCH   1   7
BRANCH   4  11
ATOM     11  C   UNL     1       4.597   2.469  -4.748  0.00  0.00    +0.000 C 
BRANCH  11  12
ATOM     12  N   UNL     1       3.847   3.117  -5.821  0.00  0.00    +0.000 N 
ATOM     13  C   UNL     1       3.245   2.436  -6.853  0.00  0.00    +0.000 A 
ATOM     14  C   UNL     1       3.127   3.301  -7.917  0.00  0.00    +0.000 A 
ATOM     15  C   UNL     1       3.583   4.576  -7.492  0.00  0.00    +0.000 A 
ATOM     16  C   UNL     1       3.737   5.819  -8.121  0.00  0.00    +0.000 A 
ATOM     17  N   UNL     1       4.150   6.905  -7.422  0.00  0.00    +0.000 NA
ATOM     18  C   UNL     1       4.403   6.765  -6.102  0.00  0.00    +0.000 A 
ATOM     19  C   UNL     1       4.327   5.572  -5.396  0.00  0.00    +0.000 A 
ATOM     20  C   UNL     1       3.933   4.461  -6.140  0.00  0.00    +0.000 A 
ENDBRANCH  11  12
ENDBRANCH   4  11
TORSDOF 4
