REMARK  Name = 
REMARK  5 active torsions:
REMARK  status: ('A' for Active; 'I' for Inactive)
REMARK    1  A    between atoms: C_2  and  C_3
REMARK    2  A    between atoms: C_6  and  N_7
REMARK    3  A    between atoms: N_7  and  C_8
REMARK    4  A    between atoms: C_8  and  C_9
REMARK    5  A    between atoms: C_12  and  O_13
REMARK                            x       y       z     vdW  Elec       q    Type
REMARK                         _______ _______ _______ _____ _____    ______ ____
ROOT
ATOM      1  C   UNL     1      -4.606   0.865  -0.233  0.00  0.00    +0.000 C 
ATOM      2  C   UNL     1      -4.837   2.007  -1.208  0.00  0.00    +0.000 C 
ATOM      3  C   UNL     1      -4.529   2.330   0.211  0.00  0.00    +0.000 C 
ENDROOT
BRANCH   1   4
ATOM      4  C   UNL     1      -5.782   0.133   0.420  0.00  0.00    +0.000 A 
ATOM      5  C   UNL     1      -5.830  -0.043   1.821  0.00  0.00    +0.000 A 
ATOM      6  C   UNL     1      -6.989  -0.485   2.467  0.00  0.00    +0.000 A 
ATOM      7  C   UNL     1      -8.113  -0.781   1.711  0.00  0.00    +0.000 A 
ATOM      8  C   UNL     1      -8.072  -0.708   0.326  0.00  0.00    +0.000 A 
ATOM      9  C   UNL     1      -6.910  -0.265  -0.314  0.00  0.00    +0.000 A 
BRANCH   7  10
ATOM     10  O   UNL     1      -9.294  -1.128   2.298  0.00  0.00    +0.000 OA
ATOM     11  H   UNL     1      -9.212  -1.002   3.258  0.00  0.00    +0.000 HD
ENDBRANCH   7  10
ENDBRANCH   1   4
BRANCH   1  12
ATOM     12  N   UNL     1      -3.351   0.099  -0.288  0.00  0.00    +0.000 N 
ATOM     13  H   UNL     1      -2.803   0.033   0.562  0.00  0.00    +0.000 HD
BRANCH  12  17
ATOM     14  C   UNL     1      -1.331  -1.368  -3.640  0.00  0.00    +0.000 A 
ATOM     15  C   UNL     1      -2.628  -0.909  -3.819  0.00  0.00    +0.000 A 
ATOM     16  C   UNL     1      -3.332  -0.430  -2.708  0.00  0.00    +0.000 A 
ATOM     17  C   UNL     1      -2.733  -0.397  -1.448  0.00  0.00    +0.000 A 
ATOM     18  C   UNL     1      -1.423  -0.885  -1.389  0.00  0.00    +0.000 A 
ATOM     19  N   UNL     1      -0.709  -1.366  -2.438  0.00  0.00    +0.000 NA
BRANCH  14  21
ATOM     20  N   UNL     1       0.012  -2.303  -5.660  0.00  0.00    +0.000 NA
ATOM     21  C   UNL     1      -0.567  -1.889  -4.746  0.00  0.00    +0.000 C 
ENDBRANCH  14  21
ENDBRANCH  12  17
ENDBRANCH   1  12
TORSDOF 5
