REMARK  Name = 
REMARK  6 active torsions:
REMARK  status: ('A' for Active; 'I' for Inactive)
REMARK    1  A    between atoms: C_2  and  C_25
REMARK    2  A    between atoms: N_3  and  C_4
REMARK    3  A    between atoms: C_4  and  C_5
REMARK    4  A    between atoms: C_8  and  C_9
REMARK    5  A    between atoms: C_9  and  N_10
REMARK    6  A    between atoms: C_11  and  C_13
REMARK                            x       y       z     vdW  Elec       q    Type
REMARK                         _______ _______ _______ _____ _____    ______ ____
ROOT
ATOM      1  C   UNL     1       3.240   3.671   0.091  0.00  0.00    +0.000 A 
ATOM      2  C   UNL     1       2.729   4.967  -0.063  0.00  0.00    +0.000 A 
ATOM      3  C   UNL     1       3.579   6.079  -0.029  0.00  0.00    +0.000 A 
ATOM      4  C   UNL     1       4.960   5.916   0.140  0.00  0.00    +0.000 A 
ATOM      5  C   UNL     1       5.470   4.621   0.298  0.00  0.00    +0.000 A 
ATOM      6  C   UNL     1       4.621   3.510   0.263  0.00  0.00    +0.000 A 
ENDROOT
BRANCH   1   7
ATOM      7  C   UNL     1       2.321   2.480   0.101  0.00  0.00    +0.000 C 
BRANCH   7  10
ATOM      8  O   UNL     1       0.606   0.348  -0.456  0.00  0.00    +0.000 OA
ATOM      9  C   UNL     1       1.197   0.891  -1.383  0.00  0.00    +0.000 C 
ATOM     10  N   UNL     1       2.068   1.945  -1.213  0.00  0.00    +0.000 N 
ATOM     11  H   UNL     1       2.523   2.324  -2.038  0.00  0.00    +0.000 HD
BRANCH   9  12
ATOM     12  C   UNL     1       0.995   0.434  -2.798  0.00  0.00    +0.000 A 
ATOM     13  C   UNL     1       0.111  -0.608  -3.061  0.00  0.00    +0.000 A 
ATOM     14  C   UNL     1      -0.067  -1.006  -4.382  0.00  0.00    +0.000 A 
ATOM     15  C   UNL     1       0.640  -0.354  -5.387  0.00  0.00    +0.000 A 
ATOM     16  C   UNL     1       1.501   0.675  -5.032  0.00  0.00    +0.000 A 
ATOM     17  N   UNL     1       1.701   1.090  -3.760  0.00  0.00    +0.000 NA
ENDBRANCH   9  12
ENDBRANCH   7  10
ENDBRANCH   1   7
BRANCH   4  18
ATOM     18  C   UNL     1       5.883   7.106   0.177  0.00  0.00    +0.000 C 
BRANCH  18  19
ATOM     19  N   UNL     1       6.074   7.594   1.520  0.00  0.00    +0.000 N 
ATOM     20  C   UNL     1       6.826   8.718   1.758  0.00  0.00    +0.000 C 
ATOM     21  O   UNL     1       7.321   9.372   0.844  0.00  0.00    +0.000 OA
ATOM     22  H   UNL     1       5.872   6.954   2.282  0.00  0.00    +0.000 HD
BRANCH  20  23
ATOM     23  C   UNL     1       6.961   9.142   3.158  0.00  0.00    +0.000 A 
ATOM     24  C   UNL     1       7.270  10.465   3.445  0.00  0.00    +0.000 A 
ATOM     25  S   UNL     1       7.335  10.807   5.115  0.00  0.00    +0.000 S 
ATOM     26  C   UNL     1       7.004   9.187   5.513  0.00  0.00    +0.000 A 
ATOM     27  N   UNL     1       6.940   8.786   6.812  0.00  0.00    +0.000 NA
ATOM     28  C   UNL     1       6.715   7.525   6.970  0.00  0.00    +0.000 A 
ATOM     29  N   UNL     1       6.543   6.628   5.947  0.00  0.00    +0.000 N 
ATOM     30  C   UNL     1       6.573   6.992   4.621  0.00  0.00    +0.000 A 
ATOM     31  O   UNL     1       6.382   6.171   3.730  0.00  0.00    +0.000 OA
ATOM     32  C   UNL     1       6.832   8.399   4.388  0.00  0.00    +0.000 A 
ATOM     33  H   UNL     1       6.364   5.654   6.139  0.00  0.00    +0.000 HD
ENDBRANCH  20  23
ENDBRANCH  18  19
ENDBRANCH   4  18
TORSDOF 6
