REMARK  Name = 
REMARK  10 active torsions:
REMARK  status: ('A' for Active; 'I' for Inactive)
REMARK    1  A    between atoms: C_2  and  C_3
REMARK    2  A    between atoms: C_3  and  N_4
REMARK    3  A    between atoms: C_3  and  C_21
REMARK    4  A    between atoms: N_4  and  C_5
REMARK    5  A    between atoms: C_5  and  C_6
REMARK    6  A    between atoms: C_9  and  C_10
REMARK    7  A    between atoms: C_10  and  O_11
REMARK    8  A    between atoms: C_10  and  C_12
REMARK    9  A    between atoms: C_12  and  C_13
REMARK   10  A    between atoms: C_13  and  C_14
REMARK                            x       y       z     vdW  Elec       q    Type
REMARK                         _______ _______ _______ _____ _____    ______ ____
ROOT
ATOM      1  C   UNL     1       3.798  -0.183  -2.453  0.00  0.00    +0.000 C 
ENDROOT
BRANCH   1   2
ATOM      2  C   UNL     1       4.250   0.546  -3.692  0.00  0.00    +0.000 A 
ATOM      3  C   UNL     1       3.952   1.905  -3.867  0.00  0.00    +0.000 A 
ATOM      4  C   UNL     1       4.325   2.568  -5.035  0.00  0.00    +0.000 A 
ATOM      5  C   UNL     1       5.014   1.891  -6.050  0.00  0.00    +0.000 A 
ATOM      6  C   UNL     1       5.332   0.537  -5.862  0.00  0.00    +0.000 A 
ATOM      7  C   UNL     1       4.952  -0.129  -4.697  0.00  0.00    +0.000 A 
BRANCH   5   8
ATOM      8  C   UNL     1       5.370   2.625  -7.326  0.00  0.00    +0.000 C 
BRANCH   8   9
ATOM      9  O   UNL     1       6.790   2.701  -7.457  0.00  0.00    +0.000 OA
ATOM     10  H   UNL     1       7.167   1.864  -7.141  0.00  0.00    +0.000 HD
ENDBRANCH   8   9
BRANCH   8  11
ATOM     11  C   UNL     1       4.808   1.966  -8.589  0.00  0.00    +0.000 C 
BRANCH  11  12
ATOM     12  C   UNL     1       3.279   1.904  -8.613  0.00  0.00    +0.000 C 
BRANCH  12  13
ATOM     13  C   UNL     1       2.809   1.256  -9.873  0.00  0.00    +0.000 A 
ATOM     14  C   UNL     1       2.503   1.801 -11.104  0.00  0.00    +0.000 A 
ATOM     15  C   UNL     1       2.174   0.735 -11.973  0.00  0.00    +0.000 A 
ATOM     16  C   UNL     1       2.275  -0.431 -11.248  0.00  0.00    +0.000 A 
ATOM     17  N   UNL     1       2.642  -0.105  -9.970  0.00  0.00    +0.000 N 
ATOM     18  H   UNL     1       2.793  -0.768  -9.220  0.00  0.00    +0.000 HD
ENDBRANCH  12  13
ENDBRANCH  11  12
ENDBRANCH   8  11
ENDBRANCH   5   8
ENDBRANCH   1   2
BRANCH   1  19
ATOM     19  N   UNL     1       2.337  -0.238  -2.412  0.00  0.00    +0.000 NA
ATOM     20  H   UNL     1       1.975   0.713  -2.441  0.00  0.00    +0.000 HD
BRANCH  19  21
ATOM     21  C   UNL     1       1.849  -0.871  -1.177  0.00  0.00    +0.000 C 
BRANCH  21  22
ATOM     22  C   UNL     1       0.334  -0.756  -1.163  0.00  0.00    +0.000 A 
ATOM     23  C   UNL     1      -0.490  -0.859  -2.276  0.00  0.00    +0.000 A 
ATOM     24  S   UNL     1      -2.146  -0.645  -1.919  0.00  0.00    +0.000 S 
ATOM     25  C   UNL     1      -1.825  -0.444  -0.260  0.00  0.00    +0.000 A 
ATOM     26  N   UNL     1      -2.826  -0.227   0.635  0.00  0.00    +0.000 NA
ATOM     27  C   UNL     1      -2.431  -0.117   1.860  0.00  0.00    +0.000 A 
ATOM     28  N   UNL     1      -1.124  -0.194   2.271  0.00  0.00    +0.000 N 
ATOM     29  C   UNL     1      -0.076  -0.393   1.403  0.00  0.00    +0.000 A 
ATOM     30  O   UNL     1       1.090  -0.438   1.780  0.00  0.00    +0.000 OA
ATOM     31  C   UNL     1      -0.475  -0.532   0.014  0.00  0.00    +0.000 A 
ATOM     32  H   UNL     1      -0.885  -0.101   3.249  0.00  0.00    +0.000 HD
ENDBRANCH  21  22
BRANCH  21  34
ATOM     33  N   UNL     1       2.568  -3.550  -0.973  0.00  0.00    +0.000 NA
ATOM     34  C   UNL     1       2.242  -2.336  -1.066  0.00  0.00    +0.000 C 
ENDBRANCH  21  34
ENDBRANCH  19  21
ENDBRANCH   1  19
TORSDOF 10
