REMARK  Name = 
REMARK  7 active torsions:
REMARK  status: ('A' for Active; 'I' for Inactive)
REMARK    1  A    between atoms: C_1  and  O_2
REMARK    2  A    between atoms: O_2  and  C_3
REMARK    3  A    between atoms: C_5  and  C_6
REMARK    4  A    between atoms: C_11  and  O_12
REMARK    5  A    between atoms: O_12  and  C_13
REMARK    6  A    between atoms: C_13  and  C_14
REMARK    7  A    between atoms: C_18  and  C_19
REMARK                            x       y       z     vdW  Elec       q    Type
REMARK                         _______ _______ _______ _____ _____    ______ ____
ROOT
ATOM      1  O   UNL     1       4.480  -1.244  -1.408  0.00  0.00    +0.000 OA
ENDROOT
BRANCH   1   7
ATOM      2  C   UNL     1       3.062   0.699  -0.717  0.00  0.00    +0.000 A 
ATOM      3  C   UNL     1       2.863   2.080  -0.876  0.00  0.00    +0.000 A 
ATOM      4  C   UNL     1       3.685   2.855  -1.707  0.00  0.00    +0.000 A 
ATOM      5  C   UNL     1       4.737   2.236  -2.382  0.00  0.00    +0.000 A 
ATOM      6  C   UNL     1       4.947   0.861  -2.227  0.00  0.00    +0.000 A 
ATOM      7  C   UNL     1       4.119   0.080  -1.405  0.00  0.00    +0.000 A 
BRANCH   4   8
ATOM      8  C   UNL     1       3.372   4.311  -1.810  0.00  0.00    +0.000 C 
ATOM      9  N   UNL     1       4.154   5.100  -2.598  0.00  0.00    +0.000 N 
ATOM     10  O   UNL     1       2.425   4.803  -1.205  0.00  0.00    +0.000 OA
ATOM     11  H   UNL     1       4.947   4.788  -3.135  0.00  0.00    +0.000 HD
ATOM     12  H   UNL     1       3.906   6.081  -2.646  0.00  0.00    +0.000 HD
ENDBRANCH   4   8
BRANCH   2  14
ATOM     13  C   UNL     1       0.981   0.436   0.417  0.00  0.00    +0.000 C 
ATOM     14  O   UNL     1       2.289  -0.049   0.130  0.00  0.00    +0.000 OA
ENDBRANCH   2  14
ENDBRANCH   1   7
BRANCH   1  15
ATOM     15  C   UNL     1       3.696  -2.164  -0.644  0.00  0.00    +0.000 C 
BRANCH  15  16
ATOM     16  C   UNL     1       4.228  -3.579  -0.774  0.00  0.00    +0.000 A 
ATOM     17  N   UNL     1       5.500  -3.816  -0.394  0.00  0.00    +0.000 NA
ATOM     18  C   UNL     1       5.910  -5.092  -0.435  0.00  0.00    +0.000 A 
ATOM     19  C   UNL     1       5.102  -6.138  -0.814  0.00  0.00    +0.000 A 
ATOM     20  C   UNL     1       3.803  -5.822  -1.165  0.00  0.00    +0.000 A 
ATOM     21  N   UNL     1       3.362  -4.543  -1.159  0.00  0.00    +0.000 NA
BRANCH  20  22
ATOM     22  C   UNL     1       2.807  -6.848  -1.546  0.00  0.00    +0.000 A 
ATOM     23  C   UNL     1       2.836  -8.148  -1.001  0.00  0.00    +0.000 A 
ATOM     24  C   UNL     1       1.892  -9.115  -1.366  0.00  0.00    +0.000 A 
ATOM     25  C   UNL     1       0.895  -8.797  -2.282  0.00  0.00    +0.000 A 
ATOM     26 CL   UNL     1      -0.262  -9.986  -2.731  0.00  0.00    +0.000 Cl
ATOM     27  C   UNL     1       0.831  -7.520  -2.830  0.00  0.00    +0.000 A 
ATOM     28  C   UNL     1       1.778  -6.556  -2.462  0.00  0.00    +0.000 A 
ENDBRANCH  20  22
ENDBRANCH  15  16
ENDBRANCH   1  15
TORSDOF 6
