REMARK  Name = 
REMARK  10 active torsions:
REMARK  status: ('A' for Active; 'I' for Inactive)
REMARK    1  A    between atoms: N_1  and  C_2
REMARK    2  A    between atoms: C_2  and  C_3
REMARK    3  A    between atoms: C_3  and  N_4
REMARK    4  A    between atoms: N_4  and  C_5
REMARK    5  A    between atoms: C_5  and  C_6
REMARK    6  A    between atoms: C_9  and  C_10
REMARK    7  A    between atoms: C_10  and  N_11
REMARK    8  A    between atoms: N_11  and  C_12
REMARK    9  A    between atoms: C_12  and  C_13
REMARK   10  A    between atoms: C_21  and  C_23
REMARK                            x       y       z     vdW  Elec       q    Type
REMARK                         _______ _______ _______ _____ _____    ______ ____
ROOT
ATOM      1  N   UNL     1       4.583   0.583  -1.221  0.00  0.00    +0.000 N 
ATOM      2  C   UNL     1       5.123   0.049  -2.423  0.00  0.00    +0.000 C 
ATOM      3  O   UNL     1       4.714   0.450  -3.511  0.00  0.00    +0.000 OA
ENDROOT
BRANCH   2   4
ATOM      4  C   UNL     1       6.148  -1.022  -2.402  0.00  0.00    +0.000 A 
ATOM      5  C   UNL     1       6.221  -2.069  -1.501  0.00  0.00    +0.000 A 
ATOM      6  S   UNL     1       7.375  -3.264  -1.851  0.00  0.00    +0.000 S 
ATOM      7  C   UNL     1       7.889  -2.412  -3.220  0.00  0.00    +0.000 A 
ATOM      8  N   UNL     1       8.890  -2.913  -3.989  0.00  0.00    +0.000 NA
ATOM      9  C   UNL     1       9.187  -2.171  -5.001  0.00  0.00    +0.000 A 
ATOM     10  N   UNL     1       8.588  -0.976  -5.297  0.00  0.00    +0.000 N 
ATOM     11  C   UNL     1       7.631  -0.383  -4.494  0.00  0.00    +0.000 A 
ATOM     12  O   UNL     1       7.288   0.777  -4.684  0.00  0.00    +0.000 OA
ATOM     13  C   UNL     1       7.202  -1.219  -3.388  0.00  0.00    +0.000 A 
ATOM     14  H   UNL     1       8.929  -0.412  -6.059  0.00  0.00    +0.000 HD
ENDBRANCH   2   4
BRANCH   1  15
ATOM     15  C   UNL     1       3.682   1.742  -1.413  0.00  0.00    +0.000 C 
BRANCH  15  16
ATOM     16  C   UNL     1       2.842   2.284  -0.230  0.00  0.00    +0.000 C 
BRANCH  16  17
ATOM     17  N   UNL     1       3.602   2.973   0.820  0.00  0.00    +0.000 NA
ATOM     18  H   UNL     1       2.967   3.225   1.577  0.00  0.00    +0.000 HD
ATOM     19  H   UNL     1       3.982   3.848   0.459  0.00  0.00    +0.000 HD
ENDBRANCH  16  17
ENDBRANCH  15  16
ENDBRANCH   1  15
BRANCH   1  20
ATOM     20  C   UNL     1       5.186   0.390   0.099  0.00  0.00    +0.000 C 
BRANCH  20  21
ATOM     21  C   UNL     1       4.319  -0.376   1.087  0.00  0.00    +0.000 A 
ATOM     22  C   UNL     1       3.747  -1.625   0.801  0.00  0.00    +0.000 A 
ATOM     23  C   UNL     1       3.063  -2.356   1.772  0.00  0.00    +0.000 A 
ATOM     24  C   UNL     1       2.800  -1.791   3.020  0.00  0.00    +0.000 A 
ATOM     25  C   UNL     1       3.330  -0.530   3.311  0.00  0.00    +0.000 A 
ATOM     26  C   UNL     1       4.113   0.147   2.370  0.00  0.00    +0.000 A 
BRANCH  24  27
ATOM     27  C   UNL     1       1.863  -2.488   3.971  0.00  0.00    +0.000 C 
BRANCH  27  28
ATOM     28  N   UNL     1       2.373  -3.787   4.400  0.00  0.00    +0.000 NA
ATOM     29  H   UNL     1       3.254  -3.651   4.894  0.00  0.00    +0.000 HD
BRANCH  28  30
ATOM     30  C   UNL     1       1.409  -4.430   5.290  0.00  0.00    +0.000 C 
BRANCH  30  31
ATOM     31  C   UNL     1       1.936  -5.742   5.816  0.00  0.00    +0.000 A 
ATOM     32  C   UNL     1       2.112  -5.937   7.189  0.00  0.00    +0.000 A 
ATOM     33  C   UNL     1       2.582  -7.166   7.630  0.00  0.00    +0.000 A 
ATOM     34  N   UNL     1       2.882  -8.194   6.811  0.00  0.00    +0.000 NA
ATOM     35  C   UNL     1       2.708  -7.986   5.489  0.00  0.00    +0.000 A 
ATOM     36  C   UNL     1       2.242  -6.796   4.952  0.00  0.00    +0.000 A 
ENDBRANCH  30  31
ENDBRANCH  28  30
ENDBRANCH  27  28
ENDBRANCH  24  27
ENDBRANCH  20  21
ENDBRANCH   1  20
TORSDOF 10
