REMARK  Name = 
REMARK  6 active torsions:
REMARK  status: ('A' for Active; 'I' for Inactive)
REMARK    1  A    between atoms: N_1  and  C_2
REMARK    2  A    between atoms: C_2  and  C_3
REMARK    3  A    between atoms: C_6  and  O_7
REMARK    4  A    between atoms: O_7  and  C_8
REMARK    5  A    between atoms: C_8  and  C_9
REMARK    6  A    between atoms: C_14  and  C_15
REMARK                            x       y       z     vdW  Elec       q    Type
REMARK                         _______ _______ _______ _____ _____    ______ ____
ROOT
ATOM      1  C   UNL     1       3.889   3.673   5.099  0.00  0.00    +0.000 C 
ENDROOT
BRANCH   1   2
ATOM      2  C   UNL     1       4.834   4.066   6.210  0.00  0.00    +0.000 A 
ATOM      3  C   UNL     1       5.498   5.300   6.137  0.00  0.00    +0.000 A 
ATOM      4  C   UNL     1       6.329   5.715   7.173  0.00  0.00    +0.000 A 
ATOM      5 BR   UNL     1       7.212   7.383   7.050  0.00  0.00    +0.000 Br
ATOM      6  C   UNL     1       6.501   4.920   8.304  0.00  0.00    +0.000 A 
ATOM      7  C   UNL     1       5.832   3.690   8.408  0.00  0.00    +0.000 A 
ATOM      8  C   UNL     1       5.003   3.270   7.351  0.00  0.00    +0.000 A 
BRANCH   7   9
ATOM      9  C   UNL     1       5.976   2.827   9.635  0.00  0.00    +0.000 C 
ATOM     10  F   UNL     1       6.765   3.379  10.598  0.00  0.00    +0.000 F 
ATOM     11  F   UNL     1       4.778   2.579  10.235  0.00  0.00    +0.000 F 
ATOM     12  F   UNL     1       6.517   1.609   9.361  0.00  0.00    +0.000 F 
ENDBRANCH   7   9
ENDBRANCH   1   2
BRANCH   1  13
ATOM     13  O   UNL     1       3.927   2.266   4.847  0.00  0.00    +0.000 OA
BRANCH  13  17
ATOM     14  C   UNL     1       2.799   1.103   0.993  0.00  0.00    +0.000 A 
ATOM     15  C   UNL     1       3.616   0.298   1.803  0.00  0.00    +0.000 A 
ATOM     16  C   UNL     1       3.944   0.697   3.101  0.00  0.00    +0.000 A 
ATOM     17  C   UNL     1       3.471   1.911   3.603  0.00  0.00    +0.000 A 
ATOM     18  C   UNL     1       2.603   2.681   2.827  0.00  0.00    +0.000 A 
ATOM     19  C   UNL     1       2.280   2.288   1.526  0.00  0.00    +0.000 A 
BRANCH  14  20
ATOM     20  C   UNL     1       2.503   0.724  -0.434  0.00  0.00    +0.000 C 
BRANCH  20  21
ATOM     21  N   UNL     1       1.804  -0.550  -0.519  0.00  0.00    +0.000 NA
ATOM     22  H   UNL     1       1.490  -0.691  -1.477  0.00  0.00    +0.000 HD
ATOM     23  H   UNL     1       0.965  -0.502   0.056  0.00  0.00    +0.000 HD
ENDBRANCH  20  21
ENDBRANCH  14  20
ENDBRANCH  13  17
ENDBRANCH   1  13
TORSDOF 6
