REMARK  Name = 
REMARK  4 active torsions:
REMARK  status: ('A' for Active; 'I' for Inactive)
REMARK    1  A    between atoms: C_2  and  C_4
REMARK    2  A    between atoms: N_8  and  C_9
REMARK    3  A    between atoms: C_9  and  C_10
REMARK    4  A    between atoms: C_14  and  N_15
REMARK                            x       y       z     vdW  Elec       q    Type
REMARK                         _______ _______ _______ _____ _____    ______ ____
ROOT
ATOM      1  C   UNL     1       4.206   1.581   0.145  0.00  0.00    +0.000 A 
ATOM      2  C   UNL     1       5.533   1.774  -0.147  0.00  0.00    +0.000 A 
ATOM      3  N   UNL     1       5.973   2.238  -1.335  0.00  0.00    +0.000 NA
ATOM      4  C   UNL     1       5.050   2.510  -2.270  0.00  0.00    +0.000 A 
ATOM      5  N   UNL     1       5.431   3.025  -3.488  0.00  0.00    +0.000 N 
ATOM      6  N   UNL     1       3.734   2.345  -2.086  0.00  0.00    +0.000 NA
ATOM      7  C   UNL     1       3.336   1.875  -0.880  0.00  0.00    +0.000 A 
ATOM      8  H   UNL     1       4.656   2.934  -4.134  0.00  0.00    +0.000 HD
ENDROOT
BRANCH   1  10
ATOM      9  N   UNL     1       4.504   1.232   2.531  0.00  0.00    +0.000 N 
ATOM     10  C   UNL     1       3.717   1.059   1.426  0.00  0.00    +0.000 C 
ATOM     11  O   UNL     1       2.632   0.498   1.501  0.00  0.00    +0.000 OA
ATOM     12  H   UNL     1       4.106   0.928   3.412  0.00  0.00    +0.000 HD
ATOM     13  H   UNL     1       5.270   1.890   2.576  0.00  0.00    +0.000 HD
ENDBRANCH   1  10
BRANCH   5  14
ATOM     14  C   UNL     1       6.726   2.614  -3.993  0.00  0.00    +0.000 C 
BRANCH  14  15
ATOM     15  C   UNL     1       7.274   3.658  -4.928  0.00  0.00    +0.000 A 
ATOM     16  C   UNL     1       8.139   3.317  -5.956  0.00  0.00    +0.000 A 
ATOM     17  N   UNL     1       8.716   4.216  -6.781  0.00  0.00    +0.000 NA
ATOM     18  C   UNL     1       8.424   5.524  -6.551  0.00  0.00    +0.000 A 
ATOM     19  C   UNL     1       7.591   6.010  -5.542  0.00  0.00    +0.000 A 
ATOM     20  C   UNL     1       7.032   5.024  -4.726  0.00  0.00    +0.000 A 
BRANCH  19  21
ATOM     21  N   UNL     1       7.364   7.343  -5.287  0.00  0.00    +0.000 N 
ATOM     22  C   UNL     1       8.298   8.399  -5.690  0.00  0.00    +0.000 C 
ATOM     23  C   UNL     1       8.356   9.443  -4.559  0.00  0.00    +0.000 C 
ATOM     24  O   UNL     1       7.053   9.978  -4.264  0.00  0.00    +0.000 OA
ATOM     25  C   UNL     1       6.163   8.926  -3.848  0.00  0.00    +0.000 C 
ATOM     26  C   UNL     1       6.024   7.841  -4.928  0.00  0.00    +0.000 C 
ENDBRANCH  19  21
ENDBRANCH  14  15
ENDBRANCH   5  14
TORSDOF 4
