REMARK  Name = 
REMARK  6 active torsions:
REMARK  status: ('A' for Active; 'I' for Inactive)
REMARK    1  A    between atoms: C_2  and  C_20
REMARK    2  A    between atoms: N_3  and  C_4
REMARK    3  A    between atoms: C_4  and  C_5
REMARK    4  A    between atoms: C_8  and  C_9
REMARK    5  A    between atoms: C_9  and  N_10
REMARK    6  A    between atoms: C_11  and  C_13
REMARK                            x       y       z     vdW  Elec       q    Type
REMARK                         _______ _______ _______ _____ _____    ______ ____
ROOT
ATOM      1  C   UNL     1       2.265  -1.507   2.104  0.00  0.00    +0.000 C 
ENDROOT
BRANCH   1   2
ATOM      2  C   UNL     1       3.193  -2.142   3.110  0.00  0.00    +0.000 A 
ATOM      3  C   UNL     1       4.012  -1.352   3.928  0.00  0.00    +0.000 A 
ATOM      4  C   UNL     1       4.823  -1.937   4.910  0.00  0.00    +0.000 A 
ATOM      5  C   UNL     1       4.851  -3.327   5.082  0.00  0.00    +0.000 A 
ATOM      6  C   UNL     1       4.051  -4.118   4.245  0.00  0.00    +0.000 A 
ATOM      7  C   UNL     1       3.240  -3.534   3.264  0.00  0.00    +0.000 A 
BRANCH   5   8
ATOM      8  C   UNL     1       5.720  -3.963   6.139  0.00  0.00    +0.000 C 
BRANCH   8   9
ATOM      9  N   UNL     1       5.051  -4.088   7.412  0.00  0.00    +0.000 N 
ATOM     10  C   UNL     1       5.608  -4.803   8.455  0.00  0.00    +0.000 C 
ATOM     11  O   UNL     1       6.719  -5.322   8.393  0.00  0.00    +0.000 OA
ATOM     12  H   UNL     1       4.096  -3.761   7.523  0.00  0.00    +0.000 HD
BRANCH  10  13
ATOM     13  C   UNL     1       4.744  -4.808   9.730  0.00  0.00    +0.000 C 
ATOM     14  C   UNL     1       5.022  -5.994  10.645  0.00  0.00    +0.000 C 
ATOM     15  C   UNL     1       3.689  -6.205  11.319  0.00  0.00    +0.000 C 
ATOM     16  C   UNL     1       2.723  -5.868  10.208  0.00  0.00    +0.000 C 
ATOM     17  O   UNL     1       3.336  -4.827   9.434  0.00  0.00    +0.000 OA
ENDBRANCH  10  13
ENDBRANCH   8   9
ENDBRANCH   5   8
ENDBRANCH   1   2
BRANCH   1  20
ATOM     18  O   UNL     1       0.937  -0.601  -0.135  0.00  0.00    +0.000 OA
ATOM     19  C   UNL     1       2.147  -0.793  -0.225  0.00  0.00    +0.000 C 
ATOM     20  N   UNL     1       2.877  -1.324   0.812  0.00  0.00    +0.000 N 
ATOM     21  H   UNL     1       3.892  -1.283   0.780  0.00  0.00    +0.000 HD
BRANCH  19  22
ATOM     22  C   UNL     1       2.871  -0.486  -1.465  0.00  0.00    +0.000 A 
ATOM     23  C   UNL     1       2.187  -0.445  -2.674  0.00  0.00    +0.000 A 
ATOM     24  S   UNL     1       3.177  -0.048  -4.006  0.00  0.00    +0.000 S 
ATOM     25  C   UNL     1       4.544   0.127  -3.008  0.00  0.00    +0.000 A 
ATOM     26  N   UNL     1       5.742   0.516  -3.522  0.00  0.00    +0.000 NA
ATOM     27  C   UNL     1       6.680   0.648  -2.646  0.00  0.00    +0.000 A 
ATOM     28  N   UNL     1       6.533   0.412  -1.302  0.00  0.00    +0.000 N 
ATOM     29  C   UNL     1       5.357  -0.030  -0.745  0.00  0.00    +0.000 A 
ATOM     30  O   UNL     1       5.282  -0.303   0.444  0.00  0.00    +0.000 OA
ATOM     31  C   UNL     1       4.258  -0.153  -1.683  0.00  0.00    +0.000 A 
ATOM     32  H   UNL     1       7.315   0.510  -0.671  0.00  0.00    +0.000 HD
ENDBRANCH  19  22
ENDBRANCH   1  20
TORSDOF 6
