REMARK  Name = 
REMARK  8 active torsions:
REMARK  status: ('A' for Active; 'I' for Inactive)
REMARK    1  A    between atoms: C_1  and  O_2
REMARK    2  A    between atoms: O_2  and  C_3
REMARK    3  A    between atoms: C_10  and  C_11
REMARK    4  A    between atoms: N_13  and  C_14
REMARK    5  A    between atoms: C_14  and  C_15
REMARK    6  A    between atoms: C_18  and  N_19
REMARK    7  A    between atoms: N_19  and  C_20
REMARK    8  A    between atoms: C_20  and  C_21
REMARK                            x       y       z     vdW  Elec       q    Type
REMARK                         _______ _______ _______ _____ _____    ______ ____
ROOT
ATOM      1  C   UNL     1       3.241  -3.234   0.743  0.00  0.00    +0.000 C 
ENDROOT
BRANCH   1   2
ATOM      2  C   UNL     1       2.264  -2.885   1.843  0.00  0.00    +0.000 A 
ATOM      3  C   UNL     1       1.481  -3.894   2.409  0.00  0.00    +0.000 A 
ATOM      4  C   UNL     1       0.609  -3.618   3.472  0.00  0.00    +0.000 A 
ATOM      5  C   UNL     1       0.445  -2.322   3.972  0.00  0.00    +0.000 A 
ATOM      6  C   UNL     1       1.209  -1.309   3.378  0.00  0.00    +0.000 A 
ATOM      7  C   UNL     1       2.121  -1.584   2.343  0.00  0.00    +0.000 A 
BRANCH   5   8
ATOM      8  N   UNL     1      -0.338  -1.996   5.092  0.00  0.00    +0.000 N 
ATOM      9  H   UNL     1      -0.909  -1.176   4.899  0.00  0.00    +0.000 HD
BRANCH   8  10
ATOM     10  C   UNL     1      -1.054  -3.050   5.802  0.00  0.00    +0.000 C 
BRANCH  10  11
ATOM     11  C   UNL     1      -1.236  -2.749   7.305  0.00  0.00    +0.000 C 
ATOM     12  C   UNL     1      -1.971  -3.932   7.966  0.00  0.00    +0.000 C 
ATOM     13  C   UNL     1      -3.452  -3.978   7.575  0.00  0.00    +0.000 C 
ATOM     14  N   UNL     1      -4.138  -2.713   7.844  0.00  0.00    +0.000 NA
ATOM     15  C   UNL     1      -3.474  -1.582   7.190  0.00  0.00    +0.000 C 
ATOM     16  C   UNL     1      -2.017  -1.470   7.630  0.00  0.00    +0.000 C 
ATOM     17  H   UNL     1      -4.142  -2.551   8.853  0.00  0.00    +0.000 HD
ENDBRANCH  10  11
ENDBRANCH   8  10
ENDBRANCH   5   8
ENDBRANCH   1   2
BRANCH   1  20
ATOM     18  C   UNL     1       3.067  -3.909  -1.635  0.00  0.00    +0.000 C 
ATOM     19  O   UNL     1       3.986  -4.720  -1.538  0.00  0.00    +0.000 OA
ATOM     20  N   UNL     1       2.628  -3.185  -0.569  0.00  0.00    +0.000 N 
ATOM     21  H   UNL     1       1.897  -2.501  -0.691  0.00  0.00    +0.000 HD
BRANCH  18  29
ATOM     22  C   UNL     1       0.503  -1.839  -2.615  0.00  0.00    +0.000 A 
ATOM     23  N   UNL     1      -0.402  -1.081  -3.263  0.00  0.00    +0.000 NA
ATOM     24  C   UNL     1      -0.529  -1.250  -4.578  0.00  0.00    +0.000 A 
ATOM     25  N   UNL     1       0.129  -2.114  -5.347  0.00  0.00    +0.000 NA
ATOM     26  C   UNL     1       1.027  -2.847  -4.658  0.00  0.00    +0.000 A 
ATOM     27  S   UNL     1       1.960  -4.011  -5.469  0.00  0.00    +0.000 S 
ATOM     28  C   UNL     1       2.784  -4.420  -4.041  0.00  0.00    +0.000 A 
ATOM     29  C   UNL     1       2.388  -3.687  -2.930  0.00  0.00    +0.000 A 
ATOM     30  C   UNL     1       1.307  -2.768  -3.297  0.00  0.00    +0.000 A 
BRANCH  22  32
ATOM     31  C   UNL     1      -0.521  -1.147  -0.632  0.00  0.00    +0.000 C 
ATOM     32  O   UNL     1       0.661  -1.632  -1.262  0.00  0.00    +0.000 OA
ENDBRANCH  22  32
ENDBRANCH  18  29
ENDBRANCH   1  20
TORSDOF 7
