REMARK  Name = 
REMARK  7 active torsions:
REMARK  status: ('A' for Active; 'I' for Inactive)
REMARK    1  A    between atoms: C_1  and  O_2
REMARK    2  A    between atoms: O_2  and  C_3
REMARK    3  A    between atoms: C_5  and  C_6
REMARK    4  A    between atoms: C_11  and  O_12
REMARK    5  A    between atoms: O_12  and  C_13
REMARK    6  A    between atoms: C_13  and  C_14
REMARK    7  A    between atoms: C_19  and  C_20
REMARK                            x       y       z     vdW  Elec       q    Type
REMARK                         _______ _______ _______ _____ _____    ______ ____
ROOT
ATOM      1  O   UNL     1       4.694   1.494   0.807  0.00  0.00    +0.000 OA
ENDROOT
BRANCH   1   7
ATOM      2  C   UNL     1       3.243  -0.541   0.719  0.00  0.00    +0.000 A 
ATOM      3  C   UNL     1       3.096  -1.859   1.169  0.00  0.00    +0.000 A 
ATOM      4  C   UNL     1       4.048  -2.461   2.007  0.00  0.00    +0.000 A 
ATOM      5  C   UNL     1       5.169  -1.726   2.396  0.00  0.00    +0.000 A 
ATOM      6  C   UNL     1       5.322  -0.408   1.955  0.00  0.00    +0.000 A 
ATOM      7  C   UNL     1       4.370   0.199   1.121  0.00  0.00    +0.000 A 
BRANCH   4   8
ATOM      8  C   UNL     1       3.796  -3.872   2.423  0.00  0.00    +0.000 C 
ATOM      9  N   UNL     1       4.723  -4.505   3.201  0.00  0.00    +0.000 N 
ATOM     10  O   UNL     1       2.782  -4.467   2.079  0.00  0.00    +0.000 OA
ATOM     11  H   UNL     1       5.594  -4.110   3.514  0.00  0.00    +0.000 HD
ATOM     12  H   UNL     1       4.519  -5.465   3.452  0.00  0.00    +0.000 HD
ENDBRANCH   4   8
BRANCH   2  14
ATOM     13  C   UNL     1       1.035  -0.477  -0.194  0.00  0.00    +0.000 C 
ATOM     14  O   UNL     1       2.361   0.037  -0.155  0.00  0.00    +0.000 OA
ENDBRANCH   2  14
ENDBRANCH   1   7
BRANCH   1  15
ATOM     15  C   UNL     1       3.762   2.257   0.041  0.00  0.00    +0.000 C 
BRANCH  15  16
ATOM     16  C   UNL     1       4.240   3.682  -0.138  0.00  0.00    +0.000 A 
ATOM     17  C   UNL     1       3.303   4.698  -0.368  0.00  0.00    +0.000 A 
ATOM     18  C   UNL     1       3.730   6.002  -0.599  0.00  0.00    +0.000 A 
ATOM     19  C   UNL     1       5.092   6.296  -0.604  0.00  0.00    +0.000 A 
ATOM     20  F   UNL     1       5.449   7.566  -0.852  0.00  0.00    +0.000 F 
ATOM     21  C   UNL     1       6.070   5.314  -0.374  0.00  0.00    +0.000 A 
ATOM     22  C   UNL     1       5.609   4.000  -0.156  0.00  0.00    +0.000 A 
BRANCH  21  23
ATOM     23  C   UNL     1       7.515   5.626  -0.329  0.00  0.00    +0.000 A 
ATOM     24  C   UNL     1       8.493   4.722  -0.773  0.00  0.00    +0.000 A 
ATOM     25  C   UNL     1       9.850   5.029  -0.670  0.00  0.00    +0.000 A 
ATOM     26  C   UNL     1      10.207   6.251  -0.131  0.00  0.00    +0.000 A 
ATOM     27  N   UNL     1       9.314   7.160   0.303  0.00  0.00    +0.000 NA
ATOM     28  C   UNL     1       8.002   6.826   0.194  0.00  0.00    +0.000 A 
ENDBRANCH  21  23
ENDBRANCH  15  16
ENDBRANCH   1  15
TORSDOF 6
