REMARK  Name = 
REMARK  7 active torsions:
REMARK  status: ('A' for Active; 'I' for Inactive)
REMARK    1  A    between atoms: C_1  and  C_2
REMARK    2  A    between atoms: C_2  and  N_3
REMARK    3  A    between atoms: C_2  and  C_16
REMARK    4  A    between atoms: C_4  and  C_6
REMARK    5  A    between atoms: C_19  and  C_20
REMARK    6  A    between atoms: C_20  and  N_21
REMARK    7  A    between atoms: C_22  and  C_24
REMARK                            x       y       z     vdW  Elec       q    Type
REMARK                         _______ _______ _______ _____ _____    ______ ____
ROOT
ATOM      1  C   UNL     1       3.120  -1.294   0.761  0.00  0.00    +0.000 C 
ATOM      2  C   UNL     1       2.451  -0.153  -0.013  0.00  0.00    +0.000 C 
ENDROOT
BRANCH   2   3
ATOM      3  C   UNL     1       2.992   0.049  -1.421  0.00  0.00    +0.000 A 
ATOM      4  C   UNL     1       3.072   1.353  -1.941  0.00  0.00    +0.000 A 
ATOM      5  C   UNL     1       3.593   1.596  -3.218  0.00  0.00    +0.000 A 
ATOM      6  C   UNL     1       4.030   0.538  -4.023  0.00  0.00    +0.000 A 
ATOM      7  C   UNL     1       3.951  -0.764  -3.511  0.00  0.00    +0.000 A 
ATOM      8  C   UNL     1       3.425  -1.007  -2.234  0.00  0.00    +0.000 A 
BRANCH   6   9
ATOM      9  C   UNL     1       4.539   0.787  -5.420  0.00  0.00    +0.000 C 
BRANCH   9  10
ATOM     10  N   UNL     1       5.956   1.031  -5.477  0.00  0.00    +0.000 N 
ATOM     11  C   UNL     1       6.605   1.176  -6.684  0.00  0.00    +0.000 C 
ATOM     12  O   UNL     1       6.034   1.103  -7.771  0.00  0.00    +0.000 OA
ATOM     13  H   UNL     1       6.510   1.179  -4.640  0.00  0.00    +0.000 HD
BRANCH  11  14
ATOM     14  C   UNL     1       8.051   1.424  -6.565  0.00  0.00    +0.000 A 
ATOM     15  C   UNL     1       8.969   1.655  -7.624  0.00  0.00    +0.000 A 
ATOM     16  C   UNL     1      10.195   1.810  -7.022  0.00  0.00    +0.000 A 
ATOM     17  N   UNL     1       9.972   1.671  -5.685  0.00  0.00    +0.000 N 
ATOM     18  N   UNL     1       8.682   1.452  -5.371  0.00  0.00    +0.000 NA
ATOM     19  H   UNL     1      10.650   1.712  -4.932  0.00  0.00    +0.000 HD
ENDBRANCH  11  14
ENDBRANCH   9  10
ENDBRANCH   6   9
ENDBRANCH   2   3
BRANCH   2  20
ATOM     20  N   UNL     1       1.006  -0.321  -0.027  0.00  0.00    +0.000 N 
ATOM     21  C   UNL     1       0.234   0.112   1.026  0.00  0.00    +0.000 C 
ATOM     22  O   UNL     1       0.720   0.703   1.988  0.00  0.00    +0.000 OA
ATOM     23  H   UNL     1       0.613  -0.968  -0.704  0.00  0.00    +0.000 HD
BRANCH  21  24
ATOM     24  C   UNL     1      -1.214  -0.106   0.937  0.00  0.00    +0.000 A 
ATOM     25  C   UNL     1      -2.072   0.755   1.610  0.00  0.00    +0.000 A 
ATOM     26  S   UNL     1      -3.720   0.359   1.434  0.00  0.00    +0.000 S 
ATOM     27  C   UNL     1      -3.344  -1.004   0.489  0.00  0.00    +0.000 A 
ATOM     28  N   UNL     1      -4.323  -1.836   0.044  0.00  0.00    +0.000 NA
ATOM     29  C   UNL     1      -3.895  -2.850  -0.630  0.00  0.00    +0.000 A 
ATOM     30  N   UNL     1      -2.577  -3.098  -0.915  0.00  0.00    +0.000 N 
ATOM     31  C   UNL     1      -1.556  -2.258  -0.528  0.00  0.00    +0.000 A 
ATOM     32  O   UNL     1      -0.394  -2.457  -0.868  0.00  0.00    +0.000 OA
ATOM     33  C   UNL     1      -1.983  -1.128   0.273  0.00  0.00    +0.000 A 
ATOM     34  H   UNL     1      -2.311  -3.897  -1.471  0.00  0.00    +0.000 HD
ENDBRANCH  21  24
ENDBRANCH   2  20
TORSDOF 6
