REMARK  Name = 
REMARK  6 active torsions:
REMARK  status: ('A' for Active; 'I' for Inactive)
REMARK    1  A    between atoms: C_2  and  C_19
REMARK    2  A    between atoms: N_3  and  C_4
REMARK    3  A    between atoms: C_4  and  C_5
REMARK    4  A    between atoms: C_8  and  O_9
REMARK    5  A    between atoms: O_9  and  C_10
REMARK    6  A    between atoms: C_10  and  C_11
REMARK                            x       y       z     vdW  Elec       q    Type
REMARK                         _______ _______ _______ _____ _____    ______ ____
ROOT
ATOM      1  O   UNL     1       4.163   0.071  -0.879  0.00  0.00    +0.000 OA
ATOM      2  C   UNL     1       3.636  -0.614  -0.007  0.00  0.00    +0.000 C 
ATOM      3  N   UNL     1       2.794  -1.656  -0.299  0.00  0.00    +0.000 N 
ATOM      4  H   UNL     1       2.292  -2.114   0.454  0.00  0.00    +0.000 HD
ENDROOT
BRANCH   2   5
ATOM      5  C   UNL     1       3.902  -0.378   1.418  0.00  0.00    +0.000 A 
ATOM      6  C   UNL     1       5.064   0.273   1.807  0.00  0.00    +0.000 A 
ATOM      7  S   UNL     1       5.213   0.453   3.496  0.00  0.00    +0.000 S 
ATOM      8  C   UNL     1       3.707  -0.293   3.765  0.00  0.00    +0.000 A 
ATOM      9  N   UNL     1       3.210  -0.436   5.023  0.00  0.00    +0.000 NA
ATOM     10  C   UNL     1       2.041  -0.980   5.077  0.00  0.00    +0.000 A 
ATOM     11  N   UNL     1       1.325  -1.402   3.987  0.00  0.00    +0.000 N 
ATOM     12  C   UNL     1       1.812  -1.335   2.704  0.00  0.00    +0.000 A 
ATOM     13  O   UNL     1       1.193  -1.820   1.762  0.00  0.00    +0.000 OA
ATOM     14  C   UNL     1       3.110  -0.696   2.584  0.00  0.00    +0.000 A 
ATOM     15  H   UNL     1       0.423  -1.843   4.100  0.00  0.00    +0.000 HD
ENDBRANCH   2   5
BRANCH   3  16
ATOM     16  C   UNL     1       2.371  -1.967  -1.641  0.00  0.00    +0.000 C 
BRANCH  16  17
ATOM     17  C   UNL     1       3.307  -2.923  -2.320  0.00  0.00    +0.000 A 
ATOM     18  C   UNL     1       4.408  -2.472  -3.051  0.00  0.00    +0.000 A 
ATOM     19  C   UNL     1       5.247  -3.390  -3.677  0.00  0.00    +0.000 A 
ATOM     20  C   UNL     1       4.975  -4.737  -3.521  0.00  0.00    +0.000 A 
ATOM     21  N   UNL     1       3.930  -5.214  -2.811  0.00  0.00    +0.000 NA
ATOM     22  C   UNL     1       3.122  -4.297  -2.230  0.00  0.00    +0.000 A 
BRANCH  20  23
ATOM     23  O   UNL     1       5.813  -5.623  -4.169  0.00  0.00    +0.000 OA
BRANCH  23  24
ATOM     24  C   UNL     1       5.770  -6.923  -3.580  0.00  0.00    +0.000 C 
BRANCH  24  25
ATOM     25  C   UNL     1       6.620  -7.860  -4.394  0.00  0.00    +0.000 A 
ATOM     26  C   UNL     1       6.278  -8.191  -5.709  0.00  0.00    +0.000 A 
ATOM     27  C   UNL     1       7.061  -9.094  -6.420  0.00  0.00    +0.000 A 
ATOM     28  C   UNL     1       8.168  -9.639  -5.790  0.00  0.00    +0.000 A 
ATOM     29  N   UNL     1       8.532  -9.344  -4.524  0.00  0.00    +0.000 NA
ATOM     30  C   UNL     1       7.752  -8.462  -3.857  0.00  0.00    +0.000 A 
ENDBRANCH  24  25
ENDBRANCH  23  24
ENDBRANCH  20  23
ENDBRANCH  16  17
ENDBRANCH   3  16
TORSDOF 6
