REMARK  Name = 
REMARK  5 active torsions:
REMARK  status: ('A' for Active; 'I' for Inactive)
REMARK    1  A    between atoms: C_7  and  C_8
REMARK    2  A    between atoms: N_10  and  C_11
REMARK    3  A    between atoms: C_11  and  C_12
REMARK    4  A    between atoms: C_15  and  O_16
REMARK    5  A    between atoms: O_16  and  C_17
REMARK                            x       y       z     vdW  Elec       q    Type
REMARK                         _______ _______ _______ _____ _____    ______ ____
ROOT
ATOM      1  C   UNL     1      -2.873  -2.026   0.628  0.00  0.00    +0.000 C 
ATOM      2  O   UNL     1      -3.958  -1.991   1.208  0.00  0.00    +0.000 OA
ATOM      3  N   UNL     1      -2.324  -3.207   0.189  0.00  0.00    +0.000 N 
ATOM      4  H   UNL     1      -1.494  -3.191  -0.399  0.00  0.00    +0.000 HD
ENDROOT
BRANCH   1  11
ATOM      5  N   UNL     1       2.597   1.147  -1.649  0.00  0.00    +0.000 N 
ATOM      6  C   UNL     1       1.434   0.635  -1.167  0.00  0.00    +0.000 A 
ATOM      7  N   UNL     1       0.573   1.417  -0.571  0.00  0.00    +0.000 NA
ATOM      8  C   UNL     1      -0.534   0.769  -0.133  0.00  0.00    +0.000 A 
ATOM      9  N   UNL     1      -1.557   1.390   0.516  0.00  0.00    +0.000 N 
ATOM     10  C   UNL     1      -2.508   0.453   0.840  0.00  0.00    +0.000 A 
ATOM     11  C   UNL     1      -2.095  -0.803   0.396  0.00  0.00    +0.000 A 
ATOM     12  C   UNL     1      -0.842  -0.568  -0.247  0.00  0.00    +0.000 A 
ATOM     13  C   UNL     1       0.111  -1.397  -0.943  0.00  0.00    +0.000 A 
ATOM     14  O   UNL     1      -0.062  -2.587  -1.185  0.00  0.00    +0.000 OA
ATOM     15  N   UNL     1       1.244  -0.713  -1.340  0.00  0.00    +0.000 N 
ATOM     16  H   UNL     1       2.792   2.077  -1.292  0.00  0.00    +0.000 HD
ATOM     17  H   UNL     1       3.407   0.543  -1.646  0.00  0.00    +0.000 HD
ATOM     18  H   UNL     1      -1.592   2.379   0.724  0.00  0.00    +0.000 HD
ATOM     19  H   UNL     1       1.918  -1.251  -1.857  0.00  0.00    +0.000 HD
ENDBRANCH   1  11
BRANCH   3  20
ATOM     20  C   UNL     1      -3.014  -4.465   0.343  0.00  0.00    +0.000 C 
BRANCH  20  21
ATOM     21  C   UNL     1      -2.051  -5.622   0.422  0.00  0.00    +0.000 A 
ATOM     22  C   UNL     1      -1.486  -5.967   1.662  0.00  0.00    +0.000 A 
ATOM     23  C   UNL     1      -0.558  -7.005   1.756  0.00  0.00    +0.000 A 
ATOM     24  C   UNL     1      -0.238  -7.776   0.634  0.00  0.00    +0.000 A 
ATOM     25  C   UNL     1      -0.777  -7.426  -0.606  0.00  0.00    +0.000 A 
ATOM     26  C   UNL     1      -1.669  -6.349  -0.711  0.00  0.00    +0.000 A 
BRANCH  24  27
ATOM     27  O   UNL     1       0.620  -8.856   0.658  0.00  0.00    +0.000 OA
BRANCH  27  28
ATOM     28  C   UNL     1       0.696  -9.630   1.792  0.00  0.00    +0.000 A 
ATOM     29  C   UNL     1      -0.374  -9.880   2.650  0.00  0.00    +0.000 A 
ATOM     30  C   UNL     1      -0.168 -10.607   3.818  0.00  0.00    +0.000 A 
ATOM     31  C   UNL     1       1.092 -11.129   4.050  0.00  0.00    +0.000 A 
ATOM     32  N   UNL     1       2.135 -10.977   3.204  0.00  0.00    +0.000 NA
ATOM     33  C   UNL     1       1.912 -10.232   2.093  0.00  0.00    +0.000 A 
ENDBRANCH  27  28
ENDBRANCH  24  27
ENDBRANCH  20  21
ENDBRANCH   3  20
TORSDOF 5
