REMARK  Name = 
REMARK  9 active torsions:
REMARK  status: ('A' for Active; 'I' for Inactive)
REMARK    1  A    between atoms: C_1  and  O_2
REMARK    2  A    between atoms: O_2  and  C_3
REMARK    3  A    between atoms: C_10  and  C_11
REMARK    4  A    between atoms: N_13  and  C_14
REMARK    5  A    between atoms: C_14  and  C_15
REMARK    6  A    between atoms: C_18  and  C_19
REMARK    7  A    between atoms: C_19  and  N_20
REMARK    8  A    between atoms: N_20  and  C_21
REMARK    9  A    between atoms: C_21  and  C_22
REMARK                            x       y       z     vdW  Elec       q    Type
REMARK                         _______ _______ _______ _____ _____    ______ ____
ROOT
ATOM      1  C   UNL     1       2.947   2.589   2.260  0.00  0.00    +0.000 C 
ENDROOT
BRANCH   1   2
ATOM      2  C   UNL     1       1.741   3.095   1.511  0.00  0.00    +0.000 A 
ATOM      3  C   UNL     1       0.686   2.230   1.195  0.00  0.00    +0.000 A 
ATOM      4  C   UNL     1      -0.406   2.682   0.447  0.00  0.00    +0.000 A 
ATOM      5  C   UNL     1      -0.466   4.007  -0.008  0.00  0.00    +0.000 A 
ATOM      6  C   UNL     1       0.582   4.876   0.324  0.00  0.00    +0.000 A 
ATOM      7  C   UNL     1       1.676   4.424   1.072  0.00  0.00    +0.000 A 
BRANCH   5   8
ATOM      8  C   UNL     1      -1.606   4.469  -0.889  0.00  0.00    +0.000 C 
BRANCH   8   9
ATOM      9  N   UNL     1      -2.903   4.334  -0.227  0.00  0.00    +0.000 NA
ATOM     10  H   UNL     1      -2.900   4.892   0.626  0.00  0.00    +0.000 HD
BRANCH   9  11
ATOM     11  C   UNL     1      -3.985   4.794  -1.097  0.00  0.00    +0.000 C 
BRANCH  11  12
ATOM     12  C   UNL     1      -5.324   4.679  -0.411  0.00  0.00    +0.000 A 
ATOM     13  C   UNL     1      -6.121   5.804  -0.187  0.00  0.00    +0.000 A 
ATOM     14  C   UNL     1      -7.347   5.638   0.442  0.00  0.00    +0.000 A 
ATOM     15  N   UNL     1      -7.826   4.446   0.854  0.00  0.00    +0.000 NA
ATOM     16  C   UNL     1      -7.044   3.370   0.628  0.00  0.00    +0.000 A 
ATOM     17  C   UNL     1      -5.807   3.433   0.005  0.00  0.00    +0.000 A 
ENDBRANCH  11  12
ENDBRANCH   9  11
ENDBRANCH   8   9
ENDBRANCH   5   8
ENDBRANCH   1   2
BRANCH   1  20
ATOM     18  C   UNL     1       5.102   1.499   1.826  0.00  0.00    +0.000 C 
ATOM     19  O   UNL     1       5.351   1.478   3.030  0.00  0.00    +0.000 OA
ATOM     20  N   UNL     1       3.936   2.042   1.358  0.00  0.00    +0.000 N 
ATOM     21  H   UNL     1       3.726   2.037   0.369  0.00  0.00    +0.000 HD
BRANCH  18  29
ATOM     22  C   UNL     1       5.101   1.222  -1.615  0.00  0.00    +0.000 A 
ATOM     23  N   UNL     1       5.337   0.944  -2.914  0.00  0.00    +0.000 NA
ATOM     24  C   UNL     1       6.466   0.301  -3.225  0.00  0.00    +0.000 A 
ATOM     25  N   UNL     1       7.414  -0.101  -2.384  0.00  0.00    +0.000 NA
ATOM     26  C   UNL     1       7.133   0.184  -1.101  0.00  0.00    +0.000 A 
ATOM     27  S   UNL     1       8.238  -0.253   0.111  0.00  0.00    +0.000 S 
ATOM     28  C   UNL     1       7.232   0.383   1.323  0.00  0.00    +0.000 A 
ATOM     29  C   UNL     1       6.048   0.934   0.846  0.00  0.00    +0.000 A 
ATOM     30  C   UNL     1       5.999   0.827  -0.611  0.00  0.00    +0.000 A 
BRANCH  22  32
ATOM     31  C   UNL     1       3.453   2.691  -2.371  0.00  0.00    +0.000 C 
ATOM     32  O   UNL     1       3.935   1.887  -1.297  0.00  0.00    +0.000 OA
ENDBRANCH  22  32
ENDBRANCH  18  29
ENDBRANCH   1  20
TORSDOF 8
