REMARK  Name = 
REMARK  6 active torsions:
REMARK  status: ('A' for Active; 'I' for Inactive)
REMARK    1  A    between atoms: N_1  and  C_2
REMARK    2  A    between atoms: C_2  and  C_3
REMARK    3  A    between atoms: C_8  and  C_9
REMARK    4  A    between atoms: C_9  and  C_10
REMARK    5  A    between atoms: N_13  and  C_14
REMARK    6  A    between atoms: C_14  and  C_15
REMARK                            x       y       z     vdW  Elec       q    Type
REMARK                         _______ _______ _______ _____ _____    ______ ____
ROOT
ATOM      1  C   UNL     1       3.828  -2.236   1.415  0.00  0.00    +0.000 C 
ATOM      2  O   UNL     1       3.336  -2.398   0.055  0.00  0.00    +0.000 OA
ATOM      3  C   UNL     1       1.887  -2.427   0.075  0.00  0.00    +0.000 C 
ATOM      4  C   UNL     1       1.538  -2.776   1.474  0.00  0.00    +0.000 A 
ATOM      5  C   UNL     1       0.340  -3.159   2.054  0.00  0.00    +0.000 A 
ATOM      6  C   UNL     1       0.340  -3.470   3.422  0.00  0.00    +0.000 A 
ATOM      7  C   UNL     1       1.555  -3.382   4.110  0.00  0.00    +0.000 A 
ATOM      8  N   UNL     1       2.719  -2.962   3.570  0.00  0.00    +0.000 NA
ATOM      9  C   UNL     1       2.668  -2.684   2.256  0.00  0.00    +0.000 A 
ENDROOT
BRANCH   1  10
ATOM     10  C   UNL     1       5.083  -3.089   1.673  0.00  0.00    +0.000 C 
BRANCH  10  11
ATOM     11  N   UNL     1       6.280  -2.669   0.928  0.00  0.00    +0.000 NA
ATOM     12  H   UNL     1       7.060  -3.270   1.193  0.00  0.00    +0.000 HD
ATOM     13  H   UNL     1       6.540  -1.723   1.203  0.00  0.00    +0.000 HD
ENDBRANCH  10  11
ENDBRANCH   1  10
BRANCH   6  14
ATOM     14  C   UNL     1      -0.882  -3.978   4.134  0.00  0.00    +0.000 C 
BRANCH  14  15
ATOM     15  C   UNL     1      -1.759  -3.046   5.013  0.00  0.00    +0.000 C 
ATOM     16  C   UNL     1      -2.545  -1.984   4.241  0.00  0.00    +0.000 C 
ATOM     17  C   UNL     1      -1.708  -0.765   3.867  0.00  0.00    +0.000 C 
ATOM     18  N   UNL     1      -0.996  -0.150   4.995  0.00  0.00    +0.000 NA
ATOM     19  C   UNL     1      -0.314  -1.101   5.883  0.00  0.00    +0.000 C 
ATOM     20  C   UNL     1      -1.080  -2.382   6.213  0.00  0.00    +0.000 C 
BRANCH  18  21
ATOM     21  C   UNL     1       0.010   0.840   4.492  0.00  0.00    +0.000 C 
BRANCH  21  22
ATOM     22  C   UNL     1      -0.427   2.028   3.611  0.00  0.00    +0.000 C 
ATOM     23  F   UNL     1      -1.763   2.207   3.571  0.00  0.00    +0.000 F 
ATOM     24  F   UNL     1       0.121   3.183   4.059  0.00  0.00    +0.000 F 
ATOM     25  F   UNL     1      -0.003   1.855   2.334  0.00  0.00    +0.000 F 
ENDBRANCH  21  22
ENDBRANCH  18  21
ENDBRANCH  14  15
ENDBRANCH   6  14
TORSDOF 6
