REMARK  Name = 
REMARK  5 active torsions:
REMARK  status: ('A' for Active; 'I' for Inactive)
REMARK    1  A    between atoms: C_2  and  C_3
REMARK    2  A    between atoms: C_6  and  C_7
REMARK    3  A    between atoms: C_11  and  C_12
REMARK    4  A    between atoms: C_12  and  N_13
REMARK    5  A    between atoms: C_18  and  C_19
REMARK                            x       y       z     vdW  Elec       q    Type
REMARK                         _______ _______ _______ _____ _____    ______ ____
ROOT
ATOM      1  C   UNL     1       6.393  -2.191  -1.730  0.00  0.00    +0.000 C 
ATOM      2  C   UNL     1       7.474  -1.589  -2.614  0.00  0.00    +0.000 C 
ATOM      3  C   UNL     1       6.138  -1.900  -3.199  0.00  0.00    +0.000 C 
ENDROOT
BRANCH   1   4
ATOM      4  N   UNL     1       6.559  -3.585  -1.276  0.00  0.00    +0.000 N 
ATOM      5  C   UNL     1       5.511  -4.518  -1.254  0.00  0.00    +0.000 A 
ATOM      6  C   UNL     1       4.535  -4.638  -2.249  0.00  0.00    +0.000 A 
ATOM      7  N   UNL     1       3.570  -5.599  -2.263  0.00  0.00    +0.000 NA
ATOM      8  C   UNL     1       3.615  -6.468  -1.228  0.00  0.00    +0.000 A 
ATOM      9  C   UNL     1       4.568  -6.357  -0.231  0.00  0.00    +0.000 A 
ATOM     10  N   UNL     1       5.533  -5.389  -0.222  0.00  0.00    +0.000 NA
ATOM     11  H   UNL     1       7.049  -3.698  -0.390  0.00  0.00    +0.000 HD
BRANCH   9  12
ATOM     12  C   UNL     1       4.572  -7.321   0.902  0.00  0.00    +0.000 C 
ATOM     13  N   UNL     1       5.555  -7.124   1.833  0.00  0.00    +0.000 N 
ATOM     14  O   UNL     1       3.753  -8.225   1.001  0.00  0.00    +0.000 OA
ATOM     15  H   UNL     1       6.217  -6.366   1.715  0.00  0.00    +0.000 HD
ATOM     16  H   UNL     1       5.620  -7.739   2.632  0.00  0.00    +0.000 HD
ENDBRANCH   9  12
ENDBRANCH   1   4
BRANCH   1  21
ATOM     17  C   UNL     1       3.814  -0.134   0.271  0.00  0.00    +0.000 A 
ATOM     18  C   UNL     1       4.630   0.418   1.269  0.00  0.00    +0.000 A 
ATOM     19  C   UNL     1       6.000   0.148   1.309  0.00  0.00    +0.000 A 
ATOM     20  C   UNL     1       6.578  -0.691   0.353  0.00  0.00    +0.000 A 
ATOM     21  C   UNL     1       5.806  -1.265  -0.669  0.00  0.00    +0.000 A 
ATOM     22  C   UNL     1       4.437  -0.960  -0.683  0.00  0.00    +0.000 A 
BRANCH  17  26
ATOM     23  C   UNL     1      -0.418   0.622  -0.061  0.00  0.00    +0.000 A 
ATOM     24  C   UNL     1       0.113  -0.596  -0.485  0.00  0.00    +0.000 A 
ATOM     25  C   UNL     1       1.481  -0.840  -0.345  0.00  0.00    +0.000 A 
ATOM     26  C   UNL     1       2.358   0.126   0.191  0.00  0.00    +0.000 A 
ATOM     27  C   UNL     1       1.800   1.341   0.613  0.00  0.00    +0.000 A 
ATOM     28  C   UNL     1       0.429   1.576   0.491  0.00  0.00    +0.000 A 
ATOM     29  F   UNL     1      -0.059   2.755   0.912  0.00  0.00    +0.000 F 
BRANCH  23  31
ATOM     30  N   UNL     1      -2.949   1.066  -0.322  0.00  0.00    +0.000 NA
ATOM     31  C   UNL     1      -1.809   0.883  -0.195  0.00  0.00    +0.000 C 
ENDBRANCH  23  31
ENDBRANCH  17  26
ENDBRANCH   1  21
TORSDOF 5
