REMARK  Name = 
REMARK  9 active torsions:
REMARK  status: ('A' for Active; 'I' for Inactive)
REMARK    1  A    between atoms: C_1  and  O_2
REMARK    2  A    between atoms: O_2  and  C_3
REMARK    3  A    between atoms: C_5  and  C_6
REMARK    4  A    between atoms: C_6  and  N_7
REMARK    5  A    between atoms: C_8  and  C_10
REMARK    6  A    between atoms: C_22  and  C_23
REMARK    7  A    between atoms: C_23  and  N_24
REMARK    8  A    between atoms: N_24  and  C_25
REMARK    9  A    between atoms: C_25  and  C_26
REMARK                            x       y       z     vdW  Elec       q    Type
REMARK                         _______ _______ _______ _____ _____    ______ ____
ROOT
ATOM      1  C   UNL     1       3.243  -0.549   0.985  0.00  0.00    +0.000 A 
ATOM      2  C   UNL     1       2.845  -1.816   1.450  0.00  0.00    +0.000 A 
ATOM      3  C   UNL     1       3.595  -2.514   2.411  0.00  0.00    +0.000 A 
ATOM      4  C   UNL     1       4.749  -1.913   2.917  0.00  0.00    +0.000 A 
ATOM      5  C   UNL     1       5.124  -0.636   2.495  0.00  0.00    +0.000 A 
ATOM      6  C   UNL     1       4.359   0.084   1.557  0.00  0.00    +0.000 A 
ENDROOT
BRANCH   1   8
ATOM      7  C   UNL     1       3.044   0.555  -1.104  0.00  0.00    +0.000 C 
ATOM      8  O   UNL     1       2.406   0.018   0.056  0.00  0.00    +0.000 OA
ENDBRANCH   1   8
BRANCH   3   9
ATOM      9  C   UNL     1       3.156  -3.861   2.933  0.00  0.00    +0.000 C 
BRANCH   9  10
ATOM     10  N   UNL     1       2.341  -3.729   4.118  0.00  0.00    +0.000 N 
ATOM     11  C   UNL     1       1.984  -4.822   4.869  0.00  0.00    +0.000 C 
ATOM     12  O   UNL     1       2.389  -5.952   4.604  0.00  0.00    +0.000 OA
ATOM     13  H   UNL     1       1.820  -2.864   4.219  0.00  0.00    +0.000 HD
BRANCH  11  14
ATOM     14  C   UNL     1       1.140  -4.572   6.048  0.00  0.00    +0.000 A 
ATOM     15  C   UNL     1       1.090  -5.508   7.073  0.00  0.00    +0.000 A 
ATOM     16  S   UNL     1       0.116  -5.036   8.392  0.00  0.00    +0.000 S 
ATOM     17  C   UNL     1      -0.319  -3.584   7.620  0.00  0.00    +0.000 A 
ATOM     18  N   UNL     1      -1.163  -2.700   8.217  0.00  0.00    +0.000 NA
ATOM     19  C   UNL     1      -1.423  -1.650   7.510  0.00  0.00    +0.000 A 
ATOM     20  N   UNL     1      -0.910  -1.402   6.262  0.00  0.00    +0.000 N 
ATOM     21  C   UNL     1      -0.047  -2.262   5.623  0.00  0.00    +0.000 A 
ATOM     22  O   UNL     1       0.405  -2.006   4.517  0.00  0.00    +0.000 OA
ATOM     23  C   UNL     1       0.281  -3.456   6.379  0.00  0.00    +0.000 A 
ATOM     24  H   UNL     1      -1.150  -0.559   5.761  0.00  0.00    +0.000 HD
ENDBRANCH  11  14
ENDBRANCH   9  10
ENDBRANCH   3   9
BRANCH   6  25
ATOM     25  C   UNL     1       4.769   1.512   1.278  0.00  0.00    +0.000 C 
BRANCH  25  26
ATOM     26  N   UNL     1       3.714   2.505   1.485  0.00  0.00    +0.000 NA
ATOM     27  H   UNL     1       2.880   2.204   0.977  0.00  0.00    +0.000 HD
BRANCH  26  28
ATOM     28  C   UNL     1       3.307   2.634   2.890  0.00  0.00    +0.000 C 
BRANCH  28  29
ATOM     29  C   UNL     1       2.235   3.702   3.037  0.00  0.00    +0.000 A 
ATOM     30  C   UNL     1       2.507   5.011   2.649  0.00  0.00    +0.000 A 
ATOM     31  C   UNL     1       1.489   5.949   2.740  0.00  0.00    +0.000 A 
ATOM     32 CL   UNL     1       1.779   7.575   2.257  0.00  0.00    +0.000 Cl
ATOM     33  C   UNL     1       0.236   5.583   3.209  0.00  0.00    +0.000 A 
ATOM     34  C   UNL     1       0.052   4.264   3.573  0.00  0.00    +0.000 A 
ATOM     35  N   UNL     1       1.017   3.321   3.501  0.00  0.00    +0.000 NA
ENDBRANCH  28  29
ENDBRANCH  26  28
ENDBRANCH  25  26
ENDBRANCH   6  25
TORSDOF 8
