REMARK  Name = 
REMARK  10 active torsions:
REMARK  status: ('A' for Active; 'I' for Inactive)
REMARK    1  A    between atoms: C_1  and  C_2
REMARK    2  A    between atoms: C_5  and  O_6
REMARK    3  A    between atoms: O_6  and  C_7
REMARK    4  A    between atoms: C_9  and  N_10
REMARK    5  A    between atoms: N_10  and  C_11
REMARK    6  A    between atoms: C_11  and  C_12
REMARK    7  A    between atoms: C_12  and  C_15
REMARK    8  A    between atoms: C_18  and  S_19
REMARK    9  A    between atoms: S_19  and  C_20
REMARK   10  A    between atoms: C_26  and  C_27
REMARK                            x       y       z     vdW  Elec       q    Type
REMARK                         _______ _______ _______ _____ _____    ______ ____
ROOT
ATOM      1  C   UNL     1       1.430   2.524   1.866  0.00  0.00    +0.000 A 
ATOM      2  C   UNL     1       0.432   2.273   0.925  0.00  0.00    +0.000 A 
ATOM      3  C   UNL     1      -0.681   3.110   0.799  0.00  0.00    +0.000 A 
ATOM      4  C   UNL     1      -0.728   4.251   1.613  0.00  0.00    +0.000 A 
ATOM      5  C   UNL     1       0.275   4.523   2.561  0.00  0.00    +0.000 A 
ATOM      6  C   UNL     1       1.379   3.666   2.654  0.00  0.00    +0.000 A 
ENDROOT
BRANCH   5   7
ATOM      7  C   UNL     1       0.135   5.672   3.526  0.00  0.00    +0.000 C 
ATOM      8  F   UNL     1      -1.041   6.349   3.398  0.00  0.00    +0.000 F 
ATOM      9  F   UNL     1       0.181   5.259   4.824  0.00  0.00    +0.000 F 
ATOM     10  F   UNL     1       1.119   6.605   3.394  0.00  0.00    +0.000 F 
ENDBRANCH   5   7
BRANCH   3  11
ATOM     11  N   UNL     1      -1.670   2.912  -0.158  0.00  0.00    +0.000 N 
ATOM     12  H   UNL     1      -2.587   3.296   0.071  0.00  0.00    +0.000 HD
BRANCH  11  13
ATOM     13  C   UNL     1      -1.692   1.668  -0.952  0.00  0.00    +0.000 C 
BRANCH  13  14
ATOM     14  C   UNL     1      -2.927   1.534  -1.873  0.00  0.00    +0.000 C 
ATOM     15  F   UNL     1      -4.043   1.494  -1.083  0.00  0.00    +0.000 F 
ATOM     16  F   UNL     1      -3.054   2.675  -2.613  0.00  0.00    +0.000 F 
BRANCH  14  17
ATOM     17  C   UNL     1      -2.807   0.302  -2.755  0.00  0.00    +0.000 A 
ATOM     18  C   UNL     1      -3.306  -0.942  -2.329  0.00  0.00    +0.000 A 
ATOM     19  C   UNL     1      -3.193  -2.069  -3.150  0.00  0.00    +0.000 A 
ATOM     20  C   UNL     1      -2.573  -1.965  -4.398  0.00  0.00    +0.000 A 
ATOM     21  C   UNL     1      -2.055  -0.735  -4.831  0.00  0.00    +0.000 A 
ATOM     22  C   UNL     1      -2.172   0.388  -4.004  0.00  0.00    +0.000 A 
BRANCH  20  23
ATOM     23  S   UNL     1      -2.318  -3.423  -5.394  0.00  0.00    +0.000 S 
ATOM     24  C   UNL     1      -3.798  -3.587  -6.345  0.00  0.00    +0.000 C 
ATOM     25  O   UNL     1      -1.213  -3.148  -6.302  0.00  0.00    +0.000 OA
ATOM     26  O   UNL     1      -2.264  -4.544  -4.467  0.00  0.00    +0.000 OA
ENDBRANCH  20  23
ENDBRANCH  14  17
ENDBRANCH  13  14
ENDBRANCH  11  13
ENDBRANCH   3  11
BRANCH   1  27
ATOM     27  O   UNL     1       2.456   1.642   2.105  0.00  0.00    +0.000 OA
BRANCH  27  32
ATOM     28  C   UNL     1       0.114  -1.449   2.194  0.00  0.00    +0.000 C 
ATOM     29  C   UNL     1       0.902  -0.306   2.820  0.00  0.00    +0.000 C 
ATOM     30  N   UNL     1       1.835  -0.744   3.878  0.00  0.00    +0.000 NA
ATOM     31  C   UNL     1       2.951  -0.719   2.914  0.00  0.00    +0.000 C 
ATOM     32  C   UNL     1       2.127   0.226   2.008  0.00  0.00    +0.000 C 
ATOM     33  H   UNL     1       1.639  -1.643   4.311  0.00  0.00    +0.000 HD
ENDBRANCH  27  32
ENDBRANCH   1  27
TORSDOF 8
