REMARK  Name = 
REMARK  6 active torsions:
REMARK  status: ('A' for Active; 'I' for Inactive)
REMARK    1  A    between atoms: C_1  and  C_2
REMARK    2  A    between atoms: C_4  and  C_5
REMARK    3  A    between atoms: C_10  and  N_11
REMARK    4  A    between atoms: N_11  and  C_12
REMARK    5  A    between atoms: C_12  and  C_13
REMARK    6  A    between atoms: C_12  and  C_14
REMARK                            x       y       z     vdW  Elec       q    Type
REMARK                         _______ _______ _______ _____ _____    ______ ____
ROOT
ATOM      1  C   UNL     1      -1.451  -1.621   1.597  0.00  0.00    +0.000 C 
ATOM      2  C   UNL     1      -0.735  -0.683   0.665  0.00  0.00    +0.000 A 
ATOM      3  C   UNL     1      -1.265   0.616   0.489  0.00  0.00    +0.000 A 
ATOM      4  C   UNL     1      -0.655   1.551  -0.356  0.00  0.00    +0.000 A 
ATOM      5  C   UNL     1       0.505   1.181  -1.028  0.00  0.00    +0.000 A 
ATOM      6  C   UNL     1       1.057  -0.091  -0.831  0.00  0.00    +0.000 A 
ATOM      7  C   UNL     1       0.469  -1.044   0.020  0.00  0.00    +0.000 A 
ENDROOT
BRANCH   4   8
ATOM      8  C   UNL     1      -1.277   2.899  -0.492  0.00  0.00    +0.000 C 
ATOM      9  N   UNL     1      -0.711   3.804  -1.347  0.00  0.00    +0.000 N 
ATOM     10  O   UNL     1      -2.282   3.208   0.142  0.00  0.00    +0.000 OA
ATOM     11  H   UNL     1       0.098   3.638  -1.923  0.00  0.00    +0.000 HD
ATOM     12  H   UNL     1      -1.163   4.707  -1.414  0.00  0.00    +0.000 HD
ENDBRANCH   4   8
BRANCH   7  13
ATOM     13  N   UNL     1       1.012  -2.329   0.199  0.00  0.00    +0.000 N 
ATOM     14  H   UNL     1       0.391  -3.028  -0.202  0.00  0.00    +0.000 HD
BRANCH  13  15
ATOM     15  C   UNL     1       2.425  -2.580  -0.126  0.00  0.00    +0.000 C 
ATOM     16  C   UNL     1       2.622  -2.919  -1.610  0.00  0.00    +0.000 C 
BRANCH  15  17
ATOM     17  C   UNL     1       3.024  -3.720   0.693  0.00  0.00    +0.000 A 
ATOM     18  C   UNL     1       2.283  -4.835   1.110  0.00  0.00    +0.000 A 
ATOM     19  C   UNL     1       2.913  -5.916   1.736  0.00  0.00    +0.000 A 
ATOM     20  C   UNL     1       4.289  -5.899   1.953  0.00  0.00    +0.000 A 
ATOM     21  C   UNL     1       5.039  -4.796   1.558  0.00  0.00    +0.000 A 
ATOM     22  C   UNL     1       4.412  -3.716   0.936  0.00  0.00    +0.000 A 
ENDBRANCH  15  17
ENDBRANCH  13  15
ENDBRANCH   7  13
TORSDOF 4
