REMARK  Name = 
REMARK  4 active torsions:
REMARK  status: ('A' for Active; 'I' for Inactive)
REMARK    1  A    between atoms: C_2  and  C_3
REMARK    2  A    between atoms: C_6  and  C_7
REMARK    3  A    between atoms: C_7  and  N_8
REMARK    4  A    between atoms: C_12  and  C_13
REMARK                            x       y       z     vdW  Elec       q    Type
REMARK                         _______ _______ _______ _____ _____    ______ ____
ROOT
ATOM      1  N   UNL     1      -4.142  -1.088   0.672  0.00  0.00    +0.000 N 
ATOM      2  C   UNL     1      -4.226  -2.401   0.223  0.00  0.00    +0.000 A 
ATOM      3  C   UNL     1      -4.161  -2.774  -1.115  0.00  0.00    +0.000 A 
ATOM      4  C   UNL     1      -4.400  -4.105  -1.471  0.00  0.00    +0.000 A 
ATOM      5  C   UNL     1      -4.706  -5.031  -0.477  0.00  0.00    +0.000 A 
ATOM      6  C   UNL     1      -4.698  -4.591   0.836  0.00  0.00    +0.000 A 
ATOM      7  N   UNL     1      -4.466  -3.305   1.198  0.00  0.00    +0.000 NA
ATOM      8  H   UNL     1      -4.030  -1.109   1.680  0.00  0.00    +0.000 HD
ENDROOT
BRANCH   5   9
ATOM      9  C   UNL     1      -5.036  -6.444  -0.755  0.00  0.00    +0.000 C 
ATOM     10  N   UNL     1      -5.563  -6.733  -1.984  0.00  0.00    +0.000 N 
ATOM     11  O   UNL     1      -4.884  -7.315   0.090  0.00  0.00    +0.000 OA
ATOM     12  H   UNL     1      -5.894  -6.026  -2.624  0.00  0.00    +0.000 HD
ATOM     13  H   UNL     1      -5.874  -7.685  -2.133  0.00  0.00    +0.000 HD
ENDBRANCH   5   9
BRANCH   1  14
ATOM     14  C   UNL     1      -3.659   0.064  -0.094  0.00  0.00    +0.000 C 
ATOM     15  C   UNL     1      -4.457   0.659  -1.241  0.00  0.00    +0.000 C 
ATOM     16  C   UNL     1      -4.477   1.337   0.088  0.00  0.00    +0.000 C 
BRANCH  14  20
ATOM     17  C   UNL     1       0.629   0.033  -0.292  0.00  0.00    +0.000 A 
ATOM     18  C   UNL     1       0.016   0.774   0.712  0.00  0.00    +0.000 A 
ATOM     19  C   UNL     1      -1.378   0.821   0.765  0.00  0.00    +0.000 A 
ATOM     20  C   UNL     1      -2.135   0.140  -0.193  0.00  0.00    +0.000 A 
ATOM     21  N   UNL     1      -1.528  -0.556  -1.195  0.00  0.00    +0.000 NA
ATOM     22  C   UNL     1      -0.176  -0.606  -1.214  0.00  0.00    +0.000 A 
BRANCH  17  24
ATOM     23  N   UNL     1       3.201  -0.176  -0.434  0.00  0.00    +0.000 NA
ATOM     24  C   UNL     1       2.050  -0.081  -0.371  0.00  0.00    +0.000 C 
ENDBRANCH  17  24
ENDBRANCH  14  20
ENDBRANCH   1  14
TORSDOF 4
