REMARK  Name = 
REMARK  7 active torsions:
REMARK  status: ('A' for Active; 'I' for Inactive)
REMARK    1  A    between atoms: C_1  and  C_2
REMARK    2  A    between atoms: C_7  and  C_8
REMARK    3  A    between atoms: N_10  and  C_11
REMARK    4  A    between atoms: C_11  and  C_12
REMARK    5  A    between atoms: C_15  and  O_16
REMARK    6  A    between atoms: O_16  and  C_17
REMARK    7  A    between atoms: C_17  and  C_18
REMARK                            x       y       z     vdW  Elec       q    Type
REMARK                         _______ _______ _______ _____ _____    ______ ____
ROOT
ATOM      1  C   UNL     1       9.250   1.278   1.523  0.00  0.00    +0.000 C 
ATOM      2  O   UNL     1       9.529   0.530   0.587  0.00  0.00    +0.000 OA
ATOM      3  N   UNL     1       8.779   2.545   1.303  0.00  0.00    +0.000 N 
ATOM      4  H   UNL     1       8.537   3.157   2.076  0.00  0.00    +0.000 HD
ENDROOT
BRANCH   1  11
ATOM      5  C   UNL     1       8.674   2.801   8.186  0.00  0.00    +0.000 C 
ATOM      6  C   UNL     1       8.871   2.269   6.796  0.00  0.00    +0.000 A 
ATOM      7  N   UNL     1       9.326   1.077   6.590  0.00  0.00    +0.000 NA
ATOM      8  C   UNL     1       9.453   0.735   5.278  0.00  0.00    +0.000 A 
ATOM      9  S   UNL     1      10.039  -0.799   4.836  0.00  0.00    +0.000 S 
ATOM     10  C   UNL     1       9.898  -0.434   3.178  0.00  0.00    +0.000 A 
ATOM     11  C   UNL     1       9.412   0.843   2.921  0.00  0.00    +0.000 A 
ATOM     12  C   UNL     1       9.152   1.516   4.175  0.00  0.00    +0.000 A 
ATOM     13  C   UNL     1       8.639   2.842   4.458  0.00  0.00    +0.000 A 
ATOM     14  O   UNL     1       8.311   3.656   3.601  0.00  0.00    +0.000 OA
ATOM     15  N   UNL     1       8.532   3.146   5.793  0.00  0.00    +0.000 N 
ATOM     16  H   UNL     1       8.177   4.067   6.005  0.00  0.00    +0.000 HD
ENDBRANCH   1  11
BRANCH   3  17
ATOM     17  C   UNL     1       8.594   3.053  -0.032  0.00  0.00    +0.000 C 
BRANCH  17  18
ATOM     18  C   UNL     1       8.020   4.445  -0.018  0.00  0.00    +0.000 A 
ATOM     19  C   UNL     1       8.849   5.575  -0.009  0.00  0.00    +0.000 A 
ATOM     20  C   UNL     1       8.294   6.859  -0.024  0.00  0.00    +0.000 A 
ATOM     21  C   UNL     1       6.908   7.028  -0.046  0.00  0.00    +0.000 A 
ATOM     22  C   UNL     1       6.080   5.905   0.019  0.00  0.00    +0.000 A 
ATOM     23  C   UNL     1       6.633   4.625   0.025  0.00  0.00    +0.000 A 
BRANCH  21  24
ATOM     24  O   UNL     1       6.460   8.319  -0.134  0.00  0.00    +0.000 OA
BRANCH  24  25
ATOM     25  C   UNL     1       5.137   8.455  -0.664  0.00  0.00    +0.000 C 
BRANCH  25  26
ATOM     26  C   UNL     1       4.947   9.848  -1.199  0.00  0.00    +0.000 A 
ATOM     27  C   UNL     1       5.817  10.356  -2.168  0.00  0.00    +0.000 A 
ATOM     28  C   UNL     1       5.582  11.622  -2.674  0.00  0.00    +0.000 A 
ATOM     29  N   UNL     1       4.550  12.404  -2.291  0.00  0.00    +0.000 NA
ATOM     30  C   UNL     1       3.717  11.893  -1.359  0.00  0.00    +0.000 A 
ATOM     31  C   UNL     1       3.868  10.638  -0.792  0.00  0.00    +0.000 A 
ENDBRANCH  25  26
ENDBRANCH  24  25
ENDBRANCH  21  24
ENDBRANCH  17  18
ENDBRANCH   3  17
TORSDOF 6
