REMARK  Name = 
REMARK  7 active torsions:
REMARK  status: ('A' for Active; 'I' for Inactive)
REMARK    1  A    between atoms: C_2  and  C_20
REMARK    2  A    between atoms: N_3  and  C_4
REMARK    3  A    between atoms: C_4  and  C_5
REMARK    4  A    between atoms: C_8  and  C_9
REMARK    5  A    between atoms: C_9  and  N_10
REMARK    6  A    between atoms: N_10  and  C_11
REMARK    7  A    between atoms: C_11  and  C_12
REMARK                            x       y       z     vdW  Elec       q    Type
REMARK                         _______ _______ _______ _____ _____    ______ ____
ROOT
ATOM      1  C   UNL     1       4.032  -3.897  -1.339  0.00  0.00    +0.000 C 
ENDROOT
BRANCH   1   2
ATOM      2  C   UNL     1       3.287  -3.897   0.011  0.00  0.00    +0.000 C 
ATOM      3  C   UNL     1       2.557  -5.222   0.275  0.00  0.00    +0.000 C 
ATOM      4  C   UNL     1       3.518  -6.362   0.603  0.00  0.00    +0.000 C 
ATOM      5  C   UNL     1       4.411  -6.045   1.816  0.00  0.00    +0.000 C 
ATOM      6  C   UNL     1       5.136  -4.705   1.606  0.00  0.00    +0.000 C 
ATOM      7  C   UNL     1       4.226  -3.553   1.179  0.00  0.00    +0.000 C 
BRANCH   5   8
ATOM      8  C   UNL     1       3.638  -6.110   3.157  0.00  0.00    +0.000 C 
BRANCH   8   9
ATOM      9  N   UNL     1       3.123  -7.468   3.337  0.00  0.00    +0.000 NA
ATOM     10  H   UNL     1       3.892  -8.137   3.300  0.00  0.00    +0.000 HD
BRANCH   9  11
ATOM     11  C   UNL     1       2.374  -7.665   4.572  0.00  0.00    +0.000 C 
BRANCH  11  12
ATOM     12  C   UNL     1       1.864  -9.083   4.641  0.00  0.00    +0.000 A 
ATOM     13  C   UNL     1       1.012  -9.600   3.658  0.00  0.00    +0.000 A 
ATOM     14  C   UNL     1       0.582 -10.922   3.733  0.00  0.00    +0.000 A 
ATOM     15  C   UNL     1       1.016 -11.691   4.799  0.00  0.00    +0.000 A 
ATOM     16  N   UNL     1       1.830 -11.232   5.772  0.00  0.00    +0.000 NA
ATOM     17  C   UNL     1       2.235  -9.943   5.670  0.00  0.00    +0.000 A 
ENDBRANCH  11  12
ENDBRANCH   9  11
ENDBRANCH   8   9
ENDBRANCH   5   8
ENDBRANCH   1   2
BRANCH   1  20
ATOM     18  O   UNL     1       3.915  -5.938  -3.354  0.00  0.00    +0.000 OA
ATOM     19  C   UNL     1       3.137  -4.991  -3.395  0.00  0.00    +0.000 C 
ATOM     20  N   UNL     1       3.101  -4.004  -2.442  0.00  0.00    +0.000 N 
ATOM     21  H   UNL     1       2.521  -3.192  -2.608  0.00  0.00    +0.000 HD
BRANCH  19  22
ATOM     22  C   UNL     1       2.111  -4.877  -4.439  0.00  0.00    +0.000 A 
ATOM     23  C   UNL     1       1.604  -6.008  -5.063  0.00  0.00    +0.000 A 
ATOM     24  S   UNL     1       0.345  -5.665  -6.165  0.00  0.00    +0.000 S 
ATOM     25  C   UNL     1       0.476  -3.991  -5.883  0.00  0.00    +0.000 A 
ATOM     26  N   UNL     1      -0.342  -3.103  -6.512  0.00  0.00    +0.000 NA
ATOM     27  C   UNL     1      -0.113  -1.864  -6.211  0.00  0.00    +0.000 A 
ATOM     28  N   UNL     1       0.872  -1.435  -5.365  0.00  0.00    +0.000 N 
ATOM     29  C   UNL     1       1.717  -2.292  -4.705  0.00  0.00    +0.000 A 
ATOM     30  O   UNL     1       2.569  -1.873  -3.929  0.00  0.00    +0.000 OA
ATOM     31  C   UNL     1       1.478  -3.700  -4.977  0.00  0.00    +0.000 A 
ATOM     32  H   UNL     1       1.005  -0.451  -5.178  0.00  0.00    +0.000 HD
ENDBRANCH  19  22
ENDBRANCH   1  20
TORSDOF 7
