REMARK  Name = 
REMARK  4 active torsions:
REMARK  status: ('A' for Active; 'I' for Inactive)
REMARK    1  A    between atoms: C_2  and  C_4
REMARK    2  A    between atoms: C_7  and  O_8
REMARK    3  A    between atoms: O_8  and  C_9
REMARK    4  A    between atoms: C_9  and  C_10
REMARK                            x       y       z     vdW  Elec       q    Type
REMARK                         _______ _______ _______ _____ _____    ______ ____
ROOT
ATOM      1  C   UNL     1       3.060   2.237   0.244  0.00  0.00    +0.000 A 
ATOM      2  C   UNL     1       3.990   1.250   0.562  0.00  0.00    +0.000 A 
ATOM      3  C   UNL     1       4.779   1.410   1.698  0.00  0.00    +0.000 A 
ATOM      4  C   UNL     1       4.606   2.540   2.488  0.00  0.00    +0.000 A 
ATOM      5  N   UNL     1       3.715   3.516   2.216  0.00  0.00    +0.000 NA
ATOM      6  C   UNL     1       2.969   3.344   1.086  0.00  0.00    +0.000 A 
ENDROOT
BRANCH   1   8
ATOM      7  N   UNL     1       1.953   0.935  -1.494  0.00  0.00    +0.000 N 
ATOM      8  C   UNL     1       2.218   2.171  -0.971  0.00  0.00    +0.000 C 
ATOM      9  O   UNL     1       1.757   3.186  -1.483  0.00  0.00    +0.000 OA
ATOM     10  H   UNL     1       1.324   0.901  -2.288  0.00  0.00    +0.000 HD
ATOM     11  H   UNL     1       2.119   0.073  -0.995  0.00  0.00    +0.000 HD
ENDBRANCH   1   8
BRANCH   4  12
ATOM     12  O   UNL     1       5.472   2.636   3.561  0.00  0.00    +0.000 OA
BRANCH  12  13
ATOM     13  C   UNL     1       5.085   3.420   4.712  0.00  0.00    +0.000 C 
ATOM     14  C   UNL     1       4.892   2.497   5.917  0.00  0.00    +0.000 C 
ATOM     15  C   UNL     1       3.730   3.251   5.369  0.00  0.00    +0.000 C 
BRANCH  13  16
ATOM     16  C   UNL     1       5.830   4.731   4.922  0.00  0.00    +0.000 A 
ATOM     17  C   UNL     1       5.322   5.942   4.414  0.00  0.00    +0.000 A 
ATOM     18  C   UNL     1       5.963   7.162   4.658  0.00  0.00    +0.000 A 
ATOM     19  C   UNL     1       7.129   7.182   5.410  0.00  0.00    +0.000 A 
ATOM     20  F   UNL     1       7.735   8.351   5.662  0.00  0.00    +0.000 F 
ATOM     21  C   UNL     1       7.675   6.007   5.906  0.00  0.00    +0.000 A 
ATOM     22  C   UNL     1       7.032   4.793   5.654  0.00  0.00    +0.000 A 
ENDBRANCH  13  16
ENDBRANCH  12  13
ENDBRANCH   4  12
TORSDOF 4
