REMARK  Name = 
REMARK  7 active torsions:
REMARK  status: ('A' for Active; 'I' for Inactive)
REMARK    1  A    between atoms: C_2  and  C_20
REMARK    2  A    between atoms: N_3  and  C_4
REMARK    3  A    between atoms: C_4  and  C_5
REMARK    4  A    between atoms: C_8  and  C_9
REMARK    5  A    between atoms: C_9  and  O_10
REMARK    6  A    between atoms: C_9  and  C_11
REMARK    7  A    between atoms: C_11  and  C_12
REMARK                            x       y       z     vdW  Elec       q    Type
REMARK                         _______ _______ _______ _____ _____    ______ ____
ROOT
ATOM      1  C   UNL     1       3.213  -9.527  -7.422  0.00  0.00    +0.000 C 
ENDROOT
BRANCH   1   2
ATOM      2  C   UNL     1       3.812  -8.596  -6.408  0.00  0.00    +0.000 A 
ATOM      3  C   UNL     1       4.354  -7.361  -6.770  0.00  0.00    +0.000 A 
ATOM      4  C   UNL     1       4.936  -6.543  -5.801  0.00  0.00    +0.000 A 
ATOM      5  C   UNL     1       4.963  -6.975  -4.477  0.00  0.00    +0.000 A 
ATOM      6  N   UNL     1       4.418  -8.163  -4.096  0.00  0.00    +0.000 NA
ATOM      7  C   UNL     1       3.846  -8.930  -5.060  0.00  0.00    +0.000 A 
BRANCH   5   8
ATOM      8  C   UNL     1       5.721  -6.191  -3.412  0.00  0.00    +0.000 C 
BRANCH   8   9
ATOM      9  O   UNL     1       6.693  -7.080  -2.838  0.00  0.00    +0.000 OA
ATOM     10  H   UNL     1       6.289  -7.969  -2.893  0.00  0.00    +0.000 HD
ENDBRANCH   8   9
BRANCH   8  11
ATOM     11  C   UNL     1       4.790  -5.669  -2.303  0.00  0.00    +0.000 C 
BRANCH  11  12
ATOM     12  C   UNL     1       5.494  -4.824  -1.262  0.00  0.00    +0.000 A 
ATOM     13  C   UNL     1       6.061  -5.401  -0.121  0.00  0.00    +0.000 A 
ATOM     14  C   UNL     1       6.676  -4.595   0.835  0.00  0.00    +0.000 A 
ATOM     15  C   UNL     1       6.712  -3.229   0.615  0.00  0.00    +0.000 A 
ATOM     16  N   UNL     1       6.193  -2.633  -0.479  0.00  0.00    +0.000 NA
ATOM     17  C   UNL     1       5.602  -3.441  -1.389  0.00  0.00    +0.000 A 
ENDBRANCH  11  12
ENDBRANCH   8  11
ENDBRANCH   5   8
ENDBRANCH   1   2
BRANCH   1  20
ATOM     18  O   UNL     1       1.040 -10.808  -6.179  0.00  0.00    +0.000 OA
ATOM     19  C   UNL     1       0.817  -9.888  -6.962  0.00  0.00    +0.000 C 
ATOM     20  N   UNL     1       1.819  -9.249  -7.645  0.00  0.00    +0.000 N 
ATOM     21  H   UNL     1       1.607  -8.391  -8.142  0.00  0.00    +0.000 HD
BRANCH  19  22
ATOM     22  C   UNL     1      -0.550  -9.443  -7.259  0.00  0.00    +0.000 A 
ATOM     23  C   UNL     1      -1.621 -10.308  -7.075  0.00  0.00    +0.000 A 
ATOM     24  S   UNL     1      -3.127  -9.621  -7.487  0.00  0.00    +0.000 S 
ATOM     25  C   UNL     1      -2.405  -8.133  -7.886  0.00  0.00    +0.000 A 
ATOM     26  N   UNL     1      -3.154  -7.076  -8.302  0.00  0.00    +0.000 NA
ATOM     27  C   UNL     1      -2.481  -5.998  -8.525  0.00  0.00    +0.000 A 
ATOM     28  N   UNL     1      -1.122  -5.881  -8.379  0.00  0.00    +0.000 N 
ATOM     29  C   UNL     1      -0.317  -6.936  -8.036  0.00  0.00    +0.000 A 
ATOM     30  O   UNL     1       0.904  -6.835  -8.047  0.00  0.00    +0.000 OA
ATOM     31  C   UNL     1      -1.031  -8.165  -7.728  0.00  0.00    +0.000 A 
ATOM     32  H   UNL     1      -0.651  -5.016  -8.602  0.00  0.00    +0.000 HD
ENDBRANCH  19  22
ENDBRANCH   1  20
TORSDOF 7
