REMARK  Name = 
REMARK  11 active torsions:
REMARK  status: ('A' for Active; 'I' for Inactive)
REMARK    1  A    between atoms: C_1  and  C_2
REMARK    2  A    between atoms: C_2  and  C_3
REMARK    3  A    between atoms: C_2  and  C_4
REMARK    4  A    between atoms: C_2  and  C_23
REMARK    5  A    between atoms: C_4  and  N_5
REMARK    6  A    between atoms: N_5  and  C_6
REMARK    7  A    between atoms: C_10  and  C_11
REMARK    8  A    between atoms: C_14  and  O_15
REMARK    9  A    between atoms: O_15  and  C_16
REMARK   10  A    between atoms: C_26  and  S_27
REMARK   11  A    between atoms: S_27  and  C_28
REMARK                            x       y       z     vdW  Elec       q    Type
REMARK                         _______ _______ _______ _____ _____    ______ ____
ROOT
ATOM      1  C   UNL     1       3.035   1.666   3.294  0.00  0.00    +0.000 A 
ATOM      2  C   UNL     1       3.894   0.894   4.074  0.00  0.00    +0.000 A 
ATOM      3  N   UNL     1       4.228   1.158   5.358  0.00  0.00    +0.000 NA
ATOM      4  C   UNL     1       3.700   2.282   5.894  0.00  0.00    +0.000 A 
ATOM      5  C   UNL     1       2.852   3.167   5.229  0.00  0.00    +0.000 A 
ATOM      6  C   UNL     1       2.542   2.830   3.899  0.00  0.00    +0.000 A 
ENDROOT
BRANCH   5   7
ATOM      7  C   UNL     1       2.297   4.369   5.883  0.00  0.00    +0.000 A 
ATOM      8  C   UNL     1       2.109   5.573   5.181  0.00  0.00    +0.000 A 
ATOM      9  C   UNL     1       1.530   6.698   5.789  0.00  0.00    +0.000 A 
ATOM     10  C   UNL     1       1.101   6.635   7.110  0.00  0.00    +0.000 A 
ATOM     11  C   UNL     1       1.338   5.471   7.840  0.00  0.00    +0.000 A 
ATOM     12  C   UNL     1       1.919   4.353   7.235  0.00  0.00    +0.000 A 
BRANCH  10  13
ATOM     13  O   UNL     1       0.496   7.631   7.809  0.00  0.00    +0.000 OA
BRANCH  13  14
ATOM     14  C   UNL     1      -0.335   8.561   7.128  0.00  0.00    +0.000 C 
ATOM     15  F   UNL     1      -0.601   8.238   5.846  0.00  0.00    +0.000 F 
ATOM     16  F   UNL     1      -1.515   8.641   7.785  0.00  0.00    +0.000 F 
ATOM     17  F   UNL     1       0.245   9.780   7.159  0.00  0.00    +0.000 F 
ENDBRANCH  13  14
ENDBRANCH  10  13
ENDBRANCH   5   7
BRANCH   1  18
ATOM     18  N   UNL     1       2.740   1.433   1.947  0.00  0.00    +0.000 N 
ATOM     19  H   UNL     1       1.792   1.730   1.715  0.00  0.00    +0.000 HD
BRANCH  18  20
ATOM     20  C   UNL     1       3.118   0.154   1.340  0.00  0.00    +0.000 C 
BRANCH  20  22
ATOM     21  C   UNL     1       3.108   1.133  -0.990  0.00  0.00    +0.000 C 
ATOM     22  C   UNL     1       2.543  -0.004  -0.104  0.00  0.00    +0.000 C 
ATOM     23  C   UNL     1       3.086  -1.330  -0.690  0.00  0.00    +0.000 C 
BRANCH  22  24
ATOM     24  C   UNL     1       0.999  -0.053  -0.065  0.00  0.00    +0.000 A 
ATOM     25  C   UNL     1       0.201   0.907  -0.713  0.00  0.00    +0.000 A 
ATOM     26  C   UNL     1      -1.192   0.898  -0.593  0.00  0.00    +0.000 A 
ATOM     27  C   UNL     1      -1.813  -0.086   0.175  0.00  0.00    +0.000 A 
ATOM     28  C   UNL     1      -1.054  -1.063   0.817  0.00  0.00    +0.000 A 
ATOM     29  C   UNL     1       0.338  -1.048   0.687  0.00  0.00    +0.000 A 
BRANCH  27  30
ATOM     30  S   UNL     1      -3.570  -0.021   0.425  0.00  0.00    +0.000 S 
ATOM     31  C   UNL     1      -4.226  -0.960  -0.926  0.00  0.00    +0.000 C 
ATOM     32  O   UNL     1      -3.861  -0.739   1.655  0.00  0.00    +0.000 OA
ATOM     33  O   UNL     1      -3.980   1.358   0.258  0.00  0.00    +0.000 OA
ENDBRANCH  27  30
ENDBRANCH  22  24
ENDBRANCH  20  22
ENDBRANCH  18  20
ENDBRANCH   1  18
TORSDOF 8
