REMARK  Name = 
REMARK  5 active torsions:
REMARK  status: ('A' for Active; 'I' for Inactive)
REMARK    1  A    between atoms: C_1  and  C_2
REMARK    2  A    between atoms: C_9  and  C_10
REMARK    3  A    between atoms: C_10  and  N_11
REMARK    4  A    between atoms: N_11  and  C_12
REMARK    5  A    between atoms: C_15  and  C_16
REMARK                            x       y       z     vdW  Elec       q    Type
REMARK                         _______ _______ _______ _____ _____    ______ ____
ROOT
ATOM      1  C   UNL     1       2.385   4.527  -4.900  0.00  0.00    +0.000 C 
ATOM      2  C   UNL     1       2.754   4.720  -6.356  0.00  0.00    +0.000 C 
ATOM      3  C   UNL     1       3.814   4.295  -5.401  0.00  0.00    +0.000 C 
ENDROOT
BRANCH   1  12
ATOM      4  C   UNL     1       3.595  -1.272  -4.715  0.00  0.00    +0.000 C 
ATOM      5  C   UNL     1       3.615  -1.469  -3.201  0.00  0.00    +0.000 C 
ATOM      6  C   UNL     1       2.378  -0.899  -2.468  0.00  0.00    +0.000 C 
ATOM      7  N   UNL     1       2.439   0.558  -2.350  0.00  0.00    +0.000 N 
ATOM      8  C   UNL     1       1.748   1.301  -3.283  0.00  0.00    +0.000 A 
ATOM      9  N   UNL     1       0.644   0.813  -3.866  0.00  0.00    +0.000 NA
ATOM     10  C   UNL     1       0.012   1.604  -4.748  0.00  0.00    +0.000 A 
ATOM     11  C   UNL     1       0.465   2.851  -5.116  0.00  0.00    +0.000 A 
ATOM     12  C   UNL     1       1.630   3.263  -4.512  0.00  0.00    +0.000 A 
ATOM     13  N   UNL     1       2.227   2.511  -3.569  0.00  0.00    +0.000 NA
ATOM     14  C   UNL     1       3.728   1.079  -1.868  0.00  0.00    +0.000 C 
ATOM     15  C   UNL     1       4.909   0.460  -2.628  0.00  0.00    +0.000 C 
ATOM     16  O   UNL     1       4.847  -0.975  -2.638  0.00  0.00    +0.000 OA
ENDBRANCH   1  12
BRANCH   1  17
ATOM     17  N   UNL     1       2.312   5.605  -3.888  0.00  0.00    +0.000 N 
ATOM     18  H   UNL     1       2.477   5.276  -2.936  0.00  0.00    +0.000 HD
BRANCH  17  19
ATOM     19  C   UNL     1       1.393   6.663  -3.934  0.00  0.00    +0.000 A 
ATOM     20  C   UNL     1       1.360   7.586  -2.880  0.00  0.00    +0.000 A 
ATOM     21  C   UNL     1       0.533   8.703  -2.943  0.00  0.00    +0.000 A 
ATOM     22  C   UNL     1      -0.236   8.874  -4.086  0.00  0.00    +0.000 A 
ATOM     23  N   UNL     1      -0.226   8.017  -5.146  0.00  0.00    +0.000 NA
ATOM     24  C   UNL     1       0.598   6.953  -5.039  0.00  0.00    +0.000 A 
BRANCH  22  25
ATOM     25  C   UNL     1      -1.141  10.056  -4.227  0.00  0.00    +0.000 C 
ATOM     26  N   UNL     1      -1.837  10.100  -5.406  0.00  0.00    +0.000 N 
ATOM     27  O   UNL     1      -1.258  10.917  -3.366  0.00  0.00    +0.000 OA
ATOM     28  H   UNL     1      -1.695   9.359  -6.086  0.00  0.00    +0.000 HD
ATOM     29  H   UNL     1      -2.473  10.859  -5.593  0.00  0.00    +0.000 HD
ENDBRANCH  22  25
ENDBRANCH  17  19
ENDBRANCH   1  17
TORSDOF 4
