REMARK  Name = 
REMARK  4 active torsions:
REMARK  status: ('A' for Active; 'I' for Inactive)
REMARK    1  A    between atoms: C_2  and  C_4
REMARK    2  A    between atoms: C_7  and  O_8
REMARK    3  A    between atoms: O_8  and  C_9
REMARK    4  A    between atoms: C_9  and  C_10
REMARK                            x       y       z     vdW  Elec       q    Type
REMARK                         _______ _______ _______ _____ _____    ______ ____
ROOT
ATOM      1  C   UNL     1       3.018   1.427  -0.195  0.00  0.00    +0.000 A 
ATOM      2  C   UNL     1       3.619   1.223  -1.432  0.00  0.00    +0.000 A 
ATOM      3  N   UNL     1       4.442   2.145  -2.000  0.00  0.00    +0.000 NA
ATOM      4  C   UNL     1       4.650   3.272  -1.286  0.00  0.00    +0.000 A 
ATOM      5  C   UNL     1       4.072   3.440  -0.023  0.00  0.00    +0.000 A 
ATOM      6  N   UNL     1       3.232   2.549   0.545  0.00  0.00    +0.000 NA
ENDROOT
BRANCH   1   8
ATOM      7  N   UNL     1       1.501   0.754   1.567  0.00  0.00    +0.000 N 
ATOM      8  C   UNL     1       2.084   0.420   0.373  0.00  0.00    +0.000 C 
ATOM      9  O   UNL     1       1.836  -0.635  -0.196  0.00  0.00    +0.000 OA
ATOM     10  H   UNL     1       0.820   0.129   1.971  0.00  0.00    +0.000 HD
ATOM     11  H   UNL     1       1.649   1.671   1.971  0.00  0.00    +0.000 HD
ENDBRANCH   1   8
BRANCH   4  12
ATOM     12  O   UNL     1       5.422   4.214  -1.903  0.00  0.00    +0.000 OA
BRANCH  12  13
ATOM     13  C   UNL     1       5.137   5.553  -1.484  0.00  0.00    +0.000 C 
BRANCH  13  14
ATOM     14  C   UNL     1       5.544   6.538  -2.548  0.00  0.00    +0.000 A 
ATOM     15  C   UNL     1       4.988   6.437  -3.822  0.00  0.00    +0.000 A 
ATOM     16  C   UNL     1       5.356   7.367  -4.785  0.00  0.00    +0.000 A 
ATOM     17  C   UNL     1       6.259   8.370  -4.453  0.00  0.00    +0.000 A 
ATOM     18  C   UNL     1       6.749   8.411  -3.158  0.00  0.00    +0.000 A 
ATOM     19  N   UNL     1       6.407   7.525  -2.198  0.00  0.00    +0.000 NA
ENDBRANCH  13  14
ENDBRANCH  12  13
ENDBRANCH   4  12
TORSDOF 4
