REMARK  Name = 
REMARK  13 active torsions:
REMARK  status: ('A' for Active; 'I' for Inactive)
REMARK    1  A    between atoms: C_1  and  N_2
REMARK    2  A    between atoms: N_2  and  C_3
REMARK    3  A    between atoms: N_2  and  C_4
REMARK    4  A    between atoms: C_4  and  C_5
REMARK    5  A    between atoms: C_5  and  O_6
REMARK    6  A    between atoms: O_6  and  C_7
REMARK    7  A    between atoms: C_10  and  C_11
REMARK    8  A    between atoms: C_11  and  C_12
REMARK    9  A    between atoms: C_11  and  C_13
REMARK   10  A    between atoms: C_11  and  C_14
REMARK   11  A    between atoms: C_14  and  N_15
REMARK   12  A    between atoms: C_19  and  S_20
REMARK   13  A    between atoms: S_20  and  N_21
REMARK                            x       y       z     vdW  Elec       q    Type
REMARK                         _______ _______ _______ _____ _____    ______ ____
ROOT
ATOM      1  C   UNL     1      10.562  -3.292   2.051  0.00  0.00    +0.000 C 
ATOM      2  C   UNL     1      10.783  -4.367   3.139  0.00  0.00    +0.000 C 
ATOM      3  C   UNL     1      11.150  -3.823   0.718  0.00  0.00    +0.000 C 
ENDROOT
BRANCH   1   7
ATOM      4  C   UNL     1       6.288  -2.600   1.388  0.00  0.00    +0.000 A 
ATOM      5  C   UNL     1       7.120  -1.553   1.769  0.00  0.00    +0.000 A 
ATOM      6  C   UNL     1       8.483  -1.771   1.981  0.00  0.00    +0.000 A 
ATOM      7  C   UNL     1       9.056  -3.043   1.845  0.00  0.00    +0.000 A 
ATOM      8  C   UNL     1       8.192  -4.096   1.486  0.00  0.00    +0.000 A 
ATOM      9  C   UNL     1       6.827  -3.877   1.264  0.00  0.00    +0.000 A 
BRANCH   4  10
ATOM     10  O   UNL     1       4.945  -2.489   1.138  0.00  0.00    +0.000 OA
BRANCH  10  11
ATOM     11  C   UNL     1       4.514  -1.175   0.763  0.00  0.00    +0.000 C 
BRANCH  11  12
ATOM     12  C   UNL     1       2.997  -1.183   0.537  0.00  0.00    +0.000 C 
BRANCH  12  14
ATOM     13  C   UNL     1       1.000  -0.018  -0.123  0.00  0.00    +0.000 C 
ATOM     14  N   UNL     1       2.446   0.107   0.072  0.00  0.00    +0.000 NA
ATOM     15  C   UNL     1       2.725   1.205   1.001  0.00  0.00    +0.000 C 
ENDBRANCH  12  14
ENDBRANCH  11  12
ENDBRANCH  10  11
ENDBRANCH   4  10
ENDBRANCH   1   7
BRANCH   1  16
ATOM     16  C   UNL     1      11.405  -2.026   2.415  0.00  0.00    +0.000 C 
BRANCH  16  17
ATOM     17  N   UNL     1      11.001  -1.396   3.681  0.00  0.00    +0.000 N 
ATOM     18  C   UNL     1      11.737  -0.246   4.003  0.00  0.00    +0.000 A 
ATOM     19  C   UNL     1      11.406   0.454   5.163  0.00  0.00    +0.000 A 
ATOM     20  C   UNL     1      12.133   1.593   5.509  0.00  0.00    +0.000 A 
ATOM     21  C   UNL     1      13.162   2.004   4.669  0.00  0.00    +0.000 A 
ATOM     22  C   UNL     1      13.424   1.273   3.530  0.00  0.00    +0.000 A 
ATOM     23  N   UNL     1      12.720   0.171   3.181  0.00  0.00    +0.000 NA
ATOM     24  H   UNL     1      11.018  -2.037   4.469  0.00  0.00    +0.000 HD
BRANCH  21  25
ATOM     25  S   UNL     1      14.191   3.363   5.060  0.00  0.00    +0.000 S 
ATOM     26  O   UNL     1      14.131   3.603   6.484  0.00  0.00    +0.000 OA
ATOM     27  O   UNL     1      15.441   3.235   4.352  0.00  0.00    +0.000 OA
BRANCH  25  28
ATOM     28  N   UNL     1      13.382   4.644   4.342  0.00  0.00    +0.000 NA
ATOM     29  H   UNL     1      13.105   5.320   5.054  0.00  0.00    +0.000 HD
ATOM     30  H   UNL     1      13.955   5.046   3.598  0.00  0.00    +0.000 HD
ENDBRANCH  25  28
ENDBRANCH  21  25
ENDBRANCH  16  17
ENDBRANCH   1  16
TORSDOF 9
