REMARK  Name = 
REMARK  6 active torsions:
REMARK  status: ('A' for Active; 'I' for Inactive)
REMARK    1  A    between atoms: C_2  and  C_3
REMARK    2  A    between atoms: N_7  and  C_8
REMARK    3  A    between atoms: C_8  and  C_9
REMARK    4  A    between atoms: C_9  and  C_12
REMARK    5  A    between atoms: C_16  and  C_17
REMARK    6  A    between atoms: C_17  and  C_18
REMARK                            x       y       z     vdW  Elec       q    Type
REMARK                         _______ _______ _______ _____ _____    ______ ____
ROOT
ATOM      1  C   UNL     1      -5.837   1.066  -0.371  0.00  0.00    +0.000 C 
ATOM      2  F   UNL     1      -4.751   1.168  -1.190  0.00  0.00    +0.000 F 
ATOM      3  F   UNL     1      -6.575   0.031  -0.872  0.00  0.00    +0.000 F 
ENDROOT
BRANCH   1   4
ATOM      4  C   UNL     1      -6.629   2.358  -0.288  0.00  0.00    +0.000 A 
ATOM      5  C   UNL     1      -8.017   2.317  -0.094  0.00  0.00    +0.000 A 
ATOM      6  C   UNL     1      -8.738   3.496   0.087  0.00  0.00    +0.000 A 
ATOM      7  C   UNL     1      -8.080   4.726   0.083  0.00  0.00    +0.000 A 
ATOM      8  C   UNL     1      -6.694   4.797  -0.116  0.00  0.00    +0.000 A 
ATOM      9  C   UNL     1      -5.978   3.605  -0.310  0.00  0.00    +0.000 A 
BRANCH   8  10
ATOM     10  C   UNL     1      -5.988   6.134  -0.121  0.00  0.00    +0.000 C 
BRANCH  10  11
ATOM     11  C   UNL     1      -5.371   6.443   1.239  0.00  0.00    +0.000 C 
ATOM     12  C   UNL     1      -6.301   6.756   2.429  0.00  0.00    +0.000 C 
ATOM     13  N   UNL     1      -5.494   7.947   2.739  0.00  0.00    +0.000 NA
ATOM     14  C   UNL     1      -4.871   7.894   1.408  0.00  0.00    +0.000 C 
ATOM     15  H   UNL     1      -4.835   7.812   3.506  0.00  0.00    +0.000 HD
ENDBRANCH  10  11
ENDBRANCH   8  10
ENDBRANCH   1   4
BRANCH   1  16
ATOM     16  C   UNL     1      -5.361   0.695   1.054  0.00  0.00    +0.000 C 
BRANCH  16  21
ATOM     17  C   UNL     1      -3.214  -2.292   4.629  0.00  0.00    +0.000 A 
ATOM     18  C   UNL     1      -3.816  -1.043   4.714  0.00  0.00    +0.000 A 
ATOM     19  C   UNL     1      -4.314  -0.448   3.555  0.00  0.00    +0.000 A 
ATOM     20  C   UNL     1      -4.199  -1.102   2.330  0.00  0.00    +0.000 A 
ATOM     21  N   UNL     1      -4.639  -0.567   1.151  0.00  0.00    +0.000 N 
ATOM     22  N   UNL     1      -3.621  -2.314   2.241  0.00  0.00    +0.000 NA
ATOM     23  C   UNL     1      -3.147  -2.884   3.378  0.00  0.00    +0.000 A 
ATOM     24  H   UNL     1      -4.507  -1.148   0.330  0.00  0.00    +0.000 HD
BRANCH  17  26
ATOM     25  N   UNL     1      -2.252  -3.472   6.716  0.00  0.00    +0.000 NA
ATOM     26  C   UNL     1      -2.684  -2.946   5.775  0.00  0.00    +0.000 C 
ENDBRANCH  17  26
ENDBRANCH  16  21
ENDBRANCH   1  16
TORSDOF 6
