REMARK  Name = 
REMARK  4 active torsions:
REMARK  status: ('A' for Active; 'I' for Inactive)
REMARK    1  A    between atoms: N_1  and  C_2
REMARK    2  A    between atoms: C_2  and  C_3
REMARK    3  A    between atoms: N_5  and  C_6
REMARK    4  A    between atoms: C_6  and  C_7
REMARK                            x       y       z     vdW  Elec       q    Type
REMARK                         _______ _______ _______ _____ _____    ______ ____
ROOT
ATOM      1  C   UNL     1       2.864   0.466   1.184  0.00  0.00    +0.000 A 
ATOM      2  C   UNL     1       2.824   1.788   1.582  0.00  0.00    +0.000 A 
ATOM      3  N   UNL     1       3.248   1.872   2.884  0.00  0.00    +0.000 N 
ATOM      4  C   UNL     1       3.595   0.618   3.350  0.00  0.00    +0.000 A 
ATOM      5  C   UNL     1       4.099   0.199   4.592  0.00  0.00    +0.000 A 
ATOM      6  C   UNL     1       4.361  -1.161   4.775  0.00  0.00    +0.000 A 
ATOM      7  C   UNL     1       4.133  -2.076   3.753  0.00  0.00    +0.000 A 
ATOM      8  C   UNL     1       3.635  -1.649   2.517  0.00  0.00    +0.000 A 
ATOM      9  C   UNL     1       3.366  -0.282   2.301  0.00  0.00    +0.000 A 
ENDROOT
BRANCH   1  10
ATOM     10  C   UNL     1       2.440  -0.071  -0.141  0.00  0.00    +0.000 C 
BRANCH  10  11
ATOM     11  N   UNL     1       3.296   0.492  -1.177  0.00  0.00    +0.000 NA
ATOM     12  H   UNL     1       3.086   0.035  -2.061  0.00  0.00    +0.000 HD
ATOM     13  H   UNL     1       4.266   0.261  -0.952  0.00  0.00    +0.000 HD
ENDBRANCH  10  11
ENDBRANCH   1  10
BRANCH   3  14
ATOM     14  C   UNL     1       3.266   3.110   3.657  0.00  0.00    +0.000 C 
BRANCH  14  15
ATOM     15  C   UNL     1       4.623   3.764   3.624  0.00  0.00    +0.000 A 
ATOM     16  C   UNL     1       5.158   4.252   2.426  0.00  0.00    +0.000 A 
ATOM     17  C   UNL     1       6.437   4.784   2.433  0.00  0.00    +0.000 A 
ATOM     18  N   UNL     1       7.200   4.886   3.541  0.00  0.00    +0.000 NA
ATOM     19  C   UNL     1       6.660   4.433   4.691  0.00  0.00    +0.000 A 
ATOM     20  C   UNL     1       5.392   3.878   4.785  0.00  0.00    +0.000 A 
ENDBRANCH  14  15
ENDBRANCH   3  14
TORSDOF 4
