REMARK  Name = 
REMARK  6 active torsions:
REMARK  status: ('A' for Active; 'I' for Inactive)
REMARK    1  A    between atoms: C_1  and  C_2
REMARK    2  A    between atoms: C_4  and  C_5
REMARK    3  A    between atoms: C_10  and  N_11
REMARK    4  A    between atoms: N_11  and  C_12
REMARK    5  A    between atoms: C_12  and  C_13
REMARK    6  A    between atoms: C_17  and  C_18
REMARK                            x       y       z     vdW  Elec       q    Type
REMARK                         _______ _______ _______ _____ _____    ______ ____
ROOT
ATOM      1  N   UNL     1       0.867  -2.319  -0.370  0.00  0.00    +0.000 N 
ATOM      2  H   UNL     1       0.265  -3.012   0.065  0.00  0.00    +0.000 HD
ENDROOT
BRANCH   1   9
ATOM      3  C   UNL     1      -1.721  -1.619  -1.394  0.00  0.00    +0.000 C 
ATOM      4  C   UNL     1      -0.881  -0.671  -0.586  0.00  0.00    +0.000 A 
ATOM      5  C   UNL     1      -1.338   0.635  -0.358  0.00  0.00    +0.000 A 
ATOM      6  C   UNL     1      -0.556   1.541   0.359  0.00  0.00    +0.000 A 
ATOM      7  C   UNL     1       0.662   1.080   0.827  0.00  0.00    +0.000 A 
ATOM      8  N   UNL     1       1.142  -0.173   0.612  0.00  0.00    +0.000 NA
ATOM      9  C   UNL     1       0.380  -1.037  -0.093  0.00  0.00    +0.000 A 
BRANCH   6  10
ATOM     10  C   UNL     1      -1.060   2.922   0.560  0.00  0.00    +0.000 C 
ATOM     11  N   UNL     1      -0.304   3.814   1.267  0.00  0.00    +0.000 N 
ATOM     12  O   UNL     1      -2.140   3.273   0.097  0.00  0.00    +0.000 OA
ATOM     13  H   UNL     1       0.601   3.640   1.675  0.00  0.00    +0.000 HD
ATOM     14  H   UNL     1      -0.687   4.749   1.363  0.00  0.00    +0.000 HD
ENDBRANCH   6  10
ENDBRANCH   1   9
BRANCH   1  15
ATOM     15  C   UNL     1       2.274  -2.549  -0.076  0.00  0.00    +0.000 C 
BRANCH  15  16
ATOM     16  C   UNL     1       2.747  -3.844  -0.717  0.00  0.00    +0.000 A 
ATOM     17  C   UNL     1       3.895  -4.481  -0.224  0.00  0.00    +0.000 A 
ATOM     18  C   UNL     1       4.375  -5.650  -0.820  0.00  0.00    +0.000 A 
ATOM     19  C   UNL     1       3.709  -6.206  -1.913  0.00  0.00    +0.000 A 
ATOM     20  C   UNL     1       2.562  -5.590  -2.429  0.00  0.00    +0.000 A 
ATOM     21  C   UNL     1       2.110  -4.397  -1.841  0.00  0.00    +0.000 A 
BRANCH  20  22
ATOM     22  C   UNL     1       1.801  -6.188  -3.586  0.00  0.00    +0.000 C 
ATOM     23  F   UNL     1       2.300  -7.383  -4.008  0.00  0.00    +0.000 F 
ATOM     24  F   UNL     1       0.493  -6.424  -3.278  0.00  0.00    +0.000 F 
ATOM     25  F   UNL     1       1.785  -5.382  -4.682  0.00  0.00    +0.000 F 
ENDBRANCH  20  22
ENDBRANCH  15  16
ENDBRANCH   1  15
TORSDOF 5
