REMARK  Name = 
REMARK  8 active torsions:
REMARK  status: ('A' for Active; 'I' for Inactive)
REMARK    1  A    between atoms: N_1  and  C_2
REMARK    2  A    between atoms: C_2  and  C_3
REMARK    3  A    between atoms: C_3  and  N_4
REMARK    4  A    between atoms: C_3  and  C_17
REMARK    5  A    between atoms: C_5  and  C_7
REMARK    6  A    between atoms: C_20  and  C_21
REMARK    7  A    between atoms: C_21  and  N_22
REMARK    8  A    between atoms: C_23  and  C_25
REMARK                            x       y       z     vdW  Elec       q    Type
REMARK                         _______ _______ _______ _____ _____    ______ ____
ROOT
ATOM      1  C   UNL     1       2.826  -1.227  -0.481  0.00  0.00    +0.000 C 
ENDROOT
BRANCH   1   2
ATOM      2  C   UNL     1       4.354  -1.275  -0.369  0.00  0.00    +0.000 A 
ATOM      3  C   UNL     1       5.060  -0.183   0.152  0.00  0.00    +0.000 A 
ATOM      4  C   UNL     1       6.457  -0.218   0.271  0.00  0.00    +0.000 A 
ATOM      5  C   UNL     1       7.187  -1.346  -0.127  0.00  0.00    +0.000 A 
ATOM      6  C   UNL     1       6.483  -2.450  -0.626  0.00  0.00    +0.000 A 
ATOM      7  C   UNL     1       5.090  -2.412  -0.751  0.00  0.00    +0.000 A 
BRANCH   5   8
ATOM      8  C   UNL     1       8.693  -1.350  -0.067  0.00  0.00    +0.000 C 
BRANCH   8   9
ATOM      9  N   UNL     1       9.232  -1.853   1.181  0.00  0.00    +0.000 N 
ATOM     10  C   UNL     1      10.600  -1.890   1.336  0.00  0.00    +0.000 C 
ATOM     11  O   UNL     1      11.365  -1.654   0.399  0.00  0.00    +0.000 OA
ATOM     12  H   UNL     1       8.640  -1.826   2.004  0.00  0.00    +0.000 HD
BRANCH  10  13
ATOM     13  C   UNL     1      11.161  -2.235   2.708  0.00  0.00    +0.000 C 
ATOM     14  C   UNL     1      10.829  -3.624   3.197  0.00  0.00    +0.000 C 
ATOM     15  C   UNL     1       9.653  -3.425   4.131  0.00  0.00    +0.000 C 
ATOM     16  O   UNL     1       9.589  -2.038   4.475  0.00  0.00    +0.000 OA
ATOM     17  C   UNL     1      10.636  -1.330   3.798  0.00  0.00    +0.000 C 
ENDBRANCH  10  13
ENDBRANCH   8   9
ENDBRANCH   5   8
ENDBRANCH   1   2
BRANCH   1  18
ATOM     18  N   UNL     1       2.267  -2.184   0.465  0.00  0.00    +0.000 N 
ATOM     19  C   UNL     1       0.929  -2.306   0.734  0.00  0.00    +0.000 C 
ATOM     20  O   UNL     1       0.084  -1.543   0.278  0.00  0.00    +0.000 OA
ATOM     21  H   UNL     1       2.902  -2.895   0.797  0.00  0.00    +0.000 HD
BRANCH  19  22
ATOM     22  C   UNL     1       0.568  -3.392   1.654  0.00  0.00    +0.000 A 
ATOM     23  C   UNL     1      -0.612  -3.334   2.384  0.00  0.00    +0.000 A 
ATOM     24  S   UNL     1      -0.805  -4.636   3.471  0.00  0.00    +0.000 S 
ATOM     25  C   UNL     1       0.659  -5.346   2.967  0.00  0.00    +0.000 A 
ATOM     26  N   UNL     1       1.112  -6.499   3.527  0.00  0.00    +0.000 NA
ATOM     27  C   UNL     1       2.221  -6.936   3.028  0.00  0.00    +0.000 A 
ATOM     28  N   UNL     1       2.907  -6.335   2.006  0.00  0.00    +0.000 N 
ATOM     29  C   UNL     1       2.481  -5.181   1.400  0.00  0.00    +0.000 A 
ATOM     30  O   UNL     1       3.105  -4.689   0.468  0.00  0.00    +0.000 OA
ATOM     31  C   UNL     1       1.267  -4.618   1.963  0.00  0.00    +0.000 A 
ATOM     32  H   UNL     1       3.759  -6.738   1.644  0.00  0.00    +0.000 HD
ENDBRANCH  19  22
ENDBRANCH   1  18
BRANCH   1  33
ATOM     33  C   UNL     1       2.317  -1.486  -1.933  0.00  0.00    +0.000 C 
BRANCH  33  34
ATOM     34  N   UNL     1       2.819  -0.532  -2.931  0.00  0.00    +0.000 NA
ATOM     35  H   UNL     1       2.549  -0.855  -3.859  0.00  0.00    +0.000 HD
ATOM     36  H   UNL     1       3.839  -0.527  -2.911  0.00  0.00    +0.000 HD
ENDBRANCH  33  34
ENDBRANCH   1  33
TORSDOF 8
