REMARK  Name = 
REMARK  5 active torsions:
REMARK  status: ('A' for Active; 'I' for Inactive)
REMARK    1  A    between atoms: C_1  and  O_2
REMARK    2  A    between atoms: O_2  and  C_3
REMARK    3  A    between atoms: C_7  and  C_8
REMARK    4  A    between atoms: C_8  and  N_9
REMARK    5  A    between atoms: C_14  and  C_15
REMARK                            x       y       z     vdW  Elec       q    Type
REMARK                         _______ _______ _______ _____ _____    ______ ____
ROOT
ATOM      1  N   UNL     1       7.486  -1.390   3.223  0.00  0.00    +0.000 N 
ATOM      2  C   UNL     1       7.218  -0.917   4.486  0.00  0.00    +0.000 A 
ATOM      3  N   UNL     1       8.313  -0.802   5.207  0.00  0.00    +0.000 NA
ATOM      4  C   UNL     1       9.331  -1.214   4.387  0.00  0.00    +0.000 A 
ATOM      5  C   UNL     1      10.718  -1.121   4.568  0.00  0.00    +0.000 A 
ATOM      6  C   UNL     1      11.576  -1.547   3.536  0.00  0.00    +0.000 A 
ATOM      7  C   UNL     1      11.043  -2.177   2.401  0.00  0.00    +0.000 A 
ATOM      8  C   UNL     1       9.656  -2.281   2.207  0.00  0.00    +0.000 A 
ATOM      9  C   UNL     1       8.831  -1.724   3.192  0.00  0.00    +0.000 A 
ENDROOT
BRANCH   6  10
ATOM     10  C   UNL     1      13.023  -1.203   3.676  0.00  0.00    +0.000 C 
ATOM     11  N   UNL     1      13.901  -1.607   2.709  0.00  0.00    +0.000 N 
ATOM     12  O   UNL     1      13.434  -0.530   4.614  0.00  0.00    +0.000 OA
ATOM     13  H   UNL     1      13.675  -2.159   1.899  0.00  0.00    +0.000 HD
ATOM     14  H   UNL     1      14.858  -1.295   2.818  0.00  0.00    +0.000 HD
ENDBRANCH   6  10
BRANCH   1  15
ATOM     15  C   UNL     1       6.753  -0.948   2.040  0.00  0.00    +0.000 C 
BRANCH  15  20
ATOM     16  C   UNL     1       3.329  -1.207   0.453  0.00  0.00    +0.000 A 
ATOM     17  C   UNL     1       2.931  -2.498   0.769  0.00  0.00    +0.000 A 
ATOM     18  C   UNL     1       3.754  -3.303   1.573  0.00  0.00    +0.000 A 
ATOM     19  C   UNL     1       4.984  -2.829   2.054  0.00  0.00    +0.000 A 
ATOM     20  C   UNL     1       5.395  -1.532   1.752  0.00  0.00    +0.000 A 
ATOM     21  C   UNL     1       4.542  -0.736   0.957  0.00  0.00    +0.000 A 
BRANCH  16  23
ATOM     22  C   UNL     1       1.519  -0.762  -1.034  0.00  0.00    +0.000 C 
ATOM     23  O   UNL     1       2.669  -0.308  -0.335  0.00  0.00    +0.000 OA
ENDBRANCH  16  23
ENDBRANCH  15  20
ENDBRANCH   1  15
TORSDOF 4
