REMARK  Name = 
REMARK  9 active torsions:
REMARK  status: ('A' for Active; 'I' for Inactive)
REMARK    1  A    between atoms: C_1  and  C_2
REMARK    2  A    between atoms: C_2  and  C_3
REMARK    3  A    between atoms: C_2  and  C_4
REMARK    4  A    between atoms: C_2  and  C_15
REMARK    5  A    between atoms: C_5  and  C_6
REMARK    6  A    between atoms: C_9  and  C_10
REMARK    7  A    between atoms: C_19  and  O_20
REMARK    8  A    between atoms: O_20  and  C_21
REMARK    9  A    between atoms: C_21  and  C_22
REMARK                            x       y       z     vdW  Elec       q    Type
REMARK                         _______ _______ _______ _____ _____    ______ ____
ROOT
ATOM      1  C   UNL     1       0.874   0.069  -0.109  0.00  0.00    +0.000 C 
ATOM      2  C   UNL     1       2.413  -0.056  -0.007  0.00  0.00    +0.000 C 
ATOM      3  C   UNL     1       2.936  -0.277  -1.451  0.00  0.00    +0.000 C 
ENDROOT
BRANCH   2   4
ATOM      4  C   UNL     1       2.852  -1.245   0.873  0.00  0.00    +0.000 A 
ATOM      5  C   UNL     1       1.929  -2.057   1.558  0.00  0.00    +0.000 A 
ATOM      6  C   UNL     1       2.340  -3.167   2.300  0.00  0.00    +0.000 A 
ATOM      7  C   UNL     1       3.686  -3.505   2.365  0.00  0.00    +0.000 A 
ATOM      8  C   UNL     1       4.622  -2.736   1.678  0.00  0.00    +0.000 A 
ATOM      9  C   UNL     1       4.213  -1.596   0.977  0.00  0.00    +0.000 A 
BRANCH   8  10
ATOM     10  O   UNL     1       5.961  -3.013   1.634  0.00  0.00    +0.000 OA
BRANCH  10  11
ATOM     11  C   UNL     1       6.291  -4.411   1.653  0.00  0.00    +0.000 C 
BRANCH  11  12
ATOM     12  C   UNL     1       7.572  -4.694   0.873  0.00  0.00    +0.000 C 
ATOM     13  F   UNL     1       8.129  -3.584   0.345  0.00  0.00    +0.000 F 
ATOM     14  F   UNL     1       8.500  -5.276   1.669  0.00  0.00    +0.000 F 
ATOM     15  F   UNL     1       7.330  -5.551  -0.149  0.00  0.00    +0.000 F 
ENDBRANCH  11  12
ENDBRANCH  10  11
ENDBRANCH   8  10
ENDBRANCH   2   4
BRANCH   2  16
ATOM     16  C   UNL     1       2.935   1.303   0.459  0.00  0.00    +0.000 C 
ATOM     17  C   UNL     1       3.235   1.701   1.708  0.00  0.00    +0.000 C 
BRANCH  17  18
ATOM     18  C   UNL     1       3.708   3.059   2.034  0.00  0.00    +0.000 A 
ATOM     19  C   UNL     1       3.359   4.190   1.286  0.00  0.00    +0.000 A 
ATOM     20  C   UNL     1       3.825   5.451   1.655  0.00  0.00    +0.000 A 
ATOM     21  C   UNL     1       4.618   5.551   2.788  0.00  0.00    +0.000 A 
ATOM     22  N   UNL     1       4.969   4.487   3.563  0.00  0.00    +0.000 NA
ATOM     23  C   UNL     1       4.502   3.276   3.161  0.00  0.00    +0.000 A 
BRANCH  21  24
ATOM     24  C   UNL     1       5.123   6.894   3.217  0.00  0.00    +0.000 C 
ATOM     25  N   UNL     1       5.887   6.900   4.352  0.00  0.00    +0.000 N 
ATOM     26  O   UNL     1       4.867   7.927   2.606  0.00  0.00    +0.000 OA
ATOM     27  H   UNL     1       6.068   6.028   4.834  0.00  0.00    +0.000 HD
ATOM     28  H   UNL     1       6.249   7.773   4.707  0.00  0.00    +0.000 HD
ENDBRANCH  21  24
ENDBRANCH  17  18
ENDBRANCH   2  16
TORSDOF 7
