REMARK  Name = 
REMARK  4 active torsions:
REMARK  status: ('A' for Active; 'I' for Inactive)
REMARK    1  A    between atoms: N_1  and  C_2
REMARK    2  A    between atoms: C_2  and  C_3
REMARK    3  A    between atoms: C_6  and  C_7
REMARK    4  A    between atoms: C_7  and  N_8
REMARK                            x       y       z     vdW  Elec       q    Type
REMARK                         _______ _______ _______ _____ _____    ______ ____
ROOT
ATOM      1  C   UNL     1       3.940  -1.291   5.368  0.00  0.00    +0.000 C 
ENDROOT
BRANCH   1   2
ATOM      2  N   UNL     1       4.370  -0.150   6.169  0.00  0.00    +0.000 N 
ATOM      3  C   UNL     1       3.513   0.664   6.872  0.00  0.00    +0.000 A 
ATOM      4  C   UNL     1       4.267   1.465   7.697  0.00  0.00    +0.000 A 
ATOM      5  C   UNL     1       5.634   1.134   7.495  0.00  0.00    +0.000 A 
ATOM      6  C   UNL     1       6.837   1.584   8.072  0.00  0.00    +0.000 A 
ATOM      7  C   UNL     1       8.039   1.030   7.635  0.00  0.00    +0.000 A 
ATOM      8  F   UNL     1       9.188   1.442   8.191  0.00  0.00    +0.000 F 
ATOM      9  C   UNL     1       8.078   0.064   6.640  0.00  0.00    +0.000 A 
ATOM     10  C   UNL     1       6.896  -0.397   6.053  0.00  0.00    +0.000 A 
ATOM     11  C   UNL     1       5.680   0.142   6.509  0.00  0.00    +0.000 A 
ENDBRANCH   1   2
BRANCH   1  15
ATOM     12  C   UNL     1       3.224  -0.558   1.221  0.00  0.00    +0.000 A 
ATOM     13  C   UNL     1       2.190  -0.360   2.139  0.00  0.00    +0.000 A 
ATOM     14  C   UNL     1       2.422  -0.545   3.502  0.00  0.00    +0.000 A 
ATOM     15  C   UNL     1       3.689  -0.946   3.922  0.00  0.00    +0.000 A 
ATOM     16  N   UNL     1       4.712  -1.136   3.051  0.00  0.00    +0.000 NA
ATOM     17  C   UNL     1       4.459  -0.929   1.735  0.00  0.00    +0.000 A 
BRANCH  12  18
ATOM     18  C   UNL     1       3.003  -0.432  -0.259  0.00  0.00    +0.000 C 
BRANCH  18  19
ATOM     19  N   UNL     1       2.492   0.883  -0.626  0.00  0.00    +0.000 NA
ATOM     20  H   UNL     1       2.445   0.952  -1.641  0.00  0.00    +0.000 HD
ATOM     21  H   UNL     1       3.155   1.595  -0.323  0.00  0.00    +0.000 HD
ENDBRANCH  18  19
ENDBRANCH  12  18
ENDBRANCH   1  15
TORSDOF 4
