REMARK  Name = 
REMARK  5 active torsions:
REMARK  status: ('A' for Active; 'I' for Inactive)
REMARK    1  A    between atoms: C_1  and  C_2
REMARK    2  A    between atoms: N_5  and  C_6
REMARK    3  A    between atoms: C_6  and  C_7
REMARK    4  A    between atoms: C_11  and  C_12
REMARK    5  A    between atoms: C_23  and  C_24
REMARK                            x       y       z     vdW  Elec       q    Type
REMARK                         _______ _______ _______ _____ _____    ______ ____
ROOT
ATOM      1  C   UNL     1      -3.064   2.652   0.017  0.00  0.00    +0.000 C 
ENDROOT
BRANCH   1   6
ATOM      2  C   UNL     1       2.409  -0.030  -0.009  0.00  0.00    +0.000 C 
ATOM      3  C   UNL     1       0.909  -0.106  -0.011  0.00  0.00    +0.000 A 
ATOM      4  N   UNL     1       0.269   1.105   0.004  0.00  0.00    +0.000 NA
ATOM      5  C   UNL     1      -1.078   1.146   0.013  0.00  0.00    +0.000 A 
ATOM      6  N   UNL     1      -1.637   2.393   0.049  0.00  0.00    +0.000 N 
ATOM      7  C   UNL     1      -1.822  -0.024   0.000  0.00  0.00    +0.000 A 
ATOM      8  C   UNL     1      -1.178  -1.260  -0.013  0.00  0.00    +0.000 A 
ATOM      9  C   UNL     1       0.216  -1.318  -0.005  0.00  0.00    +0.000 A 
ATOM     10  H   UNL     1      -0.982   3.164   0.001  0.00  0.00    +0.000 HD
BRANCH   9  11
ATOM     11  C   UNL     1       0.910  -2.634  -0.015  0.00  0.00    +0.000 C 
ATOM     12  N   UNL     1       0.248  -3.699   0.539  0.00  0.00    +0.000 N 
ATOM     13  O   UNL     1       2.029  -2.791  -0.481  0.00  0.00    +0.000 OA
ATOM     14  H   UNL     1      -0.592  -3.614   1.093  0.00  0.00    +0.000 HD
ATOM     15  H   UNL     1       0.759  -4.571   0.588  0.00  0.00    +0.000 HD
ENDBRANCH   9  11
ENDBRANCH   1   6
BRANCH   1  16
ATOM     16  C   UNL     1      -3.412   4.132  -0.002  0.00  0.00    +0.000 A 
ATOM     17  N   UNL     1      -3.560   4.723  -1.204  0.00  0.00    +0.000 NA
ATOM     18  C   UNL     1      -3.918   6.016  -1.193  0.00  0.00    +0.000 A 
ATOM     19  C   UNL     1      -4.133   6.734  -0.042  0.00  0.00    +0.000 A 
ATOM     20  C   UNL     1      -3.963   6.059   1.153  0.00  0.00    +0.000 A 
ATOM     21  N   UNL     1      -3.591   4.758   1.181  0.00  0.00    +0.000 NA
BRANCH  20  22
ATOM     22  C   UNL     1      -4.185   6.693   2.471  0.00  0.00    +0.000 A 
ATOM     23  C   UNL     1      -3.460   6.281   3.604  0.00  0.00    +0.000 A 
ATOM     24  C   UNL     1      -3.657   6.877   4.856  0.00  0.00    +0.000 A 
ATOM     25  C   UNL     1      -4.594   7.898   5.006  0.00  0.00    +0.000 A 
ATOM     26 CL   UNL     1      -4.790   8.594   6.574  0.00  0.00    +0.000 Cl
ATOM     27  C   UNL     1      -5.336   8.318   3.901  0.00  0.00    +0.000 A 
ATOM     28 CL   UNL     1      -6.523   9.570   4.001  0.00  0.00    +0.000 Cl
ATOM     29  C   UNL     1      -5.133   7.718   2.651  0.00  0.00    +0.000 A 
ENDBRANCH  20  22
ENDBRANCH   1  16
TORSDOF 4
