REMARK  Name = 
REMARK  5 active torsions:
REMARK  status: ('A' for Active; 'I' for Inactive)
REMARK    1  A    between atoms: C_2  and  C_3
REMARK    2  A    between atoms: C_6  and  C_7
REMARK    3  A    between atoms: C_7  and  C_8
REMARK    4  A    between atoms: C_12  and  C_13
REMARK    5  A    between atoms: C_16  and  O_17
REMARK                            x       y       z     vdW  Elec       q    Type
REMARK                         _______ _______ _______ _____ _____    ______ ____
ROOT
ATOM      1  C   UNL     1      -3.906  -1.317   0.482  0.00  0.00    +0.000 A 
ATOM      2  C   UNL     1      -4.282  -1.471   1.816  0.00  0.00    +0.000 A 
ATOM      3  N   UNL     1      -4.365  -2.655   2.461  0.00  0.00    +0.000 NA
ATOM      4  C   UNL     1      -4.040  -3.755   1.743  0.00  0.00    +0.000 A 
ATOM      5  C   UNL     1      -3.676  -3.755   0.395  0.00  0.00    +0.000 A 
ATOM      6  C   UNL     1      -3.664  -2.501  -0.232  0.00  0.00    +0.000 A 
ENDROOT
BRANCH   5   7
ATOM      7  C   UNL     1      -3.221  -4.971  -0.305  0.00  0.00    +0.000 A 
ATOM      8  C   UNL     1      -3.520  -5.209  -1.661  0.00  0.00    +0.000 A 
ATOM      9  C   UNL     1      -3.011  -6.326  -2.334  0.00  0.00    +0.000 A 
ATOM     10  C   UNL     1      -2.202  -7.225  -1.652  0.00  0.00    +0.000 A 
ATOM     11  C   UNL     1      -1.901  -7.030  -0.313  0.00  0.00    +0.000 A 
ATOM     12  C   UNL     1      -2.403  -5.910   0.352  0.00  0.00    +0.000 A 
BRANCH  10  13
ATOM     13  O   UNL     1      -1.671  -8.319  -2.266  0.00  0.00    +0.000 OA
ATOM     14  H   UNL     1      -1.928  -8.308  -3.202  0.00  0.00    +0.000 HD
ENDBRANCH  10  13
ENDBRANCH   5   7
BRANCH   1  15
ATOM     15  C   UNL     1      -3.676   0.056  -0.133  0.00  0.00    +0.000 C 
ATOM     16  C   UNL     1      -2.524   0.874   0.457  0.00  0.00    +0.000 C 
ATOM     17  C   UNL     1      -2.374   0.275  -0.904  0.00  0.00    +0.000 C 
BRANCH  15  21
ATOM     18  C   UNL     1      -7.299   2.158  -1.102  0.00  0.00    +0.000 A 
ATOM     19  C   UNL     1      -6.662   1.435  -2.101  0.00  0.00    +0.000 A 
ATOM     20  C   UNL     1      -5.472   0.766  -1.807  0.00  0.00    +0.000 A 
ATOM     21  C   UNL     1      -4.935   0.829  -0.521  0.00  0.00    +0.000 A 
ATOM     22  N   UNL     1      -5.551   1.556   0.451  0.00  0.00    +0.000 NA
ATOM     23  C   UNL     1      -6.707   2.195   0.149  0.00  0.00    +0.000 A 
BRANCH  18  25
ATOM     24  N   UNL     1      -9.539   3.382  -1.520  0.00  0.00    +0.000 NA
ATOM     25  C   UNL     1      -8.536   2.837  -1.333  0.00  0.00    +0.000 C 
ENDBRANCH  18  25
ENDBRANCH  15  21
ENDBRANCH   1  15
TORSDOF 5
