REMARK  Name = 
REMARK  3 active torsions:
REMARK  status: ('A' for Active; 'I' for Inactive)
REMARK    1  A    between atoms: C_2  and  C_4
REMARK    2  A    between atoms: N_8  and  C_9
REMARK    3  A    between atoms: C_9  and  C_10
REMARK                            x       y       z     vdW  Elec       q    Type
REMARK                         _______ _______ _______ _____ _____    ______ ____
ROOT
ATOM      1  C   UNL     1       2.582   1.405   1.888  0.00  0.00    +0.000 A 
ATOM      2  C   UNL     1       3.926   1.345   1.540  0.00  0.00    +0.000 A 
ATOM      3  C   UNL     1       4.841   0.845   2.465  0.00  0.00    +0.000 A 
ATOM      4  C   UNL     1       4.409   0.432   3.731  0.00  0.00    +0.000 A 
ATOM      5  N   UNL     1       5.376  -0.181   4.565  0.00  0.00    +0.000 N 
ATOM      6  N   UNL     1       3.111   0.516   4.082  0.00  0.00    +0.000 NA
ATOM      7  C   UNL     1       2.229   0.999   3.167  0.00  0.00    +0.000 A 
ATOM      8  H   UNL     1       6.259   0.309   4.461  0.00  0.00    +0.000 HD
ENDROOT
BRANCH   1  10
ATOM      9  N   UNL     1       1.779   1.774  -0.377  0.00  0.00    +0.000 N 
ATOM     10  C   UNL     1       1.535   1.888   0.965  0.00  0.00    +0.000 C 
ATOM     11  O   UNL     1       0.474   2.341   1.378  0.00  0.00    +0.000 OA
ATOM     12  H   UNL     1       1.017   2.017  -0.996  0.00  0.00    +0.000 HD
ATOM     13  H   UNL     1       2.510   1.183  -0.751  0.00  0.00    +0.000 HD
ENDBRANCH   1  10
BRANCH   5  14
ATOM     14  C   UNL     1       5.088  -0.635   5.951  0.00  0.00    +0.000 C 
ATOM     15  C   UNL     1       5.085  -2.149   6.118  0.00  0.00    +0.000 C 
ATOM     16  C   UNL     1       3.825  -1.383   6.331  0.00  0.00    +0.000 C 
BRANCH  14  17
ATOM     17  C   UNL     1       5.733   0.193   7.066  0.00  0.00    +0.000 C 
ATOM     18  C   UNL     1       5.270   1.655   7.034  0.00  0.00    +0.000 C 
ATOM     19  C   UNL     1       5.965   2.452   8.129  0.00  0.00    +0.000 C 
ATOM     20  O   UNL     1       7.384   2.356   7.999  0.00  0.00    +0.000 OA
ATOM     21  C   UNL     1       7.849   1.014   8.133  0.00  0.00    +0.000 C 
ATOM     22  C   UNL     1       7.268   0.132   7.034  0.00  0.00    +0.000 C 
ENDBRANCH  14  17
ENDBRANCH   5  14
TORSDOF 3
