REMARK  Name = 
REMARK  6 active torsions:
REMARK  status: ('A' for Active; 'I' for Inactive)
REMARK    1  A    between atoms: C_2  and  C_18
REMARK    2  A    between atoms: N_3  and  C_4
REMARK    3  A    between atoms: C_4  and  C_5
REMARK    4  A    between atoms: C_8  and  O_9
REMARK    5  A    between atoms: O_9  and  C_10
REMARK    6  A    between atoms: C_10  and  C_11
REMARK                            x       y       z     vdW  Elec       q    Type
REMARK                         _______ _______ _______ _____ _____    ______ ____
ROOT
ATOM      1  O   UNL     1       3.848  -0.007   0.474  0.00  0.00    +0.000 OA
ATOM      2  C   UNL     1       3.500  -0.713  -0.466  0.00  0.00    +0.000 C 
ATOM      3  N   UNL     1       2.739  -1.842  -0.298  0.00  0.00    +0.000 N 
ATOM      4  H   UNL     1       2.600  -2.472  -1.080  0.00  0.00    +0.000 HD
ENDROOT
BRANCH   2   5
ATOM      5  C   UNL     1       3.836  -0.362  -1.852  0.00  0.00    +0.000 A 
ATOM      6  C   UNL     1       4.150   0.953  -2.176  0.00  0.00    +0.000 A 
ATOM      7  S   UNL     1       4.525   1.181  -3.823  0.00  0.00    +0.000 S 
ATOM      8  C   UNL     1       4.322  -0.474  -4.157  0.00  0.00    +0.000 A 
ATOM      9  N   UNL     1       4.540  -0.971  -5.405  0.00  0.00    +0.000 NA
ATOM     10  C   UNL     1       4.394  -2.249  -5.504  0.00  0.00    +0.000 A 
ATOM     11  N   UNL     1       4.032  -3.076  -4.474  0.00  0.00    +0.000 N 
ATOM     12  C   UNL     1       3.712  -2.606  -3.223  0.00  0.00    +0.000 A 
ATOM     13  O   UNL     1       3.234  -3.351  -2.373  0.00  0.00    +0.000 OA
ATOM     14  C   UNL     1       3.930  -1.186  -3.036  0.00  0.00    +0.000 A 
ATOM     15  H   UNL     1       3.892  -4.063  -4.626  0.00  0.00    +0.000 HD
ENDBRANCH   2   5
BRANCH   3  16
ATOM     16  C   UNL     1       2.347  -2.339   0.995  0.00  0.00    +0.000 C 
BRANCH  16  17
ATOM     17  C   UNL     1       3.282  -3.409   1.497  0.00  0.00    +0.000 A 
ATOM     18  C   UNL     1       4.440  -3.056   2.200  0.00  0.00    +0.000 A 
ATOM     19  C   UNL     1       5.294  -4.038   2.715  0.00  0.00    +0.000 A 
ATOM     20  C   UNL     1       5.013  -5.391   2.526  0.00  0.00    +0.000 A 
ATOM     21  C   UNL     1       3.874  -5.749   1.796  0.00  0.00    +0.000 A 
ATOM     22  C   UNL     1       3.019  -4.767   1.278  0.00  0.00    +0.000 A 
BRANCH  20  23
ATOM     23  O   UNL     1       5.761  -6.441   2.994  0.00  0.00    +0.000 OA
BRANCH  23  24
ATOM     24  C   UNL     1       6.919  -6.097   3.763  0.00  0.00    +0.000 C 
BRANCH  24  25
ATOM     25  C   UNL     1       7.670  -7.365   4.191  0.00  0.00    +0.000 C 
ATOM     26  C   UNL     1       6.865  -8.286   5.096  0.00  0.00    +0.000 C 
ATOM     27  C   UNL     1       7.942  -9.159   5.717  0.00  0.00    +0.000 C 
ATOM     28  C   UNL     1       9.171  -8.263   5.784  0.00  0.00    +0.000 C 
ATOM     29  N   UNL     1       8.851  -7.058   5.014  0.00  0.00    +0.000 NA
ATOM     30  H   UNL     1       9.639  -6.780   4.431  0.00  0.00    +0.000 HD
ENDBRANCH  24  25
ENDBRANCH  23  24
ENDBRANCH  20  23
ENDBRANCH  16  17
ENDBRANCH   3  16
TORSDOF 6
