REMARK  Name = 
REMARK  6 active torsions:
REMARK  status: ('A' for Active; 'I' for Inactive)
REMARK    1  A    between atoms: C_2  and  C_19
REMARK    2  A    between atoms: N_3  and  C_4
REMARK    3  A    between atoms: C_4  and  C_5
REMARK    4  A    between atoms: C_8  and  C_9
REMARK    5  A    between atoms: C_9  and  O_10
REMARK    6  A    between atoms: C_9  and  C_11
REMARK                            x       y       z     vdW  Elec       q    Type
REMARK                         _______ _______ _______ _____ _____    ______ ____
ROOT
ATOM      1  C   UNL     1       2.113  -1.462  -1.932  0.00  0.00    +0.000 C 
ENDROOT
BRANCH   1   2
ATOM      2  C   UNL     1       3.063  -2.129  -2.880  0.00  0.00    +0.000 A 
ATOM      3  C   UNL     1       3.946  -1.398  -3.679  0.00  0.00    +0.000 A 
ATOM      4  C   UNL     1       4.822  -2.066  -4.533  0.00  0.00    +0.000 A 
ATOM      5  C   UNL     1       4.800  -3.460  -4.564  0.00  0.00    +0.000 A 
ATOM      6  N   UNL     1       3.957  -4.183  -3.779  0.00  0.00    +0.000 NA
ATOM      7  C   UNL     1       3.125  -3.513  -2.955  0.00  0.00    +0.000 A 
BRANCH   5   8
ATOM      8  C   UNL     1       5.705  -4.226  -5.518  0.00  0.00    +0.000 C 
BRANCH   8   9
ATOM      9  C   UNL     1       4.907  -5.048  -6.527  0.00  0.00    +0.000 A 
ATOM     10  C   UNL     1       4.087  -4.411  -7.461  0.00  0.00    +0.000 A 
ATOM     11  C   UNL     1       3.298  -5.188  -8.303  0.00  0.00    +0.000 A 
ATOM     12  C   UNL     1       3.357  -6.573  -8.205  0.00  0.00    +0.000 A 
ATOM     13  C   UNL     1       4.220  -7.130  -7.277  0.00  0.00    +0.000 A 
ATOM     14  N   UNL     1       4.999  -6.406  -6.443  0.00  0.00    +0.000 NA
ENDBRANCH   8   9
BRANCH   8  15
ATOM     15  O   UNL     1       6.570  -5.068  -4.740  0.00  0.00    +0.000 OA
ATOM     16  H   UNL     1       6.145  -5.948  -4.809  0.00  0.00    +0.000 HD
ENDBRANCH   8  15
ENDBRANCH   5   8
ENDBRANCH   1   2
BRANCH   1  19
ATOM     17  O   UNL     1       1.838  -3.088   0.336  0.00  0.00    +0.000 OA
ATOM     18  C   UNL     1       2.586  -2.116   0.396  0.00  0.00    +0.000 C 
ATOM     19  N   UNL     1       2.730  -1.241  -0.648  0.00  0.00    +0.000 N 
ATOM     20  H   UNL     1       3.491  -0.571  -0.629  0.00  0.00    +0.000 HD
BRANCH  18  21
ATOM     21  C   UNL     1       3.335  -1.797   1.619  0.00  0.00    +0.000 A 
ATOM     22  C   UNL     1       2.913  -2.308   2.839  0.00  0.00    +0.000 A 
ATOM     23  S   UNL     1       3.874  -1.817   4.156  0.00  0.00    +0.000 S 
ATOM     24  C   UNL     1       4.922  -0.946   3.138  0.00  0.00    +0.000 A 
ATOM     25  N   UNL     1       6.004  -0.294   3.641  0.00  0.00    +0.000 NA
ATOM     26  C   UNL     1       6.741   0.282   2.751  0.00  0.00    +0.000 A 
ATOM     27  N   UNL     1       6.485   0.280   1.403  0.00  0.00    +0.000 N 
ATOM     28  C   UNL     1       5.359  -0.289   0.860  0.00  0.00    +0.000 A 
ATOM     29  O   UNL     1       5.087  -0.150  -0.328  0.00  0.00    +0.000 OA
ATOM     30  C   UNL     1       4.529  -1.004   1.811  0.00  0.00    +0.000 A 
ATOM     31  H   UNL     1       7.084   0.781   0.765  0.00  0.00    +0.000 HD
ENDBRANCH  18  21
ENDBRANCH   1  19
TORSDOF 6
