REMARK  Name = 
REMARK  9 active torsions:
REMARK  status: ('A' for Active; 'I' for Inactive)
REMARK    1  A    between atoms: C_1  and  C_2
REMARK    2  A    between atoms: C_2  and  N_3
REMARK    3  A    between atoms: C_2  and  C_22
REMARK    4  A    between atoms: N_3  and  C_4
REMARK    5  A    between atoms: C_4  and  C_5
REMARK    6  A    between atoms: C_8  and  C_9
REMARK    7  A    between atoms: C_9  and  O_10
REMARK    8  A    between atoms: C_9  and  C_11
REMARK    9  A    between atoms: C_11  and  N_12
REMARK                            x       y       z     vdW  Elec       q    Type
REMARK                         _______ _______ _______ _____ _____    ______ ____
ROOT
ATOM      1  C   UNL     1      -0.848   0.592   1.246  0.00  0.00    +0.000 A 
ATOM      2  C   UNL     1      -1.571  -0.592   1.442  0.00  0.00    +0.000 A 
ATOM      3  C   UNL     1      -2.969  -0.575   1.500  0.00  0.00    +0.000 A 
ATOM      4  C   UNL     1      -3.674   0.629   1.365  0.00  0.00    +0.000 A 
ATOM      5  C   UNL     1      -2.935   1.808   1.159  0.00  0.00    +0.000 A 
ATOM      6  C   UNL     1      -1.543   1.792   1.100  0.00  0.00    +0.000 A 
ENDROOT
BRANCH   1   7
ATOM      7  C   UNL     1       0.659   0.598   1.267  0.00  0.00    +0.000 C 
BRANCH   7   8
ATOM      8  N   UNL     1       1.216  -0.290   0.252  0.00  0.00    +0.000 NA
ATOM      9  H   UNL     1       0.891   0.030  -0.661  0.00  0.00    +0.000 HD
BRANCH   8  11
ATOM     10  C   UNL     1       3.263  -0.793   1.583  0.00  0.00    +0.000 C 
ATOM     11  C   UNL     1       2.686  -0.289   0.255  0.00  0.00    +0.000 C 
BRANCH  11  12
ATOM     12  C   UNL     1       3.116  -1.165  -0.904  0.00  0.00    +0.000 A 
ATOM     13  C   UNL     1       2.796  -2.510  -1.028  0.00  0.00    +0.000 A 
ATOM     14  S   UNL     1       3.352  -3.208  -2.482  0.00  0.00    +0.000 S 
ATOM     15  C   UNL     1       4.024  -1.732  -3.002  0.00  0.00    +0.000 A 
ATOM     16  N   UNL     1       4.609  -1.615  -4.224  0.00  0.00    +0.000 NA
ATOM     17  C   UNL     1       5.044  -0.429  -4.492  0.00  0.00    +0.000 A 
ATOM     18  N   UNL     1       4.977   0.643  -3.638  0.00  0.00    +0.000 N 
ATOM     19  C   UNL     1       4.466   0.553  -2.363  0.00  0.00    +0.000 A 
ATOM     20  O   UNL     1       4.535   1.495  -1.579  0.00  0.00    +0.000 OA
ATOM     21  C   UNL     1       3.880  -0.738  -2.052  0.00  0.00    +0.000 A 
ATOM     22  H   UNL     1       5.379   1.532  -3.893  0.00  0.00    +0.000 HD
ENDBRANCH  11  12
ENDBRANCH   8  11
ENDBRANCH   7   8
ENDBRANCH   1   7
BRANCH   4  23
ATOM     23  C   UNL     1      -5.196   0.620   1.452  0.00  0.00    +0.000 C 
BRANCH  23  24
ATOM     24  O   UNL     1      -5.595   0.154   2.752  0.00  0.00    +0.000 OA
ATOM     25  H   UNL     1      -4.913   0.448   3.380  0.00  0.00    +0.000 HD
ENDBRANCH  23  24
BRANCH  23  26
ATOM     26  C   UNL     1      -5.815   2.013   1.224  0.00  0.00    +0.000 C 
BRANCH  26  27
ATOM     27  N   UNL     1      -7.281   2.009   1.273  0.00  0.00    +0.000 N 
ATOM     28  C   UNL     1      -7.797   3.316   1.161  0.00  0.00    +0.000 A 
ATOM     29  C   UNL     1      -9.170   3.496   1.214  0.00  0.00    +0.000 A 
ATOM     30  C   UNL     1      -9.679   4.781   1.063  0.00  0.00    +0.000 A 
ATOM     31 CL   UNL     1     -11.379   5.040   1.112  0.00  0.00    +0.000 Cl
ATOM     32  C   UNL     1      -8.829   5.859   0.865  0.00  0.00    +0.000 A 
ATOM     33  C   UNL     1      -7.481   5.595   0.817  0.00  0.00    +0.000 A 
ATOM     34  N   UNL     1      -6.960   4.358   0.955  0.00  0.00    +0.000 NA
ATOM     35  H   UNL     1      -7.614   1.567   2.124  0.00  0.00    +0.000 HD
ENDBRANCH  26  27
ENDBRANCH  23  26
ENDBRANCH   4  23
TORSDOF 8
