REMARK  Name = 
REMARK  6 active torsions:
REMARK  status: ('A' for Active; 'I' for Inactive)
REMARK    1  A    between atoms: C_2  and  C_4
REMARK    2  A    between atoms: N_8  and  C_9
REMARK    3  A    between atoms: C_9  and  C_10
REMARK    4  A    between atoms: C_10  and  C_13
REMARK    5  A    between atoms: C_17  and  N_18
REMARK    6  A    between atoms: N_18  and  C_19
REMARK                            x       y       z     vdW  Elec       q    Type
REMARK                         _______ _______ _______ _____ _____    ______ ____
ROOT
ATOM      1  C   UNL     1       5.425   5.492  -4.865  0.00  0.00    +0.000 C 
ATOM      2  F   UNL     1       6.755   5.399  -4.569  0.00  0.00    +0.000 F 
ATOM      3  F   UNL     1       5.264   4.793  -6.029  0.00  0.00    +0.000 F 
ENDROOT
BRANCH   1   4
ATOM      4  C   UNL     1       4.971   6.935  -4.999  0.00  0.00    +0.000 A 
ATOM      5  C   UNL     1       5.539   7.949  -4.218  0.00  0.00    +0.000 A 
ATOM      6  C   UNL     1       5.071   9.260  -4.318  0.00  0.00    +0.000 A 
ATOM      7  C   UNL     1       4.023   9.572  -5.190  0.00  0.00    +0.000 A 
ATOM      8  C   UNL     1       3.449   8.581  -5.988  0.00  0.00    +0.000 A 
ATOM      9  C   UNL     1       3.930   7.268  -5.881  0.00  0.00    +0.000 A 
BRANCH   8  10
ATOM     10  N   UNL     1       2.371   8.818  -6.864  0.00  0.00    +0.000 N 
ATOM     11  H   UNL     1       2.603   8.476  -7.797  0.00  0.00    +0.000 HD
BRANCH  10  12
ATOM     12  C   UNL     1       1.521   9.977  -6.884  0.00  0.00    +0.000 C 
ATOM     13  C   UNL     1       0.514  10.036  -5.724  0.00  0.00    +0.000 C 
ATOM     14  O   UNL     1      -0.598  10.176  -6.648  0.00  0.00    +0.000 OA
ATOM     15  C   UNL     1       0.263   9.775  -7.746  0.00  0.00    +0.000 C 
ENDBRANCH  10  12
ENDBRANCH   8  10
ENDBRANCH   1   4
BRANCH   1  16
ATOM     16  C   UNL     1       4.614   4.791  -3.748  0.00  0.00    +0.000 C 
BRANCH  16  21
ATOM     17  C   UNL     1       3.196   0.894  -0.733  0.00  0.00    +0.000 A 
ATOM     18  C   UNL     1       2.797   2.223  -0.773  0.00  0.00    +0.000 A 
ATOM     19  C   UNL     1       3.370   3.072  -1.719  0.00  0.00    +0.000 A 
ATOM     20  C   UNL     1       4.335   2.590  -2.602  0.00  0.00    +0.000 A 
ATOM     21  N   UNL     1       4.926   3.378  -3.555  0.00  0.00    +0.000 N 
ATOM     22  N   UNL     1       4.741   1.307  -2.554  0.00  0.00    +0.000 NA
ATOM     23  C   UNL     1       4.180   0.492  -1.619  0.00  0.00    +0.000 A 
ATOM     24  H   UNL     1       5.592   2.907  -4.157  0.00  0.00    +0.000 HD
BRANCH  17  26
ATOM     25  N   UNL     1       1.358   0.162   0.667  0.00  0.00    +0.000 N 
ATOM     26  C   UNL     1       2.629  -0.074   0.226  0.00  0.00    +0.000 C 
ATOM     27  O   UNL     1       3.252  -1.062   0.587  0.00  0.00    +0.000 OA
ATOM     28  H   UNL     1       0.940  -0.555   1.242  0.00  0.00    +0.000 HD
ATOM     29  H   UNL     1       0.732   0.818   0.217  0.00  0.00    +0.000 HD
ENDBRANCH  17  26
ENDBRANCH  16  21
ENDBRANCH   1  16
TORSDOF 6
