REMARK  Name = 
REMARK  8 active torsions:
REMARK  status: ('A' for Active; 'I' for Inactive)
REMARK    1  A    between atoms: C_1  and  O_2
REMARK    2  A    between atoms: O_2  and  C_3
REMARK    3  A    between atoms: C_5  and  C_6
REMARK    4  A    between atoms: C_6  and  N_7
REMARK    5  A    between atoms: C_17  and  O_18
REMARK    6  A    between atoms: O_18  and  C_19
REMARK    7  A    between atoms: C_20  and  O_21
REMARK    8  A    between atoms: O_21  and  C_22
REMARK                            x       y       z     vdW  Elec       q    Type
REMARK                         _______ _______ _______ _____ _____    ______ ____
ROOT
ATOM      1  C   UNL     1       3.065   0.863   0.919  0.00  0.00    +0.000 A 
ATOM      2  C   UNL     1       2.701   1.212   2.227  0.00  0.00    +0.000 A 
ATOM      3  C   UNL     1       3.500   2.060   3.013  0.00  0.00    +0.000 A 
ATOM      4  C   UNL     1       4.680   2.559   2.469  0.00  0.00    +0.000 A 
ATOM      5  C   UNL     1       5.077   2.215   1.172  0.00  0.00    +0.000 A 
ATOM      6  C   UNL     1       4.251   1.392   0.376  0.00  0.00    +0.000 A 
ENDROOT
BRANCH   1   8
ATOM      7  C   UNL     1       0.984  -0.245   0.506  0.00  0.00    +0.000 C 
ATOM      8  O   UNL     1       2.347  -0.033   0.164  0.00  0.00    +0.000 OA
ENDBRANCH   1   8
BRANCH   5   9
ATOM      9  O   UNL     1       6.208   2.721   0.569  0.00  0.00    +0.000 OA
ATOM     10  C   UNL     1       7.315   2.927   1.435  0.00  0.00    +0.000 C 
ENDBRANCH   5   9
BRANCH   6  11
ATOM     11  O   UNL     1       4.753   1.118  -0.879  0.00  0.00    +0.000 OA
ATOM     12  C   UNL     1       3.821   0.883  -1.923  0.00  0.00    +0.000 C 
ENDBRANCH   6  11
BRANCH   3  13
ATOM     13  C   UNL     1       3.078   2.429   4.413  0.00  0.00    +0.000 C 
BRANCH  13  14
ATOM     14  N   UNL     1       3.687   1.587   5.439  0.00  0.00    +0.000 N 
ATOM     15  C   UNL     1       3.407   0.250   5.604  0.00  0.00    +0.000 A 
ATOM     16  C   UNL     1       4.045  -0.187   6.740  0.00  0.00    +0.000 A 
ATOM     17  C   UNL     1       4.482   0.971   7.432  0.00  0.00    +0.000 A 
ATOM     18  C   UNL     1       4.924   1.204   8.748  0.00  0.00    +0.000 A 
ATOM     19  C   UNL     1       5.290   2.498   9.127  0.00  0.00    +0.000 A 
ATOM     20  C   UNL     1       5.325   3.524   8.188  0.00  0.00    +0.000 A 
ATOM     21  C   UNL     1       4.889   3.317   6.874  0.00  0.00    +0.000 A 
ATOM     22  C   UNL     1       4.387   2.047   6.544  0.00  0.00    +0.000 A 
ENDBRANCH  13  14
ENDBRANCH   3  13
TORSDOF 5
