REMARK  Name = 
REMARK  5 active torsions:
REMARK  status: ('A' for Active; 'I' for Inactive)
REMARK    1  A    between atoms: C_2  and  C_3
REMARK    2  A    between atoms: C_7  and  C_8
REMARK    3  A    between atoms: C_12  and  C_13
REMARK    4  A    between atoms: C_13  and  N_14
REMARK    5  A    between atoms: C_18  and  C_19
REMARK                            x       y       z     vdW  Elec       q    Type
REMARK                         _______ _______ _______ _____ _____    ______ ____
ROOT
ATOM      1  C   UNL     1       2.341   2.444  -0.168  0.00  0.00    +0.000 A 
ATOM      2  C   UNL     1       3.340   2.734  -1.110  0.00  0.00    +0.000 A 
ATOM      3  C   UNL     1       3.948   3.993  -1.159  0.00  0.00    +0.000 A 
ATOM      4  C   UNL     1       3.571   4.997  -0.264  0.00  0.00    +0.000 A 
ATOM      5  C   UNL     1       2.581   4.763   0.695  0.00  0.00    +0.000 A 
ATOM      6  C   UNL     1       2.000   3.474   0.726  0.00  0.00    +0.000 A 
ENDROOT
BRANCH   1  11
ATOM      7  C   UNL     1       0.696  -0.813  -1.270  0.00  0.00    +0.000 A 
ATOM      8  C   UNL     1       0.253  -1.334  -0.054  0.00  0.00    +0.000 A 
ATOM      9  C   UNL     1       0.495  -0.635   1.123  0.00  0.00    +0.000 A 
ATOM     10  C   UNL     1       1.186   0.580   1.085  0.00  0.00    +0.000 A 
ATOM     11  C   UNL     1       1.644   1.136  -0.126  0.00  0.00    +0.000 A 
ATOM     12  C   UNL     1       1.379   0.412  -1.303  0.00  0.00    +0.000 A 
BRANCH   7  14
ATOM     13  N   UNL     1       0.247  -2.095  -3.478  0.00  0.00    +0.000 NA
ATOM     14  C   UNL     1       0.445  -1.523  -2.491  0.00  0.00    +0.000 C 
ENDBRANCH   7  14
ENDBRANCH   1  11
BRANCH   5  15
ATOM     15  C   UNL     1       2.109   5.827   1.683  0.00  0.00    +0.000 C 
ATOM     16  C   UNL     1       0.590   6.025   1.684  0.00  0.00    +0.000 C 
ATOM     17  C   UNL     1       1.479   7.123   1.212  0.00  0.00    +0.000 C 
BRANCH  15  18
ATOM     18  N   UNL     1       2.793   5.763   2.989  0.00  0.00    +0.000 N 
ATOM     19  C   UNL     1       3.993   6.429   3.264  0.00  0.00    +0.000 A 
ATOM     20  C   UNL     1       4.335   7.688   2.764  0.00  0.00    +0.000 A 
ATOM     21  N   UNL     1       5.481   8.351   3.080  0.00  0.00    +0.000 NA
ATOM     22  C   UNL     1       6.296   7.707   3.947  0.00  0.00    +0.000 A 
ATOM     23  C   UNL     1       5.968   6.467   4.464  0.00  0.00    +0.000 A 
ATOM     24  N   UNL     1       4.822   5.811   4.136  0.00  0.00    +0.000 NA
ATOM     25  H   UNL     1       2.891   4.835   3.399  0.00  0.00    +0.000 HD
BRANCH  22  26
ATOM     26  C   UNL     1       7.520   8.360   4.307  0.00  0.00    +0.000 C 
ATOM     27  N   UNL     1       8.524   8.851   4.623  0.00  0.00    +0.000 NA
ENDBRANCH  22  26
ENDBRANCH  15  18
ENDBRANCH   5  15
TORSDOF 5
