REMARK  Name = 
REMARK  9 active torsions:
REMARK  status: ('A' for Active; 'I' for Inactive)
REMARK    1  A    between atoms: C_1  and  C_2
REMARK    2  A    between atoms: C_2  and  N_3
REMARK    3  A    between atoms: C_4  and  C_6
REMARK    4  A    between atoms: C_9  and  O_10
REMARK    5  A    between atoms: O_10  and  C_11
REMARK    6  A    between atoms: C_11  and  C_12
REMARK    7  A    between atoms: C_12  and  C_13
REMARK    8  A    between atoms: C_12  and  C_14
REMARK    9  A    between atoms: C_12  and  C_15
REMARK                            x       y       z     vdW  Elec       q    Type
REMARK                         _______ _______ _______ _____ _____    ______ ____
ROOT
ATOM      1  C   UNL     1       4.945   0.592  -2.925  0.00  0.00    +0.000 A 
ATOM      2  C   UNL     1       4.278   1.581  -3.656  0.00  0.00    +0.000 A 
ATOM      3  C   UNL     1       4.721   1.929  -4.937  0.00  0.00    +0.000 A 
ATOM      4  C   UNL     1       5.830   1.293  -5.496  0.00  0.00    +0.000 A 
ATOM      5  C   UNL     1       6.506   0.319  -4.753  0.00  0.00    +0.000 A 
ATOM      6  C   UNL     1       6.072  -0.029  -3.471  0.00  0.00    +0.000 A 
ENDROOT
BRANCH   1   8
ATOM      7  N   UNL     1       3.171   0.362  -1.268  0.00  0.00    +0.000 N 
ATOM      8  C   UNL     1       4.513   0.213  -1.555  0.00  0.00    +0.000 C 
ATOM      9  O   UNL     1       5.332  -0.223  -0.752  0.00  0.00    +0.000 OA
ATOM     10  H   UNL     1       2.520   0.553  -2.020  0.00  0.00    +0.000 HD
BRANCH   7  12
ATOM     11  C   UNL     1       2.198  -1.443   0.081  0.00  0.00    +0.000 C 
ATOM     12  C   UNL     1       2.635   0.010   0.026  0.00  0.00    +0.000 C 
ENDBRANCH   7  12
ENDBRANCH   1   8
BRANCH   4  13
ATOM     13  O   UNL     1       6.349   1.534  -6.737  0.00  0.00    +0.000 OA
BRANCH  13  14
ATOM     14  C   UNL     1       5.707   2.533  -7.543  0.00  0.00    +0.000 C 
BRANCH  14  15
ATOM     15  C   UNL     1       6.434   2.665  -8.908  0.00  0.00    +0.000 C 
ATOM     16  C   UNL     1       7.904   3.084  -8.672  0.00  0.00    +0.000 C 
ATOM     17  C   UNL     1       6.463   1.287  -9.606  0.00  0.00    +0.000 C 
BRANCH  15  18
ATOM     18  C   UNL     1       5.735   3.753  -9.735  0.00  0.00    +0.000 A 
ATOM     19  C   UNL     1       5.156   3.506 -10.982  0.00  0.00    +0.000 A 
ATOM     20  C   UNL     1       4.610   4.561 -11.711  0.00  0.00    +0.000 A 
ATOM     21  C   UNL     1       4.640   5.843 -11.184  0.00  0.00    +0.000 A 
ATOM     22  C   UNL     1       5.200   6.011  -9.933  0.00  0.00    +0.000 A 
ATOM     23  N   UNL     1       5.735   5.004  -9.204  0.00  0.00    +0.000 NA
ENDBRANCH  15  18
ENDBRANCH  14  15
ENDBRANCH  13  14
ENDBRANCH   4  13
TORSDOF 6
