REMARK  Name = 
REMARK  6 active torsions:
REMARK  status: ('A' for Active; 'I' for Inactive)
REMARK    1  A    between atoms: C_2  and  C_18
REMARK    2  A    between atoms: N_3  and  C_4
REMARK    3  A    between atoms: C_4  and  C_5
REMARK    4  A    between atoms: C_8  and  C_9
REMARK    5  A    between atoms: C_9  and  N_10
REMARK    6  A    between atoms: N_10  and  C_11
REMARK                            x       y       z     vdW  Elec       q    Type
REMARK                         _______ _______ _______ _____ _____    ______ ____
ROOT
ATOM      1  C   UNL     1       2.221   1.061  -2.133  0.00  0.00    +0.000 C 
ENDROOT
BRANCH   1   2
ATOM      2  C   UNL     1       3.197   1.609  -3.140  0.00  0.00    +0.000 A 
ATOM      3  C   UNL     1       3.193   2.974  -3.451  0.00  0.00    +0.000 A 
ATOM      4  C   UNL     1       4.090   3.488  -4.388  0.00  0.00    +0.000 A 
ATOM      5  C   UNL     1       5.005   2.650  -5.039  0.00  0.00    +0.000 A 
ATOM      6  C   UNL     1       4.993   1.280  -4.744  0.00  0.00    +0.000 A 
ATOM      7  C   UNL     1       4.093   0.764  -3.808  0.00  0.00    +0.000 A 
BRANCH   5   8
ATOM      8  C   UNL     1       5.941   3.201  -6.090  0.00  0.00    +0.000 C 
BRANCH   8   9
ATOM      9  N   UNL     1       6.765   4.287  -5.558  0.00  0.00    +0.000 NA
ATOM     10  H   UNL     1       7.302   3.927  -4.769  0.00  0.00    +0.000 HD
BRANCH   9  11
ATOM     11  C   UNL     1       7.670   4.856  -6.567  0.00  0.00    +0.000 C 
ATOM     12  C   UNL     1       8.555   5.928  -5.935  0.00  0.00    +0.000 C 
ATOM     13  C   UNL     1       7.768   7.203  -6.158  0.00  0.00    +0.000 C 
ATOM     14  N   UNL     1       7.280   7.069  -7.535  0.00  0.00    +0.000 NA
ATOM     15  C   UNL     1       6.942   5.641  -7.686  0.00  0.00    +0.000 C 
ATOM     16  H   UNL     1       8.040   7.295  -8.176  0.00  0.00    +0.000 HD
ENDBRANCH   9  11
ENDBRANCH   8   9
ENDBRANCH   5   8
ENDBRANCH   1   2
BRANCH   1  19
ATOM     17  O   UNL     1      -0.102   2.642  -2.269  0.00  0.00    +0.000 OA
ATOM     18  C   UNL     1      -0.097   1.546  -2.824  0.00  0.00    +0.000 C 
ATOM     19  N   UNL     1       0.975   0.692  -2.757  0.00  0.00    +0.000 N 
ATOM     20  H   UNL     1       1.012  -0.101  -3.387  0.00  0.00    +0.000 HD
BRANCH  18  21
ATOM     21  C   UNL     1      -1.275   1.046  -3.540  0.00  0.00    +0.000 A 
ATOM     22  C   UNL     1      -2.532   1.561  -3.242  0.00  0.00    +0.000 A 
ATOM     23  S   UNL     1      -3.795   0.827  -4.122  0.00  0.00    +0.000 S 
ATOM     24  C   UNL     1      -2.702  -0.163  -4.972  0.00  0.00    +0.000 A 
ATOM     25  N   UNL     1      -3.141  -1.037  -5.917  0.00  0.00    +0.000 NA
ATOM     26  C   UNL     1      -2.201  -1.683  -6.523  0.00  0.00    +0.000 A 
ATOM     27  N   UNL     1      -0.863  -1.540  -6.265  0.00  0.00    +0.000 N 
ATOM     28  C   UNL     1      -0.380  -0.727  -5.266  0.00  0.00    +0.000 A 
ATOM     29  O   UNL     1       0.813  -0.721  -4.977  0.00  0.00    +0.000 OA
ATOM     30  C   UNL     1      -1.393   0.052  -4.580  0.00  0.00    +0.000 A 
ATOM     31  H   UNL     1      -0.178  -2.091  -6.761  0.00  0.00    +0.000 HD
ENDBRANCH  18  21
ENDBRANCH   1  19
TORSDOF 6
