REMARK  Name = 
REMARK  6 active torsions:
REMARK  status: ('A' for Active; 'I' for Inactive)
REMARK    1  A    between atoms: C_1  and  C_2
REMARK    2  A    between atoms: C_2  and  C_3
REMARK    3  A    between atoms: C_3  and  N_4
REMARK    4  A    between atoms: C_3  and  C_14
REMARK    5  A    between atoms: N_4  and  C_5
REMARK    6  A    between atoms: C_8  and  C_9
REMARK                            x       y       z     vdW  Elec       q    Type
REMARK                         _______ _______ _______ _____ _____    ______ ____
ROOT
ATOM      1  N   UNL     1       2.476  -0.110   0.140  0.00  0.00    +0.000 N 
ATOM      2  H   UNL     1       2.488  -1.112   0.296  0.00  0.00    +0.000 HD
ENDROOT
BRANCH   1   3
ATOM      3  C   UNL     1       1.462   0.291  -0.718  0.00  0.00    +0.000 A 
ATOM      4  C   UNL     1       1.428  -0.278  -2.001  0.00  0.00    +0.000 A 
ATOM      5  C   UNL     1       0.445   0.079  -2.930  0.00  0.00    +0.000 A 
ATOM      6  C   UNL     1      -0.554   0.994  -2.578  0.00  0.00    +0.000 A 
ATOM      7  C   UNL     1      -0.522   1.579  -1.314  0.00  0.00    +0.000 A 
ATOM      8  C   UNL     1       0.482   1.234  -0.396  0.00  0.00    +0.000 A 
BRANCH   6   9
ATOM      9  C   UNL     1      -1.609   1.303  -3.580  0.00  0.00    +0.000 C 
ATOM     10  N   UNL     1      -2.812   1.744  -3.103  0.00  0.00    +0.000 N 
ATOM     11  O   UNL     1      -1.437   1.127  -4.778  0.00  0.00    +0.000 OA
ATOM     12  H   UNL     1      -3.074   1.661  -2.132  0.00  0.00    +0.000 HD
ATOM     13  H   UNL     1      -3.556   1.824  -3.785  0.00  0.00    +0.000 HD
ENDBRANCH   6   9
ENDBRANCH   1   3
BRANCH   1  14
ATOM     14  C   UNL     1       2.942   0.689   1.274  0.00  0.00    +0.000 C 
BRANCH  14  15
ATOM     15  C   UNL     1       4.465   0.669   1.288  0.00  0.00    +0.000 A 
ATOM     16  C   UNL     1       5.167   1.883   1.195  0.00  0.00    +0.000 A 
ATOM     17  C   UNL     1       6.560   1.911   1.259  0.00  0.00    +0.000 A 
ATOM     18  C   UNL     1       7.274   0.726   1.408  0.00  0.00    +0.000 A 
ATOM     19  C   UNL     1       6.597  -0.490   1.479  0.00  0.00    +0.000 A 
ATOM     20  C   UNL     1       5.201  -0.520   1.418  0.00  0.00    +0.000 A 
ENDBRANCH  14  15
BRANCH  14  22
ATOM     21  C   UNL     1       2.705   1.046   3.788  0.00  0.00    +0.000 C 
ATOM     22  C   UNL     1       2.338   0.168   2.594  0.00  0.00    +0.000 C 
ENDBRANCH  14  22
ENDBRANCH   1  14
TORSDOF 5
