REMARK  Name = 
REMARK  5 active torsions:
REMARK  status: ('A' for Active; 'I' for Inactive)
REMARK    1  A    between atoms: C_1  and  O_2
REMARK    2  A    between atoms: O_2  and  C_3
REMARK    3  A    between atoms: C_7  and  C_8
REMARK    4  A    between atoms: C_8  and  N_9
REMARK    5  A    between atoms: C_15  and  C_16
REMARK                            x       y       z     vdW  Elec       q    Type
REMARK                         _______ _______ _______ _____ _____    ______ ____
ROOT
ATOM      1  N   UNL     1       2.044  -5.024  -1.020  0.00  0.00    +0.000 N 
ATOM      2  C   UNL     1       0.837  -5.624  -0.739  0.00  0.00    +0.000 A 
ATOM      3  C   UNL     1      -0.025  -5.360  -1.781  0.00  0.00    +0.000 A 
ATOM      4  C   UNL     1       0.677  -4.578  -2.725  0.00  0.00    +0.000 A 
ATOM      5  N   UNL     1       0.222  -4.051  -3.885  0.00  0.00    +0.000 NA
ATOM      6  C   UNL     1       1.128  -3.306  -4.564  0.00  0.00    +0.000 A 
ATOM      7  C   UNL     1       2.447  -3.068  -4.178  0.00  0.00    +0.000 A 
ATOM      8  C   UNL     1       2.906  -3.640  -2.986  0.00  0.00    +0.000 A 
ATOM      9  C   UNL     1       1.974  -4.390  -2.249  0.00  0.00    +0.000 A 
ENDROOT
BRANCH   7  10
ATOM     10  C   UNL     1       3.272  -2.199  -5.054  0.00  0.00    +0.000 C 
ATOM     11  N   UNL     1       4.566  -1.946  -4.695  0.00  0.00    +0.000 N 
ATOM     12  O   UNL     1       2.815  -1.702  -6.075  0.00  0.00    +0.000 OA
ATOM     13  H   UNL     1       5.030  -2.312  -3.880  0.00  0.00    +0.000 HD
ATOM     14  H   UNL     1       5.096  -1.337  -5.307  0.00  0.00    +0.000 HD
ENDBRANCH   7  10
BRANCH   1  15
ATOM     15  C   UNL     1       3.124  -4.890  -0.049  0.00  0.00    +0.000 C 
BRANCH  15  20
ATOM     16  C   UNL     1       5.175  -7.937   0.673  0.00  0.00    +0.000 A 
ATOM     17  N   UNL     1       6.206  -7.795  -0.183  0.00  0.00    +0.000 NA
ATOM     18  C   UNL     1       6.145  -6.735  -0.997  0.00  0.00    +0.000 A 
ATOM     19  N   UNL     1       5.174  -5.805  -1.013  0.00  0.00    +0.000 NA
ATOM     20  C   UNL     1       4.150  -5.985  -0.139  0.00  0.00    +0.000 A 
ATOM     21  C   UNL     1       4.101  -7.069   0.719  0.00  0.00    +0.000 A 
ATOM     22  F   UNL     1       3.095  -7.225   1.591  0.00  0.00    +0.000 F 
BRANCH  16  24
ATOM     23  C   UNL     1       6.424  -9.709   1.570  0.00  0.00    +0.000 C 
ATOM     24  O   UNL     1       5.201  -8.973   1.590  0.00  0.00    +0.000 OA
ENDBRANCH  16  24
ENDBRANCH  15  20
ENDBRANCH   1  15
TORSDOF 4
