REMARK  Name = 
REMARK  5 active torsions:
REMARK  status: ('A' for Active; 'I' for Inactive)
REMARK    1  A    between atoms: C_2  and  C_3
REMARK    2  A    between atoms: C_6  and  N_7
REMARK    3  A    between atoms: N_7  and  C_8
REMARK    4  A    between atoms: C_8  and  C_9
REMARK    5  A    between atoms: C_13  and  C_14
REMARK                            x       y       z     vdW  Elec       q    Type
REMARK                         _______ _______ _______ _____ _____    ______ ____
ROOT
ATOM      1  C   UNL     1       8.669  -0.858  -0.016  0.00  0.00    +0.000 C 
ATOM      2  C   UNL     1       8.872  -1.473  -1.394  0.00  0.00    +0.000 C 
ATOM      3  C   UNL     1       8.932  -2.337  -0.178  0.00  0.00    +0.000 C 
ENDROOT
BRANCH   1   4
ATOM      4  C   UNL     1       9.749   0.023   0.589  0.00  0.00    +0.000 A 
ATOM      5  C   UNL     1      10.320  -0.248   1.842  0.00  0.00    +0.000 A 
ATOM      6  C   UNL     1      11.132   0.688   2.479  0.00  0.00    +0.000 A 
ATOM      7  C   UNL     1      11.375   1.923   1.878  0.00  0.00    +0.000 A 
ATOM      8  C   UNL     1      10.835   2.240   0.622  0.00  0.00    +0.000 A 
ATOM      9  C   UNL     1      10.068   1.252  -0.019  0.00  0.00    +0.000 A 
BRANCH   8  10
ATOM     10  C   UNL     1      10.962   3.590   0.035  0.00  0.00    +0.000 A 
ATOM     11  C   UNL     1      10.881   4.738   0.849  0.00  0.00    +0.000 A 
ATOM     12  C   UNL     1      10.946   6.026   0.310  0.00  0.00    +0.000 A 
ATOM     13  C   UNL     1      11.077   6.194  -1.064  0.00  0.00    +0.000 A 
ATOM     14  C   UNL     1      11.144   5.075  -1.881  0.00  0.00    +0.000 A 
ATOM     15  F   UNL     1      11.248   5.233  -3.207  0.00  0.00    +0.000 F 
ATOM     16  C   UNL     1      11.094   3.788  -1.350  0.00  0.00    +0.000 A 
ENDBRANCH   8  10
ENDBRANCH   1   4
BRANCH   1  17
ATOM     17  N   UNL     1       7.329  -0.258   0.129  0.00  0.00    +0.000 N 
ATOM     18  H   UNL     1       7.260   0.665  -0.297  0.00  0.00    +0.000 HD
BRANCH  17  22
ATOM     19  C   UNL     1       4.711  -0.593   3.284  0.00  0.00    +0.000 A 
ATOM     20  N   UNL     1       5.833  -1.338   3.365  0.00  0.00    +0.000 NA
ATOM     21  C   UNL     1       6.711  -1.193   2.343  0.00  0.00    +0.000 A 
ATOM     22  C   UNL     1       6.527  -0.350   1.268  0.00  0.00    +0.000 A 
ATOM     23  C   UNL     1       5.332   0.368   1.323  0.00  0.00    +0.000 A 
ATOM     24  N   UNL     1       4.411   0.275   2.304  0.00  0.00    +0.000 NA
BRANCH  19  26
ATOM     25  N   UNL     1       2.891  -0.942   5.111  0.00  0.00    +0.000 NA
ATOM     26  C   UNL     1       3.713  -0.786   4.303  0.00  0.00    +0.000 C 
ENDBRANCH  19  26
ENDBRANCH  17  22
ENDBRANCH   1  17
TORSDOF 5
