REMARK  Name = 
REMARK  10 active torsions:
REMARK  status: ('A' for Active; 'I' for Inactive)
REMARK    1  A    between atoms: C_1  and  C_2
REMARK    2  A    between atoms: C_2  and  C_3
REMARK    3  A    between atoms: C_5  and  N_6
REMARK    4  A    between atoms: C_9  and  C_10
REMARK    5  A    between atoms: C_10  and  C_11
REMARK    6  A    between atoms: C_10  and  C_12
REMARK    7  A    between atoms: C_10  and  C_13
REMARK    8  A    between atoms: C_13  and  N_14
REMARK    9  A    between atoms: N_14  and  C_15
REMARK   10  A    between atoms: C_18  and  C_19
REMARK                            x       y       z     vdW  Elec       q    Type
REMARK                         _______ _______ _______ _____ _____    ______ ____
ROOT
ATOM      1  C   UNL     1      -4.471   0.532   4.728  0.00  0.00    +0.000 C 
ATOM      2  C   UNL     1      -3.483  -0.613   5.081  0.00  0.00    +0.000 C 
ATOM      3  C   UNL     1      -3.838   1.868   5.173  0.00  0.00    +0.000 C 
ENDROOT
BRANCH   1   7
ATOM      4  N   UNL     1      -2.800   0.928   0.049  0.00  0.00    +0.000 N 
ATOM      5  C   UNL     1      -3.892   0.772   0.930  0.00  0.00    +0.000 A 
ATOM      6  C   UNL     1      -3.654   0.772   2.305  0.00  0.00    +0.000 A 
ATOM      7  C   UNL     1      -4.706   0.532   3.204  0.00  0.00    +0.000 A 
ATOM      8  C   UNL     1      -5.959   0.293   2.629  0.00  0.00    +0.000 A 
ATOM      9  C   UNL     1      -6.128   0.398   1.260  0.00  0.00    +0.000 A 
ATOM     10  N   UNL     1      -5.121   0.622   0.406  0.00  0.00    +0.000 NA
ATOM     11  H   UNL     1      -2.546   1.913   0.077  0.00  0.00    +0.000 HD
BRANCH   4  16
ATOM     12  C   UNL     1      -2.530  -1.137  -3.875  0.00  0.00    +0.000 C 
ATOM     13  C   UNL     1      -1.966  -1.142  -2.454  0.00  0.00    +0.000 C 
ATOM     14  C   UNL     1      -0.935  -2.250  -2.262  0.00  0.00    +0.000 C 
ATOM     15  C   UNL     1      -3.059  -1.106  -1.353  0.00  0.00    +0.000 C 
ATOM     16  C   UNL     1      -2.890   0.436  -1.295  0.00  0.00    +0.000 C 
ATOM     17  C   UNL     1      -1.500   0.251  -1.938  0.00  0.00    +0.000 C 
ENDBRANCH   4  16
ENDBRANCH   1   7
BRANCH   1  18
ATOM     18  C   UNL     1      -5.763   0.291   5.579  0.00  0.00    +0.000 C 
BRANCH  18  19
ATOM     19  N   UNL     1      -6.810   1.314   5.370  0.00  0.00    +0.000 N 
ATOM     20  H   UNL     1      -6.733   1.804   4.480  0.00  0.00    +0.000 HD
BRANCH  19  21
ATOM     21  C   UNL     1      -8.112   0.789   5.526  0.00  0.00    +0.000 A 
ATOM     22  N   UNL     1      -8.280  -0.224   6.403  0.00  0.00    +0.000 NA
ATOM     23  C   UNL     1      -9.517  -0.751   6.553  0.00  0.00    +0.000 A 
ATOM     24  C   UNL     1     -10.639  -0.315   5.867  0.00  0.00    +0.000 A 
ATOM     25  C   UNL     1     -10.470   0.746   4.974  0.00  0.00    +0.000 A 
ATOM     26  C   UNL     1      -9.203   1.308   4.806  0.00  0.00    +0.000 A 
ATOM     27 CL   UNL     1      -9.002   2.550   3.620  0.00  0.00    +0.000 Cl
BRANCH  24  28
ATOM     28  C   UNL     1     -11.979  -0.929   6.030  0.00  0.00    +0.000 C 
ATOM     29  N   UNL     1     -12.131  -1.980   6.884  0.00  0.00    +0.000 N 
ATOM     30  O   UNL     1     -12.945  -0.500   5.402  0.00  0.00    +0.000 OA
ATOM     31  H   UNL     1     -11.410  -2.421   7.434  0.00  0.00    +0.000 HD
ATOM     32  H   UNL     1     -13.065  -2.372   6.952  0.00  0.00    +0.000 HD
ENDBRANCH  24  28
ENDBRANCH  19  21
ENDBRANCH  18  19
ENDBRANCH   1  18
TORSDOF 6
