REMARK  Name = 
REMARK  5 active torsions:
REMARK  status: ('A' for Active; 'I' for Inactive)
REMARK    1  A    between atoms: C_2  and  C_4
REMARK    2  A    between atoms: C_7  and  N_8
REMARK    3  A    between atoms: N_8  and  C_9
REMARK    4  A    between atoms: C_9  and  C_10
REMARK    5  A    between atoms: C_14  and  N_15
REMARK                            x       y       z     vdW  Elec       q    Type
REMARK                         _______ _______ _______ _____ _____    ______ ____
ROOT
ATOM      1  N   UNL     1       3.761   2.340   6.002  0.00  0.00    +0.000 N 
ATOM      2  H   UNL     1       3.831   2.137   6.997  0.00  0.00    +0.000 HD
ENDROOT
BRANCH   1   6
ATOM      3  C   UNL     1       0.763   0.202   3.904  0.00  0.00    +0.000 A 
ATOM      4  C   UNL     1       2.022   0.380   3.328  0.00  0.00    +0.000 A 
ATOM      5  C   UNL     1       3.024   1.063   4.027  0.00  0.00    +0.000 A 
ATOM      6  C   UNL     1       2.819   1.556   5.324  0.00  0.00    +0.000 A 
ATOM      7  C   UNL     1       1.550   1.360   5.891  0.00  0.00    +0.000 A 
ATOM      8  C   UNL     1       0.529   0.696   5.190  0.00  0.00    +0.000 A 
BRANCH   3  10
ATOM      9  N   UNL     1      -0.024  -1.329   2.184  0.00  0.00    +0.000 N 
ATOM     10  C   UNL     1      -0.350  -0.418   3.143  0.00  0.00    +0.000 C 
ATOM     11  O   UNL     1      -1.526  -0.130   3.371  0.00  0.00    +0.000 OA
ATOM     12  H   UNL     1      -0.793  -1.784   1.703  0.00  0.00    +0.000 HD
ATOM     13  H   UNL     1       0.889  -1.758   2.123  0.00  0.00    +0.000 HD
ENDBRANCH   3  10
ENDBRANCH   1   6
BRANCH   1  14
ATOM     14  C   UNL     1       5.028   2.669   5.350  0.00  0.00    +0.000 C 
BRANCH  14  15
ATOM     15  C   UNL     1       5.902   3.527   6.231  0.00  0.00    +0.000 A 
ATOM     16  C   UNL     1       5.811   4.923   6.154  0.00  0.00    +0.000 A 
ATOM     17  C   UNL     1       6.499   5.719   7.060  0.00  0.00    +0.000 A 
ATOM     18  C   UNL     1       7.271   5.123   8.055  0.00  0.00    +0.000 A 
ATOM     19  C   UNL     1       7.410   3.730   8.151  0.00  0.00    +0.000 A 
ATOM     20  C   UNL     1       6.753   2.947   7.191  0.00  0.00    +0.000 A 
BRANCH  19  21
ATOM     21  N   UNL     1       8.137   3.193   9.201  0.00  0.00    +0.000 N 
ATOM     22  C   UNL     1       8.880   1.943   9.088  0.00  0.00    +0.000 C 
ATOM     23  C   UNL     1       8.227   0.835   9.910  0.00  0.00    +0.000 C 
ATOM     24  C   UNL     1       7.949   1.283  11.344  0.00  0.00    +0.000 C 
ATOM     25  C   UNL     1       7.145   2.580  11.363  0.00  0.00    +0.000 C 
ATOM     26  C   UNL     1       7.838   3.674  10.553  0.00  0.00    +0.000 C 
ENDBRANCH  19  21
ENDBRANCH  14  15
ENDBRANCH   1  14
TORSDOF 5
