REMARK  Name = 
REMARK  8 active torsions:
REMARK  status: ('A' for Active; 'I' for Inactive)
REMARK    1  A    between atoms: C_1  and  C_2
REMARK    2  A    between atoms: C_2  and  C_3
REMARK    3  A    between atoms: C_3  and  N_4
REMARK    4  A    between atoms: C_3  and  C_17
REMARK    5  A    between atoms: C_5  and  C_7
REMARK    6  A    between atoms: C_20  and  C_21
REMARK    7  A    between atoms: C_21  and  N_22
REMARK    8  A    between atoms: C_23  and  C_25
REMARK                            x       y       z     vdW  Elec       q    Type
REMARK                         _______ _______ _______ _____ _____    ______ ____
ROOT
ATOM      1  C   UNL     1       3.009  -0.517  -1.330  0.00  0.00    +0.000 C 
ENDROOT
BRANCH   1   2
ATOM      2  C   UNL     1       4.535  -0.517  -1.465  0.00  0.00    +0.000 A 
ATOM      3  C   UNL     1       5.237  -1.704  -1.722  0.00  0.00    +0.000 A 
ATOM      4  C   UNL     1       6.637  -1.702  -1.826  0.00  0.00    +0.000 A 
ATOM      5  C   UNL     1       7.369  -0.516  -1.675  0.00  0.00    +0.000 A 
ATOM      6  C   UNL     1       6.668   0.676  -1.453  0.00  0.00    +0.000 A 
ATOM      7  C   UNL     1       5.272   0.674  -1.344  0.00  0.00    +0.000 A 
BRANCH   5   8
ATOM      8  C   UNL     1       8.876  -0.515  -1.750  0.00  0.00    +0.000 C 
BRANCH   8   9
ATOM      9  N   UNL     1       9.352  -0.330  -3.099  0.00  0.00    +0.000 N 
ATOM     10  C   UNL     1      10.695  -0.216  -3.377  0.00  0.00    +0.000 C 
ATOM     11  O   UNL     1      11.554  -0.244  -2.500  0.00  0.00    +0.000 OA
ATOM     12  H   UNL     1       8.689  -0.396  -3.853  0.00  0.00    +0.000 HD
BRANCH  10  13
ATOM     13  C   UNL     1      11.024  -0.071  -4.780  0.00  0.00    +0.000 A 
ATOM     14  C   UNL     1      10.231   0.017  -5.914  0.00  0.00    +0.000 A 
ATOM     15  C   UNL     1      11.077   0.159  -7.042  0.00  0.00    +0.000 A 
ATOM     16  C   UNL     1      12.372   0.156  -6.580  0.00  0.00    +0.000 A 
ATOM     17  N   UNL     1      12.332   0.022  -5.217  0.00  0.00    +0.000 N 
ATOM     18  H   UNL     1      13.135  -0.005  -4.599  0.00  0.00    +0.000 HD
ENDBRANCH  10  13
ENDBRANCH   8   9
ENDBRANCH   5   8
ENDBRANCH   1   2
BRANCH   1  19
ATOM     19  N   UNL     1       2.463   0.342  -2.372  0.00  0.00    +0.000 N 
ATOM     20  C   UNL     1       1.127   0.516  -2.626  0.00  0.00    +0.000 C 
ATOM     21  O   UNL     1       0.237   0.021  -1.942  0.00  0.00    +0.000 OA
ATOM     22  H   UNL     1       3.109   0.549  -3.126  0.00  0.00    +0.000 HD
BRANCH  20  23
ATOM     23  C   UNL     1       0.818   1.408  -3.749  0.00  0.00    +0.000 A 
ATOM     24  C   UNL     1      -0.335   2.178  -3.747  0.00  0.00    +0.000 A 
ATOM     25  S   UNL     1      -0.490   3.169  -5.130  0.00  0.00    +0.000 S 
ATOM     26  C   UNL     1       0.953   2.560  -5.798  0.00  0.00    +0.000 A 
ATOM     27  N   UNL     1       1.395   2.969  -7.018  0.00  0.00    +0.000 NA
ATOM     28  C   UNL     1       2.488   2.397  -7.407  0.00  0.00    +0.000 A 
ATOM     29  N   UNL     1       3.183   1.464  -6.686  0.00  0.00    +0.000 N 
ATOM     30  C   UNL     1       2.796   1.054  -5.436  0.00  0.00    +0.000 A 
ATOM     31  O   UNL     1       3.483   0.276  -4.788  0.00  0.00    +0.000 OA
ATOM     32  C   UNL     1       1.560   1.641  -4.964  0.00  0.00    +0.000 A 
ATOM     33  H   UNL     1       4.044   1.070  -7.034  0.00  0.00    +0.000 HD
ENDBRANCH  20  23
ENDBRANCH   1  19
BRANCH   1  35
ATOM     34  C   UNL     1       3.060  -0.931   1.202  0.00  0.00    +0.000 C 
ATOM     35  C   UNL     1       2.557  -0.050   0.068  0.00  0.00    +0.000 C 
ENDBRANCH   1  35
TORSDOF 7
