REMARK  Name = 
REMARK  9 active torsions:
REMARK  status: ('A' for Active; 'I' for Inactive)
REMARK    1  A    between atoms: C_1  and  C_2
REMARK    2  A    between atoms: C_2  and  N_3
REMARK    3  A    between atoms: N_3  and  C_4
REMARK    4  A    between atoms: N_3  and  C_11
REMARK    5  A    between atoms: C_4  and  C_5
REMARK    6  A    between atoms: C_11  and  C_12
REMARK    7  A    between atoms: C_15  and  C_16
REMARK    8  A    between atoms: C_16  and  N_17
REMARK    9  A    between atoms: C_18  and  C_20
REMARK                            x       y       z     vdW  Elec       q    Type
REMARK                         _______ _______ _______ _____ _____    ______ ____
ROOT
ATOM      1  C   UNL     1       5.086   2.879  -0.558  0.00  0.00    +0.000 A 
ATOM      2  C   UNL     1       4.569   3.974   0.132  0.00  0.00    +0.000 A 
ATOM      3  C   UNL     1       4.967   5.259  -0.237  0.00  0.00    +0.000 A 
ATOM      4  C   UNL     1       5.896   5.436  -1.264  0.00  0.00    +0.000 A 
ATOM      5  C   UNL     1       6.381   4.285  -1.877  0.00  0.00    +0.000 A 
ATOM      6  N   UNL     1       5.998   3.024  -1.554  0.00  0.00    +0.000 NA
ENDROOT
BRANCH   1   7
ATOM      7  C   UNL     1       4.589   1.465  -0.249  0.00  0.00    +0.000 C 
BRANCH   7   8
ATOM      8  N   UNL     1       3.106   1.289  -0.366  0.00  0.00    +0.000 NA
BRANCH   8  10
ATOM      9  C   UNL     1       1.228   1.485  -2.081  0.00  0.00    +0.000 C 
ATOM     10  C   UNL     1       2.719   1.587  -1.771  0.00  0.00    +0.000 C 
ENDBRANCH   8  10
BRANCH   8  11
ATOM     11  C   UNL     1       2.711  -0.098  -0.011  0.00  0.00    +0.000 C 
BRANCH  11  12
ATOM     12  C   UNL     1       2.953  -0.567   1.416  0.00  0.00    +0.000 A 
ATOM     13  C   UNL     1       3.061   0.297   2.514  0.00  0.00    +0.000 A 
ATOM     14  C   UNL     1       3.349  -0.204   3.789  0.00  0.00    +0.000 A 
ATOM     15  C   UNL     1       3.477  -1.576   3.995  0.00  0.00    +0.000 A 
ATOM     16  C   UNL     1       3.281  -2.454   2.934  0.00  0.00    +0.000 A 
ATOM     17  C   UNL     1       3.015  -1.953   1.658  0.00  0.00    +0.000 A 
ENDBRANCH  11  12
ENDBRANCH   8  11
ENDBRANCH   7   8
ENDBRANCH   1   7
BRANCH   4  18
ATOM     18  C   UNL     1       6.324   6.804  -1.708  0.00  0.00    +0.000 C 
BRANCH  18  19
ATOM     19  N   UNL     1       5.471   7.332  -2.749  0.00  0.00    +0.000 N 
ATOM     20  C   UNL     1       5.761   8.535  -3.348  0.00  0.00    +0.000 C 
ATOM     21  O   UNL     1       6.771   9.172  -3.053  0.00  0.00    +0.000 OA
ATOM     22  H   UNL     1       4.539   6.939  -2.845  0.00  0.00    +0.000 HD
BRANCH  20  23
ATOM     23  C   UNL     1       4.843   9.010  -4.394  0.00  0.00    +0.000 A 
ATOM     24  C   UNL     1       5.292   9.942  -5.322  0.00  0.00    +0.000 A 
ATOM     25  S   UNL     1       4.124  10.372  -6.487  0.00  0.00    +0.000 S 
ATOM     26  C   UNL     1       2.959   9.359  -5.769  0.00  0.00    +0.000 A 
ATOM     27  N   UNL     1       1.699   9.283  -6.275  0.00  0.00    +0.000 NA
ATOM     28  C   UNL     1       0.909   8.504  -5.618  0.00  0.00    +0.000 A 
ATOM     29  N   UNL     1       1.271   7.782  -4.506  0.00  0.00    +0.000 N 
ATOM     30  C   UNL     1       2.539   7.805  -3.976  0.00  0.00    +0.000 A 
ATOM     31  O   UNL     1       2.840   7.122  -3.006  0.00  0.00    +0.000 OA
ATOM     32  C   UNL     1       3.463   8.683  -4.671  0.00  0.00    +0.000 A 
ATOM     33  H   UNL     1       0.605   7.179  -4.045  0.00  0.00    +0.000 HD
ENDBRANCH  20  23
ENDBRANCH  18  19
ENDBRANCH   4  18
TORSDOF 8
