REMARK  Name = 
REMARK  7 active torsions:
REMARK  status: ('A' for Active; 'I' for Inactive)
REMARK    1  A    between atoms: C_1  and  O_2
REMARK    2  A    between atoms: O_2  and  C_3
REMARK    3  A    between atoms: C_5  and  C_6
REMARK    4  A    between atoms: C_11  and  N_12
REMARK    5  A    between atoms: N_12  and  C_13
REMARK    6  A    between atoms: C_13  and  C_14
REMARK    7  A    between atoms: C_18  and  C_19
REMARK                            x       y       z     vdW  Elec       q    Type
REMARK                         _______ _______ _______ _____ _____    ______ ____
ROOT
ATOM      1  N   UNL     1       4.432   0.324  -1.607  0.00  0.00    +0.000 N 
ATOM      2  H   UNL     1       5.188   0.591  -2.222  0.00  0.00    +0.000 HD
ENDROOT
BRANCH   1   8
ATOM      3  C   UNL     1       2.973   1.176   0.203  0.00  0.00    +0.000 A 
ATOM      4  C   UNL     1       2.703   2.243   1.064  0.00  0.00    +0.000 A 
ATOM      5  C   UNL     1       3.466   3.407   1.016  0.00  0.00    +0.000 A 
ATOM      6  C   UNL     1       4.490   3.444   0.087  0.00  0.00    +0.000 A 
ATOM      7  N   UNL     1       4.786   2.426  -0.769  0.00  0.00    +0.000 NA
ATOM      8  C   UNL     1       4.041   1.296  -0.713  0.00  0.00    +0.000 A 
BRANCH   5   9
ATOM      9  C   UNL     1       3.132   4.505   1.959  0.00  0.00    +0.000 C 
ATOM     10  N   UNL     1       3.881   5.646   1.953  0.00  0.00    +0.000 N 
ATOM     11  O   UNL     1       2.194   4.398   2.742  0.00  0.00    +0.000 OA
ATOM     12  H   UNL     1       4.684   5.827   1.375  0.00  0.00    +0.000 HD
ATOM     13  H   UNL     1       3.616   6.358   2.625  0.00  0.00    +0.000 HD
ENDBRANCH   5   9
BRANCH   3  15
ATOM     14  C   UNL     1       0.955   0.046   0.797  0.00  0.00    +0.000 C 
ATOM     15  O   UNL     1       2.265   0.003   0.248  0.00  0.00    +0.000 OA
ENDBRANCH   3  15
ENDBRANCH   1   8
BRANCH   1  16
ATOM     16  C   UNL     1       3.741  -0.929  -1.782  0.00  0.00    +0.000 C 
BRANCH  16  17
ATOM     17  C   UNL     1       4.370  -1.806  -2.827  0.00  0.00    +0.000 A 
ATOM     18  C   UNL     1       5.420  -2.652  -2.497  0.00  0.00    +0.000 A 
ATOM     19  N   UNL     1       5.957  -3.549  -3.349  0.00  0.00    +0.000 NA
ATOM     20  C   UNL     1       5.425  -3.599  -4.595  0.00  0.00    +0.000 A 
ATOM     21  C   UNL     1       4.379  -2.798  -5.063  0.00  0.00    +0.000 A 
ATOM     22  C   UNL     1       3.863  -1.880  -4.133  0.00  0.00    +0.000 A 
BRANCH  21  23
ATOM     23  C   UNL     1       3.849  -2.918  -6.440  0.00  0.00    +0.000 A 
ATOM     24  C   UNL     1       3.809  -4.160  -7.109  0.00  0.00    +0.000 A 
ATOM     25  C   UNL     1       3.335  -4.268  -8.421  0.00  0.00    +0.000 A 
ATOM     26  C   UNL     1       2.877  -3.137  -9.079  0.00  0.00    +0.000 A 
ATOM     27  F   UNL     1       2.424  -3.238 -10.335  0.00  0.00    +0.000 F 
ATOM     28  C   UNL     1       2.885  -1.901  -8.450  0.00  0.00    +0.000 A 
ATOM     29  C   UNL     1       3.371  -1.793  -7.142  0.00  0.00    +0.000 A 
ENDBRANCH  21  23
ENDBRANCH  16  17
ENDBRANCH   1  16
TORSDOF 6
