REMARK  Name = 
REMARK  6 active torsions:
REMARK  status: ('A' for Active; 'I' for Inactive)
REMARK    1  A    between atoms: C_1  and  C_2
REMARK    2  A    between atoms: C_2  and  N_3
REMARK    3  A    between atoms: C_2  and  C_16
REMARK    4  A    between atoms: C_4  and  C_6
REMARK    5  A    between atoms: C_19  and  C_20
REMARK    6  A    between atoms: C_20  and  C_21
REMARK                            x       y       z     vdW  Elec       q    Type
REMARK                         _______ _______ _______ _____ _____    ______ ____
ROOT
ATOM      1  C   UNL     1       0.870  -0.040   0.026  0.00  0.00    +0.000 C 
ATOM      2  C   UNL     1       2.395  -0.057  -0.044  0.00  0.00    +0.000 C 
ENDROOT
BRANCH   2   3
ATOM      3  C   UNL     1       2.991   0.751   1.105  0.00  0.00    +0.000 A 
ATOM      4  N   UNL     1       3.276   0.106   2.253  0.00  0.00    +0.000 NA
ATOM      5  C   UNL     1       3.915   0.822   3.198  0.00  0.00    +0.000 A 
ATOM      6  C   UNL     1       4.272   2.147   3.058  0.00  0.00    +0.000 A 
ATOM      7  C   UNL     1       3.897   2.723   1.862  0.00  0.00    +0.000 A 
ATOM      8  N   UNL     1       3.259   2.060   0.881  0.00  0.00    +0.000 NA
BRANCH   6   9
ATOM      9  C   UNL     1       5.027   2.895   4.111  0.00  0.00    +0.000 C 
BRANCH   9  10
ATOM     10  C   UNL     1       6.525   2.825   3.972  0.00  0.00    +0.000 A 
ATOM     11  C   UNL     1       7.270   1.795   4.554  0.00  0.00    +0.000 A 
ATOM     12  C   UNL     1       8.659   1.802   4.452  0.00  0.00    +0.000 A 
ATOM     13  C   UNL     1       9.262   2.837   3.758  0.00  0.00    +0.000 A 
ATOM     14  N   UNL     1       8.577   3.832   3.156  0.00  0.00    +0.000 NA
ATOM     15  C   UNL     1       7.230   3.800   3.271  0.00  0.00    +0.000 A 
ENDBRANCH   9  10
ENDBRANCH   6   9
ENDBRANCH   2   3
BRANCH   2  16
ATOM     16  N   UNL     1       2.842   0.487  -1.319  0.00  0.00    +0.000 N 
ATOM     17  C   UNL     1       2.999  -0.242  -2.459  0.00  0.00    +0.000 C 
ATOM     18  O   UNL     1       2.877  -1.462  -2.491  0.00  0.00    +0.000 OA
ATOM     19  H   UNL     1       2.873   1.501  -1.344  0.00  0.00    +0.000 HD
BRANCH  17  20
ATOM     20  C   UNL     1       3.385   0.531  -3.644  0.00  0.00    +0.000 A 
ATOM     21  C   UNL     1       4.134  -0.056  -4.653  0.00  0.00    +0.000 A 
ATOM     22  S   UNL     1       4.506   1.013  -5.930  0.00  0.00    +0.000 S 
ATOM     23  C   UNL     1       3.651   2.287  -5.191  0.00  0.00    +0.000 A 
ATOM     24  N   UNL     1       3.565   3.510  -5.781  0.00  0.00    +0.000 NA
ATOM     25  C   UNL     1       2.870   4.373  -5.117  0.00  0.00    +0.000 A 
ATOM     26  N   UNL     1       2.250   4.124  -3.921  0.00  0.00    +0.000 N 
ATOM     27  C   UNL     1       2.313   2.908  -3.285  0.00  0.00    +0.000 A 
ATOM     28  O   UNL     1       1.764   2.735  -2.200  0.00  0.00    +0.000 OA
ATOM     29  C   UNL     1       3.093   1.904  -3.985  0.00  0.00    +0.000 A 
ATOM     30  H   UNL     1       1.723   4.843  -3.448  0.00  0.00    +0.000 HD
ENDBRANCH  17  20
ENDBRANCH   2  16
TORSDOF 5
