REMARK  Name = 
REMARK  10 active torsions:
REMARK  status: ('A' for Active; 'I' for Inactive)
REMARK    1  A    between atoms: C_1  and  N_2
REMARK    2  A    between atoms: N_5  and  C_6
REMARK    3  A    between atoms: C_10  and  C_11
REMARK    4  A    between atoms: C_11  and  C_12
REMARK    5  A    between atoms: C_11  and  C_13
REMARK    6  A    between atoms: C_11  and  C_14
REMARK    7  A    between atoms: C_14  and  N_15
REMARK    8  A    between atoms: N_15  and  C_16
REMARK    9  A    between atoms: C_19  and  S_20
REMARK   10  A    between atoms: S_20  and  N_21
REMARK                            x       y       z     vdW  Elec       q    Type
REMARK                         _______ _______ _______ _____ _____    ______ ____
ROOT
ATOM      1  C   UNL     1      -6.418   1.745   0.516  0.00  0.00    +0.000 C 
ATOM      2  C   UNL     1      -5.774   3.144   0.364  0.00  0.00    +0.000 C 
ATOM      3  C   UNL     1      -6.950   1.298  -0.866  0.00  0.00    +0.000 C 
ENDROOT
BRANCH   1   8
ATOM      4  C   UNL     1      -4.652  -1.042   2.566  0.00  0.00    +0.000 A 
ATOM      5  C   UNL     1      -3.532  -1.261   1.759  0.00  0.00    +0.000 A 
ATOM      6  C   UNL     1      -3.290  -0.490   0.619  0.00  0.00    +0.000 A 
ATOM      7  C   UNL     1      -4.200   0.492   0.232  0.00  0.00    +0.000 A 
ATOM      8  C   UNL     1      -5.345   0.749   1.000  0.00  0.00    +0.000 A 
ATOM      9  C   UNL     1      -5.495   0.014   2.192  0.00  0.00    +0.000 A 
BRANCH   4  14
ATOM     10  C   UNL     1      -7.466  -4.575   5.789  0.00  0.00    +0.000 C 
ATOM     11  N   UNL     1      -6.352  -3.717   5.403  0.00  0.00    +0.000 NA
ATOM     12  C   UNL     1      -5.763  -4.156   4.120  0.00  0.00    +0.000 C 
ATOM     13  C   UNL     1      -4.574  -3.272   3.669  0.00  0.00    +0.000 C 
ATOM     14  N   UNL     1      -4.978  -1.859   3.628  0.00  0.00    +0.000 N 
ATOM     15  C   UNL     1      -5.624  -1.372   4.859  0.00  0.00    +0.000 C 
ATOM     16  C   UNL     1      -6.788  -2.307   5.268  0.00  0.00    +0.000 C 
ENDBRANCH   4  14
ENDBRANCH   1   8
BRANCH   1  17
ATOM     17  C   UNL     1      -7.636   1.928   1.484  0.00  0.00    +0.000 C 
BRANCH  17  18
ATOM     18  N   UNL     1      -8.476   0.727   1.635  0.00  0.00    +0.000 N 
ATOM     19  H   UNL     1      -7.984  -0.156   1.506  0.00  0.00    +0.000 HD
BRANCH  18  20
ATOM     20  C   UNL     1      -9.457   0.689   2.630  0.00  0.00    +0.000 A 
ATOM     21  C   UNL     1      -9.927   1.836   3.283  0.00  0.00    +0.000 A 
ATOM     22  C   UNL     1     -11.008   1.771   4.160  0.00  0.00    +0.000 A 
ATOM     23  C   UNL     1     -11.602   0.538   4.348  0.00  0.00    +0.000 A 
ATOM     24  N   UNL     1     -11.201  -0.624   3.764  0.00  0.00    +0.000 NA
ATOM     25  C   UNL     1     -10.146  -0.502   2.913  0.00  0.00    +0.000 A 
BRANCH  23  26
ATOM     26  S   UNL     1     -13.069   0.425   5.367  0.00  0.00    +0.000 S 
ATOM     27  O   UNL     1     -12.675   0.709   6.733  0.00  0.00    +0.000 OA
ATOM     28  O   UNL     1     -14.127   1.143   4.692  0.00  0.00    +0.000 OA
BRANCH  26  29
ATOM     29  N   UNL     1     -13.464  -1.217   5.296  0.00  0.00    +0.000 NA
ATOM     30  H   UNL     1     -12.666  -1.777   5.595  0.00  0.00    +0.000 HD
ATOM     31  H   UNL     1     -13.758  -1.453   4.347  0.00  0.00    +0.000 HD
ENDBRANCH  26  29
ENDBRANCH  23  26
ENDBRANCH  18  20
ENDBRANCH  17  18
ENDBRANCH   1  17
TORSDOF 7
