REMARK  Name = 
REMARK  5 active torsions:
REMARK  status: ('A' for Active; 'I' for Inactive)
REMARK    1  A    between atoms: C_2  and  C_4
REMARK    2  A    between atoms: C_7  and  N_8
REMARK    3  A    between atoms: N_8  and  C_9
REMARK    4  A    between atoms: C_9  and  C_10
REMARK    5  A    between atoms: C_12  and  C_13
REMARK                            x       y       z     vdW  Elec       q    Type
REMARK                         _______ _______ _______ _____ _____    ______ ____
ROOT
ATOM      1  C   UNL     1       4.979  -3.041  -5.390  0.00  0.00    +0.000 C 
ENDROOT
BRANCH   1   2
ATOM      2  C   UNL     1       5.799  -4.030  -6.192  0.00  0.00    +0.000 A 
ATOM      3  C   UNL     1       7.155  -3.797  -6.438  0.00  0.00    +0.000 A 
ATOM      4  C   UNL     1       7.894  -4.695  -7.222  0.00  0.00    +0.000 A 
ATOM      5  C   UNL     1       7.200  -5.800  -7.736  0.00  0.00    +0.000 A 
ATOM      6  C   UNL     1       5.856  -5.960  -7.450  0.00  0.00    +0.000 A 
ATOM      7  N   UNL     1       5.146  -5.108  -6.690  0.00  0.00    +0.000 NA
BRANCH   4   8
ATOM      8  C   UNL     1       9.340  -4.503  -7.484  0.00  0.00    +0.000 A 
ATOM      9  C   UNL     1      10.185  -3.891  -6.536  0.00  0.00    +0.000 A 
ATOM     10  C   UNL     1      11.559  -3.744  -6.761  0.00  0.00    +0.000 A 
ATOM     11  C   UNL     1      12.123  -4.214  -7.942  0.00  0.00    +0.000 A 
ATOM     12  C   UNL     1      11.306  -4.810  -8.890  0.00  0.00    +0.000 A 
ATOM     13  F   UNL     1      11.843  -5.270 -10.027  0.00  0.00    +0.000 F 
ATOM     14  C   UNL     1       9.937  -4.948  -8.677  0.00  0.00    +0.000 A 
ENDBRANCH   4   8
ENDBRANCH   1   2
BRANCH   1  15
ATOM     15  N   UNL     1       5.513  -2.842  -4.043  0.00  0.00    +0.000 N 
ATOM     16  H   UNL     1       5.711  -3.725  -3.573  0.00  0.00    +0.000 HD
BRANCH  15  20
ATOM     17  C   UNL     1       3.704  -0.078  -1.405  0.00  0.00    +0.000 A 
ATOM     18  C   UNL     1       3.137  -0.301  -2.660  0.00  0.00    +0.000 A 
ATOM     19  C   UNL     1       3.721  -1.218  -3.541  0.00  0.00    +0.000 A 
ATOM     20  C   UNL     1       4.861  -1.950  -3.183  0.00  0.00    +0.000 A 
ATOM     21  C   UNL     1       5.424  -1.707  -1.924  0.00  0.00    +0.000 A 
ATOM     22  C   UNL     1       4.861  -0.772  -1.043  0.00  0.00    +0.000 A 
BRANCH  17  24
ATOM     23  N   UNL     1       1.779   1.126  -0.532  0.00  0.00    +0.000 N 
ATOM     24  C   UNL     1       3.127   0.907  -0.457  0.00  0.00    +0.000 C 
ATOM     25  O   UNL     1       3.815   1.475   0.382  0.00  0.00    +0.000 OA
ATOM     26  H   UNL     1       1.381   1.715   0.186  0.00  0.00    +0.000 HD
ATOM     27  H   UNL     1       1.157   0.498  -1.023  0.00  0.00    +0.000 HD
ENDBRANCH  17  24
ENDBRANCH  15  20
ENDBRANCH   1  15
TORSDOF 5
