REMARK  Name = 
REMARK  7 active torsions:
REMARK  status: ('A' for Active; 'I' for Inactive)
REMARK    1  A    between atoms: C_1  and  C_2
REMARK    2  A    between atoms: C_2  and  C_3
REMARK    3  A    between atoms: C_7  and  C_8
REMARK    4  A    between atoms: C_8  and  C_9
REMARK    5  A    between atoms: C_9  and  N_10
REMARK    6  A    between atoms: N_10  and  C_11
REMARK    7  A    between atoms: C_14  and  C_15
REMARK                            x       y       z     vdW  Elec       q    Type
REMARK                         _______ _______ _______ _____ _____    ______ ____
ROOT
ATOM      1  C   UNL     1       3.275   3.601  -4.197  0.00  0.00    +0.000 C 
ENDROOT
BRANCH   1   2
ATOM      2  N   UNL     1       3.735   4.897  -4.719  0.00  0.00    +0.000 N 
ATOM      3  H   UNL     1       4.376   4.797  -5.505  0.00  0.00    +0.000 HD
BRANCH   2   4
ATOM      4  C   UNL     1       2.727   5.847  -4.983  0.00  0.00    +0.000 A 
ATOM      5  C   UNL     1       1.550   5.927  -4.235  0.00  0.00    +0.000 A 
ATOM      6  C   UNL     1       0.601   6.916  -4.488  0.00  0.00    +0.000 A 
ATOM      7  C   UNL     1       0.870   7.844  -5.479  0.00  0.00    +0.000 A 
ATOM      8  N   UNL     1       2.017   7.851  -6.215  0.00  0.00    +0.000 NA
ATOM      9  C   UNL     1       2.912   6.866  -5.929  0.00  0.00    +0.000 A 
BRANCH   7  10
ATOM     10  C   UNL     1      -0.138   8.918  -5.756  0.00  0.00    +0.000 C 
ATOM     11  N   UNL     1       0.200   9.804  -6.744  0.00  0.00    +0.000 N 
ATOM     12  O   UNL     1      -1.194   9.010  -5.145  0.00  0.00    +0.000 OA
ATOM     13  H   UNL     1       1.092   9.716  -7.212  0.00  0.00    +0.000 HD
ATOM     14  H   UNL     1      -0.426  10.567  -6.955  0.00  0.00    +0.000 HD
ENDBRANCH   7  10
ENDBRANCH   2   4
ENDBRANCH   1   2
BRANCH   1  15
ATOM     15  C   UNL     1       4.434   2.628  -3.946  0.00  0.00    +0.000 C 
BRANCH  15  20
ATOM     16  C   UNL     1       3.011   0.053  -1.488  0.00  0.00    +0.000 A 
ATOM     17  C   UNL     1       2.683  -0.982  -2.387  0.00  0.00    +0.000 A 
ATOM     18  C   UNL     1       2.955  -0.876  -3.752  0.00  0.00    +0.000 A 
ATOM     19  C   UNL     1       3.550   0.276  -4.259  0.00  0.00    +0.000 A 
ATOM     20  C   UNL     1       3.901   1.319  -3.398  0.00  0.00    +0.000 A 
ATOM     21  C   UNL     1       3.651   1.186  -2.018  0.00  0.00    +0.000 A 
BRANCH  16  23
ATOM     22  C   UNL     1       1.033  -0.103   0.024  0.00  0.00    +0.000 C 
ATOM     23  C   UNL     1       2.572  -0.055  -0.017  0.00  0.00    +0.000 C 
ATOM     24  C   UNL     1       3.204  -1.272   0.669  0.00  0.00    +0.000 C 
ATOM     25  C   UNL     1       4.432  -0.725   1.385  0.00  0.00    +0.000 C 
ATOM     26  O   UNL     1       4.382   0.704   1.320  0.00  0.00    +0.000 OA
ATOM     27  C   UNL     1       3.055   1.061   0.923  0.00  0.00    +0.000 C 
ENDBRANCH  16  23
ENDBRANCH  15  20
ENDBRANCH   1  15
TORSDOF 6
