REMARK  Name = 
REMARK  7 active torsions:
REMARK  status: ('A' for Active; 'I' for Inactive)
REMARK    1  A    between atoms: C_1  and  O_2
REMARK    2  A    between atoms: O_2  and  C_3
REMARK    3  A    between atoms: C_5  and  C_6
REMARK    4  A    between atoms: N_13  and  C_14
REMARK    5  A    between atoms: C_14  and  C_15
REMARK    6  A    between atoms: C_18  and  C_19
REMARK    7  A    between atoms: C_19  and  N_20
REMARK                            x       y       z     vdW  Elec       q    Type
REMARK                         _______ _______ _______ _____ _____    ______ ____
ROOT
ATOM      1  C   UNL     1       3.044  -1.283  -0.756  0.00  0.00    +0.000 A 
ATOM      2  C   UNL     1       2.804  -1.909  -1.992  0.00  0.00    +0.000 A 
ATOM      3  C   UNL     1       3.499  -3.043  -2.408  0.00  0.00    +0.000 A 
ATOM      4  C   UNL     1       4.535  -3.533  -1.612  0.00  0.00    +0.000 A 
ATOM      5  C   UNL     1       4.869  -2.875  -0.403  0.00  0.00    +0.000 A 
ATOM      6  C   UNL     1       5.873  -3.120   0.569  0.00  0.00    +0.000 A 
ATOM      7  C   UNL     1       5.741  -2.178   1.556  0.00  0.00    +0.000 A 
ATOM      8  N   UNL     1       4.674  -1.363   1.240  0.00  0.00    +0.000 N 
ATOM      9  C   UNL     1       4.125  -1.763   0.022  0.00  0.00    +0.000 A 
ENDROOT
BRANCH   3  10
ATOM     10  C   UNL     1       3.038  -3.674  -3.682  0.00  0.00    +0.000 C 
ATOM     11  N   UNL     1       3.629  -4.834  -4.092  0.00  0.00    +0.000 N 
ATOM     12  O   UNL     1       2.131  -3.193  -4.347  0.00  0.00    +0.000 OA
ATOM     13  H   UNL     1       4.319  -5.351  -3.570  0.00  0.00    +0.000 HD
ATOM     14  H   UNL     1       3.238  -5.267  -4.921  0.00  0.00    +0.000 HD
ENDBRANCH   3  10
BRANCH   1  16
ATOM     15  C   UNL     1       0.903  -0.299  -0.791  0.00  0.00    +0.000 C 
ATOM     16  O   UNL     1       2.253  -0.245  -0.311  0.00  0.00    +0.000 OA
ENDBRANCH   1  16
BRANCH   8  17
ATOM     17  C   UNL     1       4.291  -0.225   2.086  0.00  0.00    +0.000 C 
BRANCH  17  18
ATOM     18  C   UNL     1       3.474  -0.667   3.280  0.00  0.00    +0.000 A 
ATOM     19  C   UNL     1       4.006  -0.667   4.579  0.00  0.00    +0.000 A 
ATOM     20  C   UNL     1       3.307  -1.270   5.633  0.00  0.00    +0.000 A 
ATOM     21  C   UNL     1       2.067  -1.886   5.410  0.00  0.00    +0.000 A 
ATOM     22  C   UNL     1       1.487  -1.771   4.140  0.00  0.00    +0.000 A 
ATOM     23  C   UNL     1       2.179  -1.162   3.092  0.00  0.00    +0.000 A 
BRANCH  21  24
ATOM     24  C   UNL     1       1.493  -2.822   6.447  0.00  0.00    +0.000 C 
BRANCH  24  25
ATOM     25  N   UNL     1       0.036  -2.885   6.455  0.00  0.00    +0.000 NA
ATOM     26  H   UNL     1      -0.328  -2.008   6.823  0.00  0.00    +0.000 HD
ATOM     27  H   UNL     1      -0.256  -3.616   7.101  0.00  0.00    +0.000 HD
ENDBRANCH  24  25
ENDBRANCH  21  24
ENDBRANCH  17  18
ENDBRANCH   8  17
TORSDOF 6
