REMARK  Name = 
REMARK  10 active torsions:
REMARK  status: ('A' for Active; 'I' for Inactive)
REMARK    1  A    between atoms: C_1  and  C_2
REMARK    2  A    between atoms: C_2  and  O_3
REMARK    3  A    between atoms: C_2  and  C_20
REMARK    4  A    between atoms: O_3  and  C_4
REMARK    5  A    between atoms: C_4  and  C_5
REMARK    6  A    between atoms: C_8  and  C_9
REMARK    7  A    between atoms: C_9  and  N_10
REMARK    8  A    between atoms: N_10  and  C_11
REMARK    9  A    between atoms: C_11  and  C_12
REMARK   10  A    between atoms: C_11  and  C_13
REMARK                            x       y       z     vdW  Elec       q    Type
REMARK                         _______ _______ _______ _____ _____    ______ ____
ROOT
ATOM      1  C   UNL     1     -10.303   2.874  -0.588  0.00  0.00    +0.000 A 
ATOM      2  C   UNL     1      -9.576   2.499  -1.727  0.00  0.00    +0.000 A 
ATOM      3  C   UNL     1      -8.900   1.279  -1.766  0.00  0.00    +0.000 A 
ATOM      4  C   UNL     1      -8.942   0.413  -0.666  0.00  0.00    +0.000 A 
ATOM      5  C   UNL     1      -9.668   0.788   0.471  0.00  0.00    +0.000 A 
ATOM      6  C   UNL     1     -10.344   2.007   0.510  0.00  0.00    +0.000 A 
ENDROOT
BRANCH   1   7
ATOM      7  C   UNL     1     -10.944   4.234  -0.507  0.00  0.00    +0.000 C 
BRANCH   7   8
ATOM      8  O   UNL     1     -11.788   4.447  -1.634  0.00  0.00    +0.000 OA
BRANCH   8  10
ATOM      9  C   UNL     1     -11.408   6.857  -1.704  0.00  0.00    +0.000 C 
ATOM     10  C   UNL     1     -12.445   5.727  -1.646  0.00  0.00    +0.000 C 
BRANCH  10  11
ATOM     11  C   UNL     1     -13.355   5.810  -2.860  0.00  0.00    +0.000 A 
ATOM     12  C   UNL     1     -13.102   5.143  -4.049  0.00  0.00    +0.000 A 
ATOM     13  S   UNL     1     -14.229   5.496  -5.280  0.00  0.00    +0.000 S 
ATOM     14  C   UNL     1     -15.113   6.529  -4.255  0.00  0.00    +0.000 A 
ATOM     15  N   UNL     1     -16.216   7.185  -4.707  0.00  0.00    +0.000 NA
ATOM     16  C   UNL     1     -16.794   7.922  -3.815  0.00  0.00    +0.000 A 
ATOM     17  N   UNL     1     -16.376   8.057  -2.515  0.00  0.00    +0.000 N 
ATOM     18  C   UNL     1     -15.261   7.413  -2.016  0.00  0.00    +0.000 A 
ATOM     19  O   UNL     1     -14.913   7.546  -0.844  0.00  0.00    +0.000 OA
ATOM     20  C   UNL     1     -14.565   6.588  -2.986  0.00  0.00    +0.000 A 
ATOM     21  H   UNL     1     -16.888   8.635  -1.866  0.00  0.00    +0.000 HD
ENDBRANCH  10  11
ENDBRANCH   8  10
ENDBRANCH   7   8
ENDBRANCH   1   7
BRANCH   4  22
ATOM     22  C   UNL     1      -8.264  -0.931  -0.724  0.00  0.00    +0.000 C 
BRANCH  22  23
ATOM     23  N   UNL     1      -6.817  -0.812  -0.920  0.00  0.00    +0.000 NA
ATOM     24  H   UNL     1      -6.442  -0.318  -0.102  0.00  0.00    +0.000 HD
BRANCH  23  25
ATOM     25  C   UNL     1      -6.127  -2.120  -0.953  0.00  0.00    +0.000 C 
ATOM     26  C   UNL     1      -6.545  -2.948  -2.171  0.00  0.00    +0.000 C 
BRANCH  25  27
ATOM     27  C   UNL     1      -6.291  -2.831   0.376  0.00  0.00    +0.000 A 
ATOM     28  C   UNL     1      -6.914  -4.076   0.648  0.00  0.00    +0.000 A 
ATOM     29  C   UNL     1      -6.892  -4.198   2.015  0.00  0.00    +0.000 A 
ATOM     30  N   UNL     1      -6.268  -3.082   2.482  0.00  0.00    +0.000 N 
ATOM     31  N   UNL     1      -5.889  -2.234   1.512  0.00  0.00    +0.000 NA
ATOM     32  H   UNL     1      -6.080  -2.823   3.445  0.00  0.00    +0.000 HD
ENDBRANCH  25  27
ENDBRANCH  23  25
ENDBRANCH  22  23
ENDBRANCH   4  22
TORSDOF 8
