REMARK  Name = 
REMARK  10 active torsions:
REMARK  status: ('A' for Active; 'I' for Inactive)
REMARK    1  A    between atoms: C_1  and  N_2
REMARK    2  A    between atoms: N_2  and  C_3
REMARK    3  A    between atoms: N_2  and  C_4
REMARK    4  A    between atoms: C_4  and  C_5
REMARK    5  A    between atoms: C_5  and  O_6
REMARK    6  A    between atoms: O_6  and  C_7
REMARK    7  A    between atoms: C_10  and  C_11
REMARK    8  A    between atoms: C_11  and  O_12
REMARK    9  A    between atoms: O_12  and  C_13
REMARK   10  A    between atoms: C_16  and  C_17
REMARK                            x       y       z     vdW  Elec       q    Type
REMARK                         _______ _______ _______ _____ _____    ______ ____
ROOT
ATOM      1  C   UNL     1      10.503   3.771   1.280  0.00  0.00    +0.000 C 
ENDROOT
BRANCH   1   5
ATOM      2  C   UNL     1       6.265   2.871   1.151  0.00  0.00    +0.000 A 
ATOM      3  C   UNL     1       7.094   2.522   0.082  0.00  0.00    +0.000 A 
ATOM      4  C   UNL     1       8.461   2.825   0.113  0.00  0.00    +0.000 A 
ATOM      5  C   UNL     1       9.020   3.485   1.215  0.00  0.00    +0.000 A 
ATOM      6  C   UNL     1       8.176   3.867   2.265  0.00  0.00    +0.000 A 
ATOM      7  C   UNL     1       6.811   3.562   2.232  0.00  0.00    +0.000 A 
BRANCH   2   8
ATOM      8  O   UNL     1       4.920   2.618   1.220  0.00  0.00    +0.000 OA
BRANCH   8   9
ATOM      9  C   UNL     1       4.485   1.462   0.494  0.00  0.00    +0.000 C 
BRANCH   9  10
ATOM     10  C   UNL     1       2.961   1.306   0.635  0.00  0.00    +0.000 C 
BRANCH  10  12
ATOM     11  C   UNL     1       0.955   0.070   0.126  0.00  0.00    +0.000 C 
ATOM     12  N   UNL     1       2.407   0.131  -0.072  0.00  0.00    +0.000 NA
ATOM     13  C   UNL     1       2.703   0.148  -1.506  0.00  0.00    +0.000 C 
ENDBRANCH  10  12
ENDBRANCH   9  10
ENDBRANCH   8   9
ENDBRANCH   2   8
ENDBRANCH   1   5
BRANCH   1  14
ATOM     14  O   UNL     1      10.781   5.034   0.676  0.00  0.00    +0.000 OA
BRANCH  14  15
ATOM     15  C   UNL     1      12.093   5.427   0.642  0.00  0.00    +0.000 A 
ATOM     16  C   UNL     1      13.177   4.730   1.176  0.00  0.00    +0.000 A 
ATOM     17  C   UNL     1      14.475   5.249   1.059  0.00  0.00    +0.000 A 
ATOM     18  C   UNL     1      14.706   6.462   0.397  0.00  0.00    +0.000 A 
ATOM     19  C   UNL     1      13.622   7.155  -0.151  0.00  0.00    +0.000 A 
ATOM     20  C   UNL     1      12.325   6.639  -0.017  0.00  0.00    +0.000 A 
BRANCH  18  21
ATOM     21  C   UNL     1      16.099   6.972   0.333  0.00  0.00    +0.000 C 
ATOM     22  N   UNL     1      16.456   7.759  -0.724  0.00  0.00    +0.000 N 
ATOM     23  O   UNL     1      16.924   6.684   1.199  0.00  0.00    +0.000 OA
ATOM     24  H   UNL     1      15.840   8.019  -1.482  0.00  0.00    +0.000 HD
ATOM     25  H   UNL     1      17.415   8.086  -0.751  0.00  0.00    +0.000 HD
ENDBRANCH  18  21
ENDBRANCH  14  15
ENDBRANCH   1  14
TORSDOF 8
