REMARK  Name = 
REMARK  5 active torsions:
REMARK  status: ('A' for Active; 'I' for Inactive)
REMARK    1  A    between atoms: C_2  and  C_4
REMARK    2  A    between atoms: C_7  and  S_8
REMARK    3  A    between atoms: S_8  and  C_9
REMARK    4  A    between atoms: C_9  and  C_10
REMARK    5  A    between atoms: C_14  and  C_15
REMARK                            x       y       z     vdW  Elec       q    Type
REMARK                         _______ _______ _______ _____ _____    ______ ____
ROOT
ATOM      1  C   UNL     1       4.981   5.431   3.246  0.00  0.00    +0.000 C 
ENDROOT
BRANCH   1   2
ATOM      2  C   UNL     1       5.630   6.667   3.822  0.00  0.00    +0.000 A 
ATOM      3  C   UNL     1       5.255   7.940   3.379  0.00  0.00    +0.000 A 
ATOM      4  C   UNL     1       5.830   9.076   3.942  0.00  0.00    +0.000 A 
ATOM      5  C   UNL     1       6.773   8.948   4.965  0.00  0.00    +0.000 A 
ATOM      6  C   UNL     1       7.171   7.687   5.444  0.00  0.00    +0.000 A 
ATOM      7  C   UNL     1       6.588   6.554   4.846  0.00  0.00    +0.000 A 
BRANCH   6   8
ATOM      8  C   UNL     1       8.118   7.572   6.568  0.00  0.00    +0.000 A 
ATOM      9  C   UNL     1       9.028   6.523   6.709  0.00  0.00    +0.000 A 
ATOM     10  N   UNL     1       9.853   6.383   7.779  0.00  0.00    +0.000 NA
ATOM     11  C   UNL     1       9.738   7.344   8.719  0.00  0.00    +0.000 A 
ATOM     12  C   UNL     1       8.856   8.402   8.589  0.00  0.00    +0.000 A 
ATOM     13  N   UNL     1       8.041   8.542   7.519  0.00  0.00    +0.000 NA
ENDBRANCH   6   8
ENDBRANCH   1   2
BRANCH   1  14
ATOM     14  S   UNL     1       3.545   4.911   4.244  0.00  0.00    +0.000 S 
BRANCH  14  18
ATOM     15  C   UNL     1       2.245   1.268   1.879  0.00  0.00    +0.000 A 
ATOM     16  C   UNL     1       1.521   1.632   3.013  0.00  0.00    +0.000 A 
ATOM     17  C   UNL     1       1.923   2.752   3.747  0.00  0.00    +0.000 A 
ATOM     18  C   UNL     1       3.034   3.477   3.323  0.00  0.00    +0.000 A 
ATOM     19  N   UNL     1       3.751   3.128   2.232  0.00  0.00    +0.000 NA
ATOM     20  C   UNL     1       3.350   2.033   1.541  0.00  0.00    +0.000 A 
BRANCH  15  22
ATOM     21  N   UNL     1       0.616  -0.321   1.020  0.00  0.00    +0.000 N 
ATOM     22  C   UNL     1       1.915   0.103   1.033  0.00  0.00    +0.000 C 
ATOM     23  O   UNL     1       2.764  -0.440   0.339  0.00  0.00    +0.000 OA
ATOM     24  H   UNL     1       0.393  -1.047   0.350  0.00  0.00    +0.000 HD
ATOM     25  H   UNL     1      -0.147   0.239   1.370  0.00  0.00    +0.000 HD
ENDBRANCH  15  22
ENDBRANCH  14  18
ENDBRANCH   1  14
TORSDOF 5
