REMARK  Name = 
REMARK  5 active torsions:
REMARK  status: ('A' for Active; 'I' for Inactive)
REMARK    1  A    between atoms: C_2  and  C_4
REMARK    2  A    between atoms: N_8  and  C_9
REMARK    3  A    between atoms: C_9  and  C_10
REMARK    4  A    between atoms: C_13  and  N_14
REMARK    5  A    between atoms: C_17  and  N_18
REMARK                            x       y       z     vdW  Elec       q    Type
REMARK                         _______ _______ _______ _____ _____    ______ ____
ROOT
ATOM      1  C   UNL     1       5.896  -4.695  -5.540  0.00  0.00    +0.000 A 
ATOM      2  C   UNL     1       7.109  -4.339  -6.133  0.00  0.00    +0.000 A 
ATOM      3  C   UNL     1       7.911  -5.313  -6.724  0.00  0.00    +0.000 A 
ATOM      4  C   UNL     1       7.534  -6.665  -6.762  0.00  0.00    +0.000 A 
ATOM      5  C   UNL     1       6.335  -7.010  -6.129  0.00  0.00    +0.000 A 
ATOM      6  C   UNL     1       5.520  -6.042  -5.534  0.00  0.00    +0.000 A 
ENDROOT
BRANCH   4   7
ATOM      7  N   UNL     1       8.345  -7.592  -7.387  0.00  0.00    +0.000 N 
ATOM      8  C   UNL     1       8.355  -9.001  -7.002  0.00  0.00    +0.000 C 
ATOM      9  C   UNL     1       9.805  -9.491  -7.001  0.00  0.00    +0.000 C 
ATOM     10  C   UNL     1      10.537  -9.187  -8.317  0.00  0.00    +0.000 C 
ATOM     11  C   UNL     1      10.387  -7.706  -8.687  0.00  0.00    +0.000 C 
ATOM     12  C   UNL     1       8.928  -7.269  -8.694  0.00  0.00    +0.000 C 
BRANCH  10  13
ATOM     13  N   UNL     1      10.079 -10.048  -9.412  0.00  0.00    +0.000 NA
ATOM     14  H   UNL     1       9.082  -9.917  -9.581  0.00  0.00    +0.000 HD
ATOM     15  H   UNL     1      10.192 -11.027  -9.149  0.00  0.00    +0.000 HD
ENDBRANCH  10  13
ENDBRANCH   4   7
BRANCH   1  16
ATOM     16  C   UNL     1       4.999  -3.644  -4.948  0.00  0.00    +0.000 C 
BRANCH  16  21
ATOM     17  C   UNL     1       1.317  -0.119  -5.404  0.00  0.00    +0.000 A 
ATOM     18  C   UNL     1       2.068  -0.525  -4.308  0.00  0.00    +0.000 A 
ATOM     19  C   UNL     1       2.996  -1.552  -4.467  0.00  0.00    +0.000 A 
ATOM     20  C   UNL     1       3.151  -2.169  -5.706  0.00  0.00    +0.000 A 
ATOM     21  N   UNL     1       4.063  -3.163  -5.931  0.00  0.00    +0.000 N 
ATOM     22  N   UNL     1       2.400  -1.804  -6.765  0.00  0.00    +0.000 NA
ATOM     23  C   UNL     1       1.502  -0.797  -6.599  0.00  0.00    +0.000 A 
ATOM     24  H   UNL     1       4.014  -3.594  -6.846  0.00  0.00    +0.000 HD
BRANCH  17  26
ATOM     25  N   UNL     1       0.603   1.973  -4.415  0.00  0.00    +0.000 N 
ATOM     26  C   UNL     1       0.347   0.987  -5.331  0.00  0.00    +0.000 C 
ATOM     27  O   UNL     1      -0.623   1.049  -6.078  0.00  0.00    +0.000 OA
ATOM     28  H   UNL     1      -0.010   2.780  -4.445  0.00  0.00    +0.000 HD
ATOM     29  H   UNL     1       1.500   2.085  -3.979  0.00  0.00    +0.000 HD
ENDBRANCH  17  26
ENDBRANCH  16  21
ENDBRANCH   1  16
TORSDOF 5
