REMARK  Name = 
REMARK  3 active torsions:
REMARK  status: ('A' for Active; 'I' for Inactive)
REMARK    1  A    between atoms: C_2  and  C_4
REMARK    2  A    between atoms: N_8  and  C_9
REMARK    3  A    between atoms: C_9  and  C_10
REMARK                            x       y       z     vdW  Elec       q    Type
REMARK                         _______ _______ _______ _____ _____    ______ ____
ROOT
ATOM      1  C   UNL     1       2.608   1.079  -1.000  0.00  0.00    +0.000 A 
ATOM      2  C   UNL     1       3.970   1.018  -0.729  0.00  0.00    +0.000 A 
ATOM      3  C   UNL     1       4.794   2.025  -1.218  0.00  0.00    +0.000 A 
ATOM      4  C   UNL     1       4.248   3.089  -1.943  0.00  0.00    +0.000 A 
ATOM      5  N   UNL     1       5.159   4.077  -2.348  0.00  0.00    +0.000 N 
ATOM      6  N   UNL     1       2.932   3.154  -2.214  0.00  0.00    +0.000 NA
ATOM      7  C   UNL     1       2.143   2.144  -1.758  0.00  0.00    +0.000 A 
ATOM      8  H   UNL     1       5.853   3.659  -2.972  0.00  0.00    +0.000 HD
ENDROOT
BRANCH   1  10
ATOM      9  N   UNL     1       1.979  -0.601   0.632  0.00  0.00    +0.000 N 
ATOM     10  C   UNL     1       1.663   0.055  -0.523  0.00  0.00    +0.000 C 
ATOM     11  O   UNL     1       0.615  -0.174  -1.118  0.00  0.00    +0.000 OA
ATOM     12  H   UNL     1       1.277  -1.229   1.002  0.00  0.00    +0.000 HD
ATOM     13  H   UNL     1       2.693  -0.272   1.268  0.00  0.00    +0.000 HD
ENDBRANCH   1  10
BRANCH   5  14
ATOM     14  C   UNL     1       4.832   5.464  -2.772  0.00  0.00    +0.000 C 
ATOM     15  C   UNL     1       4.551   6.391  -1.587  0.00  0.00    +0.000 C 
ATOM     16  C   UNL     1       3.504   6.182  -2.630  0.00  0.00    +0.000 C 
BRANCH  14  17
ATOM     17  C   UNL     1       5.815   5.959  -3.872  0.00  0.00    +0.000 A 
ATOM     18  N   UNL     1       6.592   5.010  -4.464  0.00  0.00    +0.000 NA
ATOM     19  C   UNL     1       7.549   5.429  -5.310  0.00  0.00    +0.000 A 
ATOM     20  C   UNL     1       7.777   6.750  -5.595  0.00  0.00    +0.000 A 
ATOM     21  C   UNL     1       6.931   7.641  -4.982  0.00  0.00    +0.000 A 
ATOM     22  N   UNL     1       5.955   7.279  -4.128  0.00  0.00    +0.000 NA
ENDBRANCH  14  17
ENDBRANCH   5  14
TORSDOF 3
