REMARK  Name = 
REMARK  8 active torsions:
REMARK  status: ('A' for Active; 'I' for Inactive)
REMARK    1  A    between atoms: C_1  and  O_2
REMARK    2  A    between atoms: O_2  and  C_3
REMARK    3  A    between atoms: C_5  and  C_6
REMARK    4  A    between atoms: C_11  and  N_12
REMARK    5  A    between atoms: N_12  and  C_13
REMARK    6  A    between atoms: C_13  and  C_14
REMARK    7  A    between atoms: C_18  and  C_19
REMARK    8  A    between atoms: C_22  and  C_23
REMARK                            x       y       z     vdW  Elec       q    Type
REMARK                         _______ _______ _______ _____ _____    ______ ____
ROOT
ATOM      1  C   UNL     1       3.994   0.901  -1.738  0.00  0.00    +0.000 C 
ENDROOT
BRANCH   1   2
ATOM      2  C   UNL     1       4.710   1.238  -3.021  0.00  0.00    +0.000 A 
ATOM      3  C   UNL     1       5.701   0.393  -3.529  0.00  0.00    +0.000 A 
ATOM      4  C   UNL     1       6.289   0.668  -4.761  0.00  0.00    +0.000 A 
ATOM      5  C   UNL     1       5.889   1.789  -5.494  0.00  0.00    +0.000 A 
ATOM      6  C   UNL     1       4.907   2.669  -5.008  0.00  0.00    +0.000 A 
ATOM      7  C   UNL     1       4.342   2.379  -3.753  0.00  0.00    +0.000 A 
BRANCH   6   8
ATOM      8  C   UNL     1       4.436   3.812  -5.815  0.00  0.00    +0.000 A 
ATOM      9  C   UNL     1       3.984   5.003  -5.249  0.00  0.00    +0.000 A 
ATOM     10  C   UNL     1       3.460   5.998  -6.074  0.00  0.00    +0.000 A 
ATOM     11  C   UNL     1       3.400   5.792  -7.452  0.00  0.00    +0.000 A 
ATOM     12  C   UNL     1       3.894   4.593  -7.938  0.00  0.00    +0.000 A 
ATOM     13  N   UNL     1       4.409   3.614  -7.159  0.00  0.00    +0.000 NA
BRANCH  11  14
ATOM     14  C   UNL     1       2.828   6.800  -8.398  0.00  0.00    +0.000 C 
ATOM     15  F   UNL     1       2.365   7.922  -7.779  0.00  0.00    +0.000 F 
ATOM     16  F   UNL     1       3.735   7.228  -9.317  0.00  0.00    +0.000 F 
ATOM     17  F   UNL     1       1.776   6.309  -9.110  0.00  0.00    +0.000 F 
ENDBRANCH  11  14
ENDBRANCH   6   8
ENDBRANCH   1   2
BRANCH   1  18
ATOM     18  N   UNL     1       4.663   1.469  -0.598  0.00  0.00    +0.000 N 
ATOM     19  H   UNL     1       5.526   1.981  -0.718  0.00  0.00    +0.000 HD
BRANCH  18  25
ATOM     20  C   UNL     1       3.090   0.635   1.116  0.00  0.00    +0.000 A 
ATOM     21  C   UNL     1       2.786   0.590   2.481  0.00  0.00    +0.000 A 
ATOM     22  C   UNL     1       3.614   1.219   3.409  0.00  0.00    +0.000 A 
ATOM     23  C   UNL     1       4.728   1.875   2.918  0.00  0.00    +0.000 A 
ATOM     24  N   UNL     1       5.054   1.942   1.600  0.00  0.00    +0.000 NA
ATOM     25  C   UNL     1       4.247   1.327   0.702  0.00  0.00    +0.000 A 
BRANCH  22  26
ATOM     26  C   UNL     1       3.251   1.136   4.847  0.00  0.00    +0.000 C 
ATOM     27  N   UNL     1       4.071   1.706   5.778  0.00  0.00    +0.000 N 
ATOM     28  O   UNL     1       2.230   0.561   5.209  0.00  0.00    +0.000 OA
ATOM     29  H   UNL     1       4.942   2.178   5.597  0.00  0.00    +0.000 HD
ATOM     30  H   UNL     1       3.785   1.606   6.745  0.00  0.00    +0.000 HD
ENDBRANCH  22  26
BRANCH  20  32
ATOM     31  C   UNL     1       0.977  -0.286   0.488  0.00  0.00    +0.000 C 
ATOM     32  O   UNL     1       2.336  -0.016   0.173  0.00  0.00    +0.000 OA
ENDBRANCH  20  32
ENDBRANCH  18  25
ENDBRANCH   1  18
TORSDOF 7
