REMARK  Name = 
REMARK  3 active torsions:
REMARK  status: ('A' for Active; 'I' for Inactive)
REMARK    1  A    between atoms: C_2  and  C_4
REMARK    2  A    between atoms: N_8  and  C_9
REMARK    3  A    between atoms: C_9  and  C_10
REMARK                            x       y       z     vdW  Elec       q    Type
REMARK                         _______ _______ _______ _____ _____    ______ ____
ROOT
ATOM      1  C   UNL     1       3.037  -3.466  -0.860  0.00  0.00    +0.000 A 
ATOM      2  C   UNL     1       2.331  -3.109  -2.002  0.00  0.00    +0.000 A 
ATOM      3  C   UNL     1       3.024  -2.657  -3.125  0.00  0.00    +0.000 A 
ATOM      4  C   UNL     1       4.409  -2.581  -3.092  0.00  0.00    +0.000 A 
ATOM      5  N   UNL     1       5.173  -2.081  -4.150  0.00  0.00    +0.000 N 
ATOM      6  N   UNL     1       5.104  -2.904  -1.976  0.00  0.00    +0.000 NA
ATOM      7  C   UNL     1       4.414  -3.327  -0.885  0.00  0.00    +0.000 A 
ATOM      8  H   UNL     1       6.143  -2.199  -3.866  0.00  0.00    +0.000 HD
ENDROOT
BRANCH   1  10
ATOM      9  N   UNL     1       1.169  -4.590   0.197  0.00  0.00    +0.000 N 
ATOM     10  C   UNL     1       2.364  -3.944   0.368  0.00  0.00    +0.000 C 
ATOM     11  O   UNL     1       2.855  -3.794   1.473  0.00  0.00    +0.000 OA
ATOM     12  H   UNL     1       0.744  -4.988   1.020  0.00  0.00    +0.000 HD
ATOM     13  H   UNL     1       0.859  -4.940  -0.704  0.00  0.00    +0.000 HD
ENDBRANCH   1  10
BRANCH   5  14
ATOM     14  C   UNL     1       4.896  -2.285  -5.585  0.00  0.00    +0.000 C 
ATOM     15  C   UNL     1       5.055  -1.008  -6.404  0.00  0.00    +0.000 C 
ATOM     16  C   UNL     1       3.727  -1.681  -6.342  0.00  0.00    +0.000 C 
BRANCH  14  17
ATOM     17  C   UNL     1       5.438  -3.605  -6.131  0.00  0.00    +0.000 A 
ATOM     18  C   UNL     1       6.743  -3.722  -6.649  0.00  0.00    +0.000 A 
ATOM     19  C   UNL     1       7.248  -4.948  -7.100  0.00  0.00    +0.000 A 
ATOM     20  C   UNL     1       6.451  -6.088  -7.046  0.00  0.00    +0.000 A 
ATOM     21  C   UNL     1       5.158  -5.987  -6.555  0.00  0.00    +0.000 A 
ATOM     22  F   UNL     1       4.384  -7.080  -6.503  0.00  0.00    +0.000 F 
ATOM     23  C   UNL     1       4.652  -4.771  -6.105  0.00  0.00    +0.000 A 
ENDBRANCH  14  17
ENDBRANCH   5  14
TORSDOF 3
