REMARK  Name = 
REMARK  7 active torsions:
REMARK  status: ('A' for Active; 'I' for Inactive)
REMARK    1  A    between atoms: C_1  and  C_2
REMARK    2  A    between atoms: C_5  and  C_6
REMARK    3  A    between atoms: N_8  and  C_9
REMARK    4  A    between atoms: C_9  and  C_10
REMARK    5  A    between atoms: C_13  and  C_14
REMARK    6  A    between atoms: C_14  and  N_15
REMARK    7  A    between atoms: C_16  and  C_18
REMARK                            x       y       z     vdW  Elec       q    Type
REMARK                         _______ _______ _______ _____ _____    ______ ____
ROOT
ATOM      1  C   UNL     1       6.669   5.127  -0.060  0.00  0.00    +0.000 A 
ATOM      2  C   UNL     1       5.449   5.538   0.495  0.00  0.00    +0.000 A 
ATOM      3  C   UNL     1       5.119   6.897   0.568  0.00  0.00    +0.000 A 
ATOM      4  C   UNL     1       5.994   7.872   0.073  0.00  0.00    +0.000 A 
ATOM      5  C   UNL     1       7.227   7.462  -0.452  0.00  0.00    +0.000 A 
ATOM      6  C   UNL     1       7.556   6.104  -0.528  0.00  0.00    +0.000 A 
ENDROOT
BRANCH   1   7
ATOM      7  C   UNL     1       7.024   3.666  -0.142  0.00  0.00    +0.000 C 
BRANCH   7  10
ATOM      8  C   UNL     1       6.788   1.695  -1.564  0.00  0.00    +0.000 C 
ATOM      9  O   UNL     1       7.382   0.975  -0.767  0.00  0.00    +0.000 OA
ATOM     10  N   UNL     1       6.552   3.031  -1.349  0.00  0.00    +0.000 N 
ATOM     11  H   UNL     1       6.078   3.560  -2.074  0.00  0.00    +0.000 HD
BRANCH   8  16
ATOM     12  C   UNL     1       4.597   1.411  -6.040  0.00  0.00    +0.000 C 
ATOM     13  C   UNL     1       5.330   1.093  -4.780  0.00  0.00    +0.000 C 
ATOM     14  C   UNL     1       5.892  -0.244  -4.522  0.00  0.00    +0.000 C 
ATOM     15  C   UNL     1       6.489  -0.103  -3.233  0.00  0.00    +0.000 C 
ATOM     16  C   UNL     1       6.271   1.172  -2.868  0.00  0.00    +0.000 C 
ATOM     17  N   UNL     1       5.561   1.932  -3.799  0.00  0.00    +0.000 NA
ENDBRANCH   8  16
ENDBRANCH   7  10
ENDBRANCH   1   7
BRANCH   4  18
ATOM     18  C   UNL     1       5.636   9.337   0.124  0.00  0.00    +0.000 C 
BRANCH  18  19
ATOM     19  N   UNL     1       6.086   9.946   1.350  0.00  0.00    +0.000 N 
ATOM     20  C   UNL     1       5.791  11.251   1.650  0.00  0.00    +0.000 C 
ATOM     21  O   UNL     1       5.091  11.949   0.924  0.00  0.00    +0.000 OA
ATOM     22  H   UNL     1       6.841   9.478   1.840  0.00  0.00    +0.000 HD
BRANCH  20  23
ATOM     23  C   UNL     1       6.308  11.756   2.933  0.00  0.00    +0.000 A 
ATOM     24  C   UNL     1       5.689  12.836   3.548  0.00  0.00    +0.000 A 
ATOM     25  S   UNL     1       6.375  13.251   5.054  0.00  0.00    +0.000 S 
ATOM     26  C   UNL     1       7.560  12.037   4.910  0.00  0.00    +0.000 A 
ATOM     27  N   UNL     1       8.503  11.864   5.874  0.00  0.00    +0.000 NA
ATOM     28  C   UNL     1       9.358  10.929   5.623  0.00  0.00    +0.000 A 
ATOM     29  N   UNL     1       9.350  10.148   4.495  0.00  0.00    +0.000 N 
ATOM     30  C   UNL     1       8.402  10.268   3.511  0.00  0.00    +0.000 A 
ATOM     31  O   UNL     1       8.402   9.527   2.532  0.00  0.00    +0.000 OA
ATOM     32  C   UNL     1       7.421  11.313   3.739  0.00  0.00    +0.000 A 
ATOM     33  H   UNL     1      10.044   9.427   4.362  0.00  0.00    +0.000 HD
ENDBRANCH  20  23
ENDBRANCH  18  19
ENDBRANCH   4  18
TORSDOF 6
