REMARK  Name = 
REMARK  6 active torsions:
REMARK  status: ('A' for Active; 'I' for Inactive)
REMARK    1  A    between atoms: C_2  and  C_25
REMARK    2  A    between atoms: N_3  and  C_4
REMARK    3  A    between atoms: C_4  and  C_5
REMARK    4  A    between atoms: C_8  and  C_9
REMARK    5  A    between atoms: C_9  and  N_10
REMARK    6  A    between atoms: C_11  and  C_13
REMARK                            x       y       z     vdW  Elec       q    Type
REMARK                         _______ _______ _______ _____ _____    ______ ____
ROOT
ATOM      1  C   UNL     1       3.364  -1.528   3.333  0.00  0.00    +0.000 A 
ATOM      2  C   UNL     1       4.129  -0.568   3.997  0.00  0.00    +0.000 A 
ATOM      3  C   UNL     1       5.010  -0.977   4.999  0.00  0.00    +0.000 A 
ATOM      4  C   UNL     1       5.129  -2.331   5.309  0.00  0.00    +0.000 A 
ATOM      5  C   UNL     1       4.316  -3.215   4.604  0.00  0.00    +0.000 A 
ATOM      6  N   UNL     1       3.454  -2.850   3.625  0.00  0.00    +0.000 NA
ENDROOT
BRANCH   1   7
ATOM      7  C   UNL     1       2.399  -1.114   2.246  0.00  0.00    +0.000 C 
BRANCH   7  10
ATOM      8  O   UNL     1       1.644   0.639   0.210  0.00  0.00    +0.000 OA
ATOM      9  C   UNL     1       2.553  -0.159  -0.009  0.00  0.00    +0.000 C 
ATOM     10  N   UNL     1       3.021  -1.035   0.945  0.00  0.00    +0.000 N 
ATOM     11  H   UNL     1       3.667  -1.761   0.644  0.00  0.00    +0.000 HD
BRANCH   9  12
ATOM     12  C   UNL     1       3.215  -0.201  -1.351  0.00  0.00    +0.000 A 
ATOM     13  C   UNL     1       2.823   0.719  -2.318  0.00  0.00    +0.000 A 
ATOM     14  C   UNL     1       3.453   0.692  -3.558  0.00  0.00    +0.000 A 
ATOM     15  C   UNL     1       4.447  -0.251  -3.786  0.00  0.00    +0.000 A 
ATOM     16  C   UNL     1       4.776  -1.132  -2.760  0.00  0.00    +0.000 A 
ATOM     17  N   UNL     1       4.187  -1.133  -1.543  0.00  0.00    +0.000 NA
ENDBRANCH   9  12
ENDBRANCH   7  10
ENDBRANCH   1   7
BRANCH   4  18
ATOM     18  C   UNL     1       6.061  -2.838   6.374  0.00  0.00    +0.000 C 
BRANCH  18  19
ATOM     19  N   UNL     1       5.412  -2.897   7.659  0.00  0.00    +0.000 N 
ATOM     20  C   UNL     1       6.086  -3.286   8.791  0.00  0.00    +0.000 C 
ATOM     21  O   UNL     1       7.284  -3.554   8.777  0.00  0.00    +0.000 OA
ATOM     22  H   UNL     1       4.398  -2.933   7.660  0.00  0.00    +0.000 HD
BRANCH  20  23
ATOM     23  C   UNL     1       5.306  -3.310  10.034  0.00  0.00    +0.000 A 
ATOM     24  C   UNL     1       5.943  -3.164  11.260  0.00  0.00    +0.000 A 
ATOM     25  S   UNL     1       4.876  -3.168  12.591  0.00  0.00    +0.000 S 
ATOM     26  C   UNL     1       3.529  -3.418  11.582  0.00  0.00    +0.000 A 
ATOM     27  N   UNL     1       2.276  -3.548  12.099  0.00  0.00    +0.000 NA
ATOM     28  C   UNL     1       1.356  -3.763  11.221  0.00  0.00    +0.000 A 
ATOM     29  N   UNL     1       1.570  -3.852   9.870  0.00  0.00    +0.000 N 
ATOM     30  C   UNL     1       2.809  -3.687   9.300  0.00  0.00    +0.000 A 
ATOM     31  O   UNL     1       2.959  -3.707   8.083  0.00  0.00    +0.000 OA
ATOM     32  C   UNL     1       3.885  -3.468  10.247  0.00  0.00    +0.000 A 
ATOM     33  H   UNL     1       0.803  -4.004   9.231  0.00  0.00    +0.000 HD
ENDBRANCH  20  23
ENDBRANCH  18  19
ENDBRANCH   4  18
TORSDOF 6
