REMARK  Name = 
REMARK  7 active torsions:
REMARK  status: ('A' for Active; 'I' for Inactive)
REMARK    1  A    between atoms: C_2  and  C_4
REMARK    2  A    between atoms: C_7  and  O_8
REMARK    3  A    between atoms: O_8  and  C_9
REMARK    4  A    between atoms: C_9  and  C_10
REMARK    5  A    between atoms: C_10  and  C_13
REMARK    6  A    between atoms: C_17  and  N_18
REMARK    7  A    between atoms: N_18  and  C_19
REMARK                            x       y       z     vdW  Elec       q    Type
REMARK                         _______ _______ _______ _____ _____    ______ ____
ROOT
ATOM      1  C   UNL     1       6.635  -5.126   4.149  0.00  0.00    +0.000 C 
ATOM      2  F   UNL     1       7.832  -4.824   3.560  0.00  0.00    +0.000 F 
ATOM      3  F   UNL     1       6.669  -4.506   5.369  0.00  0.00    +0.000 F 
ENDROOT
BRANCH   1   4
ATOM      4  C   UNL     1       6.452  -6.628   4.291  0.00  0.00    +0.000 A 
ATOM      5  C   UNL     1       6.979  -7.504   3.332  0.00  0.00    +0.000 A 
ATOM      6  C   UNL     1       6.811  -8.882   3.469  0.00  0.00    +0.000 A 
ATOM      7  C   UNL     1       6.103  -9.402   4.556  0.00  0.00    +0.000 A 
ATOM      8  C   UNL     1       5.559  -8.553   5.520  0.00  0.00    +0.000 A 
ATOM      9  C   UNL     1       5.751  -7.169   5.384  0.00  0.00    +0.000 A 
BRANCH   8  10
ATOM     10  N   UNL     1       4.866  -9.025   6.658  0.00  0.00    +0.000 N 
ATOM     11  H   UNL     1       5.423  -8.842   7.494  0.00  0.00    +0.000 HD
BRANCH  10  12
ATOM     12  C   UNL     1       4.130 -10.265   6.729  0.00  0.00    +0.000 C 
ATOM     13  C   UNL     1       3.507 -10.512   8.112  0.00  0.00    +0.000 C 
ATOM     14  O   UNL     1       4.176 -11.791   8.234  0.00  0.00    +0.000 OA
ATOM     15  C   UNL     1       4.942 -11.527   7.033  0.00  0.00    +0.000 C 
ENDBRANCH  10  12
ENDBRANCH   8  10
ENDBRANCH   1   4
BRANCH   1  16
ATOM     16  C   UNL     1       5.510  -4.500   3.312  0.00  0.00    +0.000 C 
BRANCH  16  17
ATOM     17  O   UNL     1       5.693  -3.073   3.198  0.00  0.00    +0.000 OA
BRANCH  17  21
ATOM     18  C   UNL     1       2.722  -1.228   1.021  0.00  0.00    +0.000 A 
ATOM     19  C   UNL     1       3.752  -0.459   1.565  0.00  0.00    +0.000 A 
ATOM     20  C   UNL     1       4.757  -1.093   2.307  0.00  0.00    +0.000 A 
ATOM     21  C   UNL     1       4.691  -2.471   2.465  0.00  0.00    +0.000 A 
ATOM     22  N   UNL     1       3.705  -3.237   1.950  0.00  0.00    +0.000 NA
ATOM     23  C   UNL     1       2.736  -2.596   1.251  0.00  0.00    +0.000 A 
BRANCH  18  25
ATOM     24  N   UNL     1       1.838   0.489  -0.457  0.00  0.00    +0.000 N 
ATOM     25  C   UNL     1       1.607  -0.667   0.233  0.00  0.00    +0.000 C 
ATOM     26  O   UNL     1       0.527  -1.239   0.164  0.00  0.00    +0.000 OA
ATOM     27  H   UNL     1       1.100   0.786  -1.083  0.00  0.00    +0.000 HD
ATOM     28  H   UNL     1       2.769   0.837  -0.638  0.00  0.00    +0.000 HD
ENDBRANCH  18  25
ENDBRANCH  17  21
ENDBRANCH  16  17
ENDBRANCH   1  16
TORSDOF 7
