REMARK  Name = 
REMARK  4 active torsions:
REMARK  status: ('A' for Active; 'I' for Inactive)
REMARK    1  A    between atoms: C_2  and  C_4
REMARK    2  A    between atoms: C_7  and  N_8
REMARK    3  A    between atoms: N_8  and  C_9
REMARK    4  A    between atoms: C_9  and  C_10
REMARK                            x       y       z     vdW  Elec       q    Type
REMARK                         _______ _______ _______ _____ _____    ______ ____
ROOT
ATOM      1  C   UNL     1       2.971   0.797  -1.538  0.00  0.00    +0.000 A 
ATOM      2  C   UNL     1       4.297   0.705  -1.158  0.00  0.00    +0.000 A 
ATOM      3  N   UNL     1       5.220   1.631  -1.527  0.00  0.00    +0.000 NA
ATOM      4  C   UNL     1       4.783   2.680  -2.255  0.00  0.00    +0.000 A 
ATOM      5  C   UNL     1       3.437   2.742  -2.642  0.00  0.00    +0.000 A 
ATOM      6  N   UNL     1       2.499   1.821  -2.301  0.00  0.00    +0.000 NA
ENDROOT
BRANCH   1   8
ATOM      7  N   UNL     1       0.736  -0.111  -1.637  0.00  0.00    +0.000 N 
ATOM      8  C   UNL     1       2.005  -0.267  -1.148  0.00  0.00    +0.000 C 
ATOM      9  O   UNL     1       2.323  -1.222  -0.453  0.00  0.00    +0.000 OA
ATOM     10  H   UNL     1       0.040  -0.819  -1.448  0.00  0.00    +0.000 HD
ATOM     11  H   UNL     1       0.517   0.679  -2.232  0.00  0.00    +0.000 HD
ENDBRANCH   1   8
BRANCH   4  12
ATOM     12  N   UNL     1       5.756   3.587  -2.636  0.00  0.00    +0.000 N 
ATOM     13  H   UNL     1       6.296   3.187  -3.400  0.00  0.00    +0.000 HD
BRANCH  12  14
ATOM     14  C   UNL     1       5.354   4.957  -2.938  0.00  0.00    +0.000 C 
BRANCH  14  15
ATOM     15  C   UNL     1       6.542   5.893  -2.839  0.00  0.00    +0.000 A 
ATOM     16  C   UNL     1       7.272   5.967  -1.651  0.00  0.00    +0.000 A 
ATOM     17  C   UNL     1       8.335   6.859  -1.567  0.00  0.00    +0.000 A 
ATOM     18  C   UNL     1       8.642   7.653  -2.664  0.00  0.00    +0.000 A 
ATOM     19  C   UNL     1       7.871   7.518  -3.807  0.00  0.00    +0.000 A 
ATOM     20  N   UNL     1       6.831   6.661  -3.920  0.00  0.00    +0.000 NA
ENDBRANCH  14  15
ENDBRANCH  12  14
ENDBRANCH   4  12
TORSDOF 4
