REMARK  Name = 
REMARK  3 active torsions:
REMARK  status: ('A' for Active; 'I' for Inactive)
REMARK    1  A    between atoms: C_2  and  C_4
REMARK    2  A    between atoms: N_8  and  C_9
REMARK    3  A    between atoms: C_9  and  C_10
REMARK                            x       y       z     vdW  Elec       q    Type
REMARK                         _______ _______ _______ _____ _____    ______ ____
ROOT
ATOM      1  C   UNL     1       4.683   0.912  -0.677  0.00  0.00    +0.000 A 
ATOM      2  C   UNL     1       3.835   0.475  -1.690  0.00  0.00    +0.000 A 
ATOM      3  C   UNL     1       3.395   1.399  -2.634  0.00  0.00    +0.000 A 
ATOM      4  C   UNL     1       3.863   2.711  -2.567  0.00  0.00    +0.000 A 
ATOM      5  N   UNL     1       3.602   3.569  -3.656  0.00  0.00    +0.000 N 
ATOM      6  N   UNL     1       4.571   3.158  -1.507  0.00  0.00    +0.000 NA
ATOM      7  C   UNL     1       4.955   2.262  -0.573  0.00  0.00    +0.000 A 
ATOM      8  H   UNL     1       3.429   3.022  -4.493  0.00  0.00    +0.000 HD
ENDROOT
BRANCH   1  10
ATOM      9  N   UNL     1       5.834  -1.175  -0.411  0.00  0.00    +0.000 N 
ATOM     10  C   UNL     1       5.405  -0.031   0.195  0.00  0.00    +0.000 C 
ATOM     11  O   UNL     1       5.689   0.242   1.351  0.00  0.00    +0.000 OA
ATOM     12  H   UNL     1       6.512  -1.725   0.108  0.00  0.00    +0.000 HD
ATOM     13  H   UNL     1       5.858  -1.261  -1.419  0.00  0.00    +0.000 HD
ENDBRANCH   1  10
BRANCH   5  14
ATOM     14  C   UNL     1       4.537   4.704  -3.893  0.00  0.00    +0.000 C 
ATOM     15  C   UNL     1       4.606   5.864  -2.920  0.00  0.00    +0.000 C 
ATOM     16  C   UNL     1       3.861   6.028  -4.206  0.00  0.00    +0.000 C 
BRANCH  14  17
ATOM     17  C   UNL     1       5.806   4.404  -4.699  0.00  0.00    +0.000 C 
ATOM     18  C   UNL     1       5.497   3.782  -6.067  0.00  0.00    +0.000 C 
ATOM     19  C   UNL     1       6.751   3.841  -6.934  0.00  0.00    +0.000 C 
ATOM     20  C   UNL     1       7.925   3.115  -6.278  0.00  0.00    +0.000 C 
ATOM     21  C   UNL     1       8.146   3.511  -4.814  0.00  0.00    +0.000 C 
ATOM     22  C   UNL     1       6.849   3.527  -3.993  0.00  0.00    +0.000 C 
ENDBRANCH  14  17
ENDBRANCH   5  14
TORSDOF 3
