REMARK  Name = 
REMARK  5 active torsions:
REMARK  status: ('A' for Active; 'I' for Inactive)
REMARK    1  A    between atoms: C_1  and  C_2
REMARK    2  A    between atoms: C_2  and  C_3
REMARK    3  A    between atoms: C_2  and  C_14
REMARK    4  A    between atoms: C_3  and  N_4
REMARK    5  A    between atoms: C_8  and  C_9
REMARK                            x       y       z     vdW  Elec       q    Type
REMARK                         _______ _______ _______ _____ _____    ______ ____
ROOT
ATOM      1  N   UNL     1       2.765   2.348  -0.959  0.00  0.00    +0.000 N 
ATOM      2  C   UNL     1       3.387   3.589  -0.936  0.00  0.00    +0.000 A 
ATOM      3  N   UNL     1       4.575   3.726  -0.333  0.00  0.00    +0.000 NA
ATOM      4  C   UNL     1       5.117   4.960  -0.303  0.00  0.00    +0.000 A 
ATOM      5  C   UNL     1       4.528   6.061  -0.873  0.00  0.00    +0.000 A 
ATOM      6  C   UNL     1       3.314   5.824  -1.473  0.00  0.00    +0.000 A 
ATOM      7  N   UNL     1       2.724   4.604  -1.515  0.00  0.00    +0.000 NA
ATOM      8  H   UNL     1       1.775   2.517  -1.088  0.00  0.00    +0.000 HD
ENDROOT
BRANCH   5   9
ATOM      9  C   UNL     1       5.178   7.372  -0.766  0.00  0.00    +0.000 C 
ATOM     10  N   UNL     1       4.879   8.323  -1.701  0.00  0.00    +0.000 N 
ATOM     11  O   UNL     1       5.992   7.597   0.119  0.00  0.00    +0.000 OA
ATOM     12  H   UNL     1       4.414   8.125  -2.575  0.00  0.00    +0.000 HD
ATOM     13  H   UNL     1       5.432   9.171  -1.654  0.00  0.00    +0.000 HD
ENDBRANCH   5   9
BRANCH   1  14
ATOM     14  C   UNL     1       3.105   1.521   0.183  0.00  0.00    +0.000 C 
BRANCH  14  16
ATOM     15  C   UNL     1       2.824  -0.728  -1.018  0.00  0.00    +0.000 C 
ATOM     16  C   UNL     1       2.362   0.225   0.041  0.00  0.00    +0.000 C 
BRANCH  16  17
ATOM     17  C   UNL     1       1.021   0.095   0.632  0.00  0.00    +0.000 A 
ATOM     18  C   UNL     1      -0.046  -0.373  -0.145  0.00  0.00    +0.000 A 
ATOM     19  C   UNL     1      -1.345  -0.396   0.363  0.00  0.00    +0.000 A 
ATOM     20  C   UNL     1      -1.591   0.030   1.666  0.00  0.00    +0.000 A 
ATOM     21  C   UNL     1      -0.530   0.454   2.462  0.00  0.00    +0.000 A 
ATOM     22 CL   UNL     1      -0.830   0.965   4.078  0.00  0.00    +0.000 Cl
ATOM     23  C   UNL     1       0.770   0.485   1.955  0.00  0.00    +0.000 A 
ENDBRANCH  16  17
ENDBRANCH  14  16
ENDBRANCH   1  14
TORSDOF 4
