REMARK  Name = 
REMARK  8 active torsions:
REMARK  status: ('A' for Active; 'I' for Inactive)
REMARK    1  A    between atoms: C_2  and  C_3
REMARK    2  A    between atoms: N_7  and  C_8
REMARK    3  A    between atoms: C_8  and  C_9
REMARK    4  A    between atoms: C_9  and  C_10
REMARK    5  A    between atoms: C_9  and  C_12
REMARK    6  A    between atoms: C_10  and  O_11
REMARK    7  A    between atoms: C_16  and  N_17
REMARK    8  A    between atoms: N_17  and  C_18
REMARK                            x       y       z     vdW  Elec       q    Type
REMARK                         _______ _______ _______ _____ _____    ______ ____
ROOT
ATOM      1  C   UNL     1      -5.875   1.115  -0.185  0.00  0.00    +0.000 C 
ENDROOT
BRANCH   1   2
ATOM      2  C   UNL     1      -6.684   2.407  -0.213  0.00  0.00    +0.000 A 
ATOM      3  C   UNL     1      -7.512   2.698  -1.304  0.00  0.00    +0.000 A 
ATOM      4  C   UNL     1      -8.285   3.862  -1.314  0.00  0.00    +0.000 A 
ATOM      5  C   UNL     1      -8.231   4.758  -0.242  0.00  0.00    +0.000 A 
ATOM      6  C   UNL     1      -7.416   4.494   0.858  0.00  0.00    +0.000 A 
ATOM      7  C   UNL     1      -6.649   3.318   0.858  0.00  0.00    +0.000 A 
BRANCH   6   8
ATOM      8  N   UNL     1      -7.312   5.355   1.969  0.00  0.00    +0.000 N 
ATOM      9  H   UNL     1      -7.561   4.861   2.826  0.00  0.00    +0.000 HD
BRANCH   8  10
ATOM     10  C   UNL     1      -7.615   6.760   2.003  0.00  0.00    +0.000 C 
ATOM     11  C   UNL     1      -7.464   7.361   3.421  0.00  0.00    +0.000 C 
ATOM     12  N   UNL     1      -8.725   8.107   3.215  0.00  0.00    +0.000 NA
ATOM     13  C   UNL     1      -9.099   7.143   2.152  0.00  0.00    +0.000 C 
ATOM     14  H   UNL     1      -8.573   9.055   2.868  0.00  0.00    +0.000 HD
ENDBRANCH   8  10
ENDBRANCH   6   8
ENDBRANCH   1   2
BRANCH   1  15
ATOM     15  C   UNL     1      -4.351   1.393  -0.161  0.00  0.00    +0.000 C 
BRANCH  15  20
ATOM     16  C   UNL     1       0.560   0.004  -0.207  0.00  0.00    +0.000 A 
ATOM     17  C   UNL     1      -0.039   1.145  -0.726  0.00  0.00    +0.000 A 
ATOM     18  C   UNL     1      -1.433   1.232  -0.757  0.00  0.00    +0.000 A 
ATOM     19  C   UNL     1      -2.203   0.187  -0.258  0.00  0.00    +0.000 A 
ATOM     20  N   UNL     1      -3.585   0.162  -0.330  0.00  0.00    +0.000 N 
ATOM     21  N   UNL     1      -1.628  -0.920   0.255  0.00  0.00    +0.000 NA
ATOM     22  C   UNL     1      -0.272  -0.995   0.267  0.00  0.00    +0.000 A 
ATOM     23  H   UNL     1      -3.902  -0.611   0.267  0.00  0.00    +0.000 HD
BRANCH  16  25
ATOM     24  N   UNL     1       3.134  -0.275  -0.175  0.00  0.00    +0.000 NA
ATOM     25  C   UNL     1       1.981  -0.151  -0.178  0.00  0.00    +0.000 C 
ENDBRANCH  16  25
ENDBRANCH  15  20
ENDBRANCH   1  15
BRANCH   1  26
ATOM     26  C   UNL     1      -6.334   0.238   0.997  0.00  0.00    +0.000 C 
BRANCH  26  27
ATOM     27  O   UNL     1      -5.738  -1.054   0.969  0.00  0.00    +0.000 OA
ATOM     28  H   UNL     1      -6.058  -1.512   0.172  0.00  0.00    +0.000 HD
ENDBRANCH  26  27
ENDBRANCH   1  26
TORSDOF 8
