REMARK  Name = 
REMARK  8 active torsions:
REMARK  status: ('A' for Active; 'I' for Inactive)
REMARK    1  A    between atoms: C_2  and  C_4
REMARK    2  A    between atoms: C_4  and  C_5
REMARK    3  A    between atoms: C_5  and  N_6
REMARK    4  A    between atoms: C_5  and  C_19
REMARK    5  A    between atoms: C_7  and  C_9
REMARK    6  A    between atoms: C_22  and  C_23
REMARK    7  A    between atoms: C_23  and  N_24
REMARK    8  A    between atoms: C_25  and  C_27
REMARK                            x       y       z     vdW  Elec       q    Type
REMARK                         _______ _______ _______ _____ _____    ______ ____
ROOT
ATOM      1  C   UNL     1       4.743   0.088  -1.079  0.00  0.00    +0.000 C 
ENDROOT
BRANCH   1   2
ATOM      2  C   UNL     1       5.520   0.184  -2.385  0.00  0.00    +0.000 A 
ATOM      3  C   UNL     1       5.814   1.455  -2.911  0.00  0.00    +0.000 A 
ATOM      4  C   UNL     1       6.579   1.597  -4.074  0.00  0.00    +0.000 A 
ATOM      5  C   UNL     1       7.053   0.471  -4.756  0.00  0.00    +0.000 A 
ATOM      6  C   UNL     1       6.752  -0.797  -4.244  0.00  0.00    +0.000 A 
ATOM      7  C   UNL     1       5.980  -0.939  -3.084  0.00  0.00    +0.000 A 
BRANCH   5   8
ATOM      8  C   UNL     1       7.850   0.617  -6.024  0.00  0.00    +0.000 C 
BRANCH   8   9
ATOM      9  N   UNL     1       9.272   0.675  -5.801  0.00  0.00    +0.000 N 
ATOM     10  C   UNL     1      10.143   0.762  -6.863  0.00  0.00    +0.000 C 
ATOM     11  O   UNL     1       9.771   0.751  -8.035  0.00  0.00    +0.000 OA
ATOM     12  H   UNL     1       9.663   0.820  -4.874  0.00  0.00    +0.000 HD
BRANCH  10  13
ATOM     13  C   UNL     1      11.629   0.783  -6.493  0.00  0.00    +0.000 C 
ATOM     14  C   UNL     1      12.219  -0.613  -6.473  0.00  0.00    +0.000 C 
ATOM     15  C   UNL     1      13.489  -0.426  -5.667  0.00  0.00    +0.000 C 
ATOM     16  C   UNL     1      13.174   0.721  -4.714  0.00  0.00    +0.000 C 
ATOM     17  N   UNL     1      11.859   1.248  -5.102  0.00  0.00    +0.000 NA
ATOM     18  H   UNL     1      11.868   2.268  -5.081  0.00  0.00    +0.000 HD
ENDBRANCH  10  13
ENDBRANCH   8   9
ENDBRANCH   5   8
ENDBRANCH   1   2
BRANCH   1  19
ATOM     19  N   UNL     1       3.305   0.086  -1.349  0.00  0.00    +0.000 N 
ATOM     20  C   UNL     1       2.417   0.657  -0.467  0.00  0.00    +0.000 C 
ATOM     21  O   UNL     1       2.805   1.247   0.540  0.00  0.00    +0.000 OA
ATOM     22  H   UNL     1       2.960  -0.538  -2.073  0.00  0.00    +0.000 HD
BRANCH  20  23
ATOM     23  C   UNL     1       0.987   0.577  -0.787  0.00  0.00    +0.000 A 
ATOM     24  C   UNL     1       0.125   1.553  -0.301  0.00  0.00    +0.000 A 
ATOM     25  S   UNL     1      -1.507   1.301  -0.722  0.00  0.00    +0.000 S 
ATOM     26  C   UNL     1      -1.129  -0.144  -1.534  0.00  0.00    +0.000 A 
ATOM     27  N   UNL     1      -2.108  -0.905  -2.093  0.00  0.00    +0.000 NA
ATOM     28  C   UNL     1      -1.685  -1.993  -2.646  0.00  0.00    +0.000 A 
ATOM     29  N   UNL     1      -0.371  -2.379  -2.704  0.00  0.00    +0.000 N 
ATOM     30  C   UNL     1       0.659  -1.615  -2.196  0.00  0.00    +0.000 A 
ATOM     31  O   UNL     1       1.832  -1.941  -2.331  0.00  0.00    +0.000 OA
ATOM     32  C   UNL     1       0.230  -0.406  -1.524  0.00  0.00    +0.000 A 
ATOM     33  H   UNL     1      -0.107  -3.231  -3.175  0.00  0.00    +0.000 HD
ENDBRANCH  20  23
ENDBRANCH   1  19
BRANCH   1  34
ATOM     34  C   UNL     1       5.117  -1.090  -0.167  0.00  0.00    +0.000 C 
BRANCH  34  36
ATOM     35  N   UNL     1       7.010  -0.068   0.992  0.00  0.00    +0.000 N 
ATOM     36  C   UNL     1       6.579  -1.101   0.216  0.00  0.00    +0.000 C 
ATOM     37  O   UNL     1       7.349  -1.996  -0.116  0.00  0.00    +0.000 OA
ATOM     38  H   UNL     1       7.967  -0.112   1.313  0.00  0.00    +0.000 HD
ATOM     39  H   UNL     1       6.372   0.539   1.492  0.00  0.00    +0.000 HD
ENDBRANCH  34  36
ENDBRANCH   1  34
TORSDOF 8
