REMARK  Name = 
REMARK  7 active torsions:
REMARK  status: ('A' for Active; 'I' for Inactive)
REMARK    1  A    between atoms: C_2  and  C_4
REMARK    2  A    between atoms: C_7  and  N_8
REMARK    3  A    between atoms: N_8  and  C_9
REMARK    4  A    between atoms: C_9  and  C_10
REMARK    5  A    between atoms: C_10  and  C_13
REMARK    6  A    between atoms: C_18  and  O_19
REMARK    7  A    between atoms: O_19  and  C_20
REMARK                            x       y       z     vdW  Elec       q    Type
REMARK                         _______ _______ _______ _____ _____    ______ ____
ROOT
ATOM      1  C   UNL     1       6.071  -7.149   0.621  0.00  0.00    +0.000 C 
ATOM      2  F   UNL     1       7.352  -6.797   0.299  0.00  0.00    +0.000 F 
ATOM      3  F   UNL     1       6.046  -7.191   1.988  0.00  0.00    +0.000 F 
ENDROOT
BRANCH   1   4
ATOM      4  C   UNL     1       5.691  -8.482   0.004  0.00  0.00    +0.000 A 
ATOM      5  C   UNL     1       6.213  -8.863  -1.239  0.00  0.00    +0.000 A 
ATOM      6  C   UNL     1       5.873 -10.096  -1.787  0.00  0.00    +0.000 A 
ATOM      7  F   UNL     1       6.394 -10.454  -2.968  0.00  0.00    +0.000 F 
ATOM      8  C   UNL     1       5.008 -10.968  -1.134  0.00  0.00    +0.000 A 
ATOM      9  C   UNL     1       4.469 -10.594   0.093  0.00  0.00    +0.000 A 
ATOM     10  C   UNL     1       4.815  -9.362   0.662  0.00  0.00    +0.000 A 
BRANCH   9  11
ATOM     11  O   UNL     1       3.624 -11.373   0.842  0.00  0.00    +0.000 OA
BRANCH  11  12
ATOM     12  C   UNL     1       2.834 -12.386   0.174  0.00  0.00    +0.000 C 
ATOM     13  C   UNL     1       1.703 -11.910  -0.762  0.00  0.00    +0.000 C 
ATOM     14  N   UNL     1       0.750 -12.802  -0.083  0.00  0.00    +0.000 NA
ATOM     15  C   UNL     1       1.700 -12.995   1.024  0.00  0.00    +0.000 C 
ATOM     16  H   UNL     1       0.538 -13.656  -0.599  0.00  0.00    +0.000 HD
ENDBRANCH  11  12
ENDBRANCH   9  11
ENDBRANCH   1   4
BRANCH   1  17
ATOM     17  C   UNL     1       5.110  -6.021   0.159  0.00  0.00    +0.000 C 
BRANCH  17  18
ATOM     18  N   UNL     1       5.469  -4.699   0.700  0.00  0.00    +0.000 N 
ATOM     19  H   UNL     1       5.864  -4.716   1.640  0.00  0.00    +0.000 HD
BRANCH  18  23
ATOM     20  C   UNL     1       3.421  -1.147  -0.286  0.00  0.00    +0.000 A 
ATOM     21  C   UNL     1       2.984  -2.363  -0.815  0.00  0.00    +0.000 A 
ATOM     22  C   UNL     1       3.641  -3.552  -0.477  0.00  0.00    +0.000 A 
ATOM     23  C   UNL     1       4.723  -3.562   0.412  0.00  0.00    +0.000 A 
ATOM     24  C   UNL     1       5.158  -2.329   0.918  0.00  0.00    +0.000 A 
ATOM     25  C   UNL     1       4.521  -1.130   0.572  0.00  0.00    +0.000 A 
BRANCH  20  27
ATOM     26  N   UNL     1       1.457   0.098  -1.010  0.00  0.00    +0.000 N 
ATOM     27  C   UNL     1       2.775   0.141  -0.652  0.00  0.00    +0.000 C 
ATOM     28  O   UNL     1       3.385   1.203  -0.615  0.00  0.00    +0.000 OA
ATOM     29  H   UNL     1       1.005   0.991  -1.163  0.00  0.00    +0.000 HD
ATOM     30  H   UNL     1       0.868  -0.699  -0.814  0.00  0.00    +0.000 HD
ENDBRANCH  20  27
ENDBRANCH  18  23
ENDBRANCH  17  18
ENDBRANCH   1  17
TORSDOF 7
