REMARK  Name = 
REMARK  8 active torsions:
REMARK  status: ('A' for Active; 'I' for Inactive)
REMARK    1  A    between atoms: C_1  and  C_2
REMARK    2  A    between atoms: C_2  and  C_3
REMARK    3  A    between atoms: C_2  and  C_4
REMARK    4  A    between atoms: C_2  and  C_5
REMARK    5  A    between atoms: N_7  and  C_8
REMARK    6  A    between atoms: C_8  and  C_9
REMARK    7  A    between atoms: C_12  and  C_13
REMARK    8  A    between atoms: C_13  and  N_14
REMARK                            x       y       z     vdW  Elec       q    Type
REMARK                         _______ _______ _______ _____ _____    ______ ____
ROOT
ATOM      1  C   UNL     1       2.939   1.116  -1.086  0.00  0.00    +0.000 A 
ATOM      2  N   UNL     1       2.634   2.415  -0.901  0.00  0.00    +0.000 NA
ATOM      3  N   UNL     1       3.138   3.048  -1.977  0.00  0.00    +0.000 N 
ATOM      4  C   UNL     1       3.731   2.203  -2.884  0.00  0.00    +0.000 A 
ATOM      5  C   UNL     1       4.320   2.437  -4.140  0.00  0.00    +0.000 A 
ATOM      6  C   UNL     1       4.859   1.350  -4.824  0.00  0.00    +0.000 A 
ATOM      7  C   UNL     1       4.816   0.074  -4.279  0.00  0.00    +0.000 A 
ATOM      8  C   UNL     1       4.217  -0.146  -3.032  0.00  0.00    +0.000 A 
ATOM      9  C   UNL     1       3.651   0.931  -2.317  0.00  0.00    +0.000 A 
ENDROOT
BRANCH   1  11
ATOM     10  C   UNL     1       0.919   0.121   0.033  0.00  0.00    +0.000 C 
ATOM     11  C   UNL     1       2.463   0.101  -0.043  0.00  0.00    +0.000 C 
ATOM     12  C   UNL     1       3.034   0.451   1.348  0.00  0.00    +0.000 C 
ATOM     13  C   UNL     1       2.882  -1.349  -0.349  0.00  0.00    +0.000 C 
ENDBRANCH   1  11
BRANCH   3  14
ATOM     14  C   UNL     1       2.936   4.487  -2.134  0.00  0.00    +0.000 C 
BRANCH  14  15
ATOM     15  C   UNL     1       4.069   5.289  -1.555  0.00  0.00    +0.000 A 
ATOM     16  C   UNL     1       5.200   5.627  -2.303  0.00  0.00    +0.000 A 
ATOM     17  C   UNL     1       6.261   6.297  -1.697  0.00  0.00    +0.000 A 
ATOM     18  C   UNL     1       6.173   6.618  -0.345  0.00  0.00    +0.000 A 
ATOM     19  N   UNL     1       5.064   6.348   0.388  0.00  0.00    +0.000 NA
ATOM     20  C   UNL     1       4.049   5.693  -0.225  0.00  0.00    +0.000 A 
BRANCH  18  21
ATOM     21  C   UNL     1       7.345   7.247   0.380  0.00  0.00    +0.000 C 
BRANCH  21  22
ATOM     22  N   UNL     1       8.538   6.391   0.395  0.00  0.00    +0.000 NA
ATOM     23  H   UNL     1       8.290   5.525   0.878  0.00  0.00    +0.000 HD
ATOM     24  H   UNL     1       9.246   6.835   0.976  0.00  0.00    +0.000 HD
ENDBRANCH  21  22
ENDBRANCH  18  21
ENDBRANCH  14  15
ENDBRANCH   3  14
TORSDOF 5
