REMARK  Name = 
REMARK  7 active torsions:
REMARK  status: ('A' for Active; 'I' for Inactive)
REMARK    1  A    between atoms: C_1  and  C_2
REMARK    2  A    between atoms: C_2  and  C_3
REMARK    3  A    between atoms: C_7  and  C_8
REMARK    4  A    between atoms: C_8  and  C_9
REMARK    5  A    between atoms: C_9  and  N_10
REMARK    6  A    between atoms: N_10  and  C_11
REMARK    7  A    between atoms: C_14  and  C_15
REMARK                            x       y       z     vdW  Elec       q    Type
REMARK                         _______ _______ _______ _____ _____    ______ ____
ROOT
ATOM      1  C   UNL     1      -1.864   0.753  -2.340  0.00  0.00    +0.000 C 
ENDROOT
BRANCH   1   6
ATOM      2  C   UNL     1       1.121   0.070  -0.029  0.00  0.00    +0.000 A 
ATOM      3  C   UNL     1       0.461  -0.046   1.206  0.00  0.00    +0.000 A 
ATOM      4  C   UNL     1      -0.932   0.048   1.290  0.00  0.00    +0.000 A 
ATOM      5  C   UNL     1      -1.695   0.275   0.145  0.00  0.00    +0.000 A 
ATOM      6  C   UNL     1      -1.072   0.401  -1.099  0.00  0.00    +0.000 A 
ATOM      7  C   UNL     1       0.327   0.289  -1.171  0.00  0.00    +0.000 A 
BRANCH   2   9
ATOM      8  C   UNL     1       3.168  -1.363   0.380  0.00  0.00    +0.000 C 
ATOM      9  C   UNL     1       2.652   0.008  -0.109  0.00  0.00    +0.000 C 
ATOM     10  C   UNL     1       3.302   1.151   0.695  0.00  0.00    +0.000 C 
ATOM     11  C   UNL     1       4.481   1.641  -0.140  0.00  0.00    +0.000 C 
ATOM     12  C   UNL     1       4.500   0.771  -1.379  0.00  0.00    +0.000 C 
ATOM     13  N   UNL     1       3.145   0.254  -1.480  0.00  0.00    +0.000 NA
ATOM     14  H   UNL     1       3.114  -0.600  -2.031  0.00  0.00    +0.000 HD
ENDBRANCH   2   9
ENDBRANCH   1   6
BRANCH   1  15
ATOM     15  C   UNL     1      -1.899   2.274  -2.536  0.00  0.00    +0.000 C 
BRANCH  15  16
ATOM     16  N   UNL     1      -2.644   2.657  -3.744  0.00  0.00    +0.000 N 
ATOM     17  H   UNL     1      -3.552   2.198  -3.803  0.00  0.00    +0.000 HD
BRANCH  16  18
ATOM     18  C   UNL     1      -2.744   4.039  -4.000  0.00  0.00    +0.000 A 
ATOM     19  C   UNL     1      -1.746   4.952  -3.646  0.00  0.00    +0.000 A 
ATOM     20  C   UNL     1      -1.866   6.304  -3.958  0.00  0.00    +0.000 A 
ATOM     21  C   UNL     1      -2.983   6.718  -4.663  0.00  0.00    +0.000 A 
ATOM     22  N   UNL     1      -3.965   5.874  -5.085  0.00  0.00    +0.000 NA
ATOM     23  C   UNL     1      -3.801   4.563  -4.758  0.00  0.00    +0.000 A 
BRANCH  21  24
ATOM     24  C   UNL     1      -3.132   8.171  -4.998  0.00  0.00    +0.000 C 
ATOM     25  N   UNL     1      -4.260   8.503  -5.692  0.00  0.00    +0.000 N 
ATOM     26  O   UNL     1      -2.301   9.014  -4.677  0.00  0.00    +0.000 OA
ATOM     27  H   UNL     1      -4.912   7.774  -5.963  0.00  0.00    +0.000 HD
ATOM     28  H   UNL     1      -4.408   9.461  -5.973  0.00  0.00    +0.000 HD
ENDBRANCH  21  24
ENDBRANCH  16  18
ENDBRANCH  15  16
ENDBRANCH   1  15
TORSDOF 6
