REMARK  Name = 
REMARK  5 active torsions:
REMARK  status: ('A' for Active; 'I' for Inactive)
REMARK    1  A    between atoms: C_8  and  C_9
REMARK    2  A    between atoms: N_11  and  C_12
REMARK    3  A    between atoms: C_12  and  C_13
REMARK    4  A    between atoms: C_16  and  O_17
REMARK    5  A    between atoms: O_17  and  C_18
REMARK                            x       y       z     vdW  Elec       q    Type
REMARK                         _______ _______ _______ _____ _____    ______ ____
ROOT
ATOM      1  C   UNL     1       6.558  -2.978   0.063  0.00  0.00    +0.000 C 
ATOM      2  O   UNL     1       6.818  -4.180   0.058  0.00  0.00    +0.000 OA
ATOM      3  N   UNL     1       7.556  -2.040   0.064  0.00  0.00    +0.000 N 
ATOM      4  H   UNL     1       7.341  -1.043   0.072  0.00  0.00    +0.000 HD
ENDROOT
BRANCH   1  12
ATOM      5  N   UNL     1       1.021  -0.028  -0.139  0.00  0.00    +0.000 N 
ATOM      6  C   UNL     1       2.385  -0.017  -0.036  0.00  0.00    +0.000 A 
ATOM      7  N   UNL     1       2.967   1.155   0.021  0.00  0.00    +0.000 NA
ATOM      8  N   UNL     1       4.342   1.209   0.096  0.00  0.00    +0.000 N 
ATOM      9  C   UNL     1       5.216   0.136   0.095  0.00  0.00    +0.000 A 
ATOM     10  O   UNL     1       6.431   0.305   0.132  0.00  0.00    +0.000 OA
ATOM     11  C   UNL     1       4.589  -1.175   0.059  0.00  0.00    +0.000 A 
ATOM     12  C   UNL     1       5.161  -2.507   0.056  0.00  0.00    +0.000 A 
ATOM     13  C   UNL     1       4.136  -3.449   0.037  0.00  0.00    +0.000 A 
ATOM     14  S   UNL     1       2.571  -2.773   0.009  0.00  0.00    +0.000 S 
ATOM     15  C   UNL     1       3.210  -1.208   0.008  0.00  0.00    +0.000 A 
ATOM     16  H   UNL     1       0.581   0.847   0.119  0.00  0.00    +0.000 HD
ATOM     17  H   UNL     1       0.541  -0.863   0.171  0.00  0.00    +0.000 HD
ATOM     18  H   UNL     1       4.752   2.136   0.115  0.00  0.00    +0.000 HD
ENDBRANCH   1  12
BRANCH   3  19
ATOM     19  C   UNL     1       8.943  -2.432   0.046  0.00  0.00    +0.000 C 
BRANCH  19  20
ATOM     20  C   UNL     1       9.862  -1.237   0.068  0.00  0.00    +0.000 A 
ATOM     21  C   UNL     1      10.239  -0.654   1.286  0.00  0.00    +0.000 A 
ATOM     22  C   UNL     1      11.086   0.457   1.313  0.00  0.00    +0.000 A 
ATOM     23  C   UNL     1      11.607   0.969   0.123  0.00  0.00    +0.000 A 
ATOM     24  C   UNL     1      11.193   0.430  -1.096  0.00  0.00    +0.000 A 
ATOM     25  C   UNL     1      10.323  -0.664  -1.125  0.00  0.00    +0.000 A 
BRANCH  23  26
ATOM     26  O   UNL     1      12.467   2.042   0.046  0.00  0.00    +0.000 OA
BRANCH  26  27
ATOM     27  C   UNL     1      13.418   2.243   1.021  0.00  0.00    +0.000 A 
ATOM     28  C   UNL     1      14.035   1.229   1.749  0.00  0.00    +0.000 A 
ATOM     29  C   UNL     1      14.954   1.591   2.719  0.00  0.00    +0.000 A 
ATOM     30  N   UNL     1      15.328   2.865   2.963  0.00  0.00    +0.000 NA
ATOM     31  C   UNL     1      14.764   3.820   2.195  0.00  0.00    +0.000 A 
ATOM     32  C   UNL     1      13.815   3.563   1.221  0.00  0.00    +0.000 A 
ENDBRANCH  26  27
ENDBRANCH  23  26
ENDBRANCH  19  20
ENDBRANCH   3  19
TORSDOF 5
