REMARK  Name = 
REMARK  10 active torsions:
REMARK  status: ('A' for Active; 'I' for Inactive)
REMARK    1  A    between atoms: C_1  and  C_2
REMARK    2  A    between atoms: C_2  and  C_3
REMARK    3  A    between atoms: C_2  and  C_4
REMARK    4  A    between atoms: C_2  and  C_5
REMARK    5  A    between atoms: C_7  and  O_8
REMARK    6  A    between atoms: O_8  and  C_9
REMARK    7  A    between atoms: C_9  and  C_10
REMARK    8  A    between atoms: C_14  and  C_15
REMARK    9  A    between atoms: C_15  and  N_16
REMARK   10  A    between atoms: C_19  and  C_20
REMARK                            x       y       z     vdW  Elec       q    Type
REMARK                         _______ _______ _______ _____ _____    ______ ____
ROOT
ATOM      1  C   UNL     1       2.935   0.575  -1.249  0.00  0.00    +0.000 A 
ATOM      2  C   UNL     1       2.779   1.957  -1.392  0.00  0.00    +0.000 A 
ATOM      3  C   UNL     1       3.119   2.583  -2.590  0.00  0.00    +0.000 A 
ATOM      4  C   UNL     1       3.628   1.817  -3.627  0.00  0.00    +0.000 A 
ATOM      5  C   UNL     1       3.770   0.455  -3.414  0.00  0.00    +0.000 A 
ATOM      6  N   UNL     1       3.433  -0.183  -2.253  0.00  0.00    +0.000 NA
ENDROOT
BRANCH   5   7
ATOM      7  C   UNL     1       4.315  -0.408  -4.511  0.00  0.00    +0.000 C 
ATOM      8  N   UNL     1       4.430  -1.738  -4.209  0.00  0.00    +0.000 N 
ATOM      9  O   UNL     1       4.640   0.033  -5.608  0.00  0.00    +0.000 OA
ATOM     10  H   UNL     1       4.149  -2.065  -3.292  0.00  0.00    +0.000 HD
ATOM     11  H   UNL     1       4.787  -2.379  -4.903  0.00  0.00    +0.000 HD
ENDBRANCH   5   7
BRANCH   1  13
ATOM     12  C   UNL     1       0.961   0.096   0.223  0.00  0.00    +0.000 C 
ATOM     13  C   UNL     1       2.480  -0.111   0.048  0.00  0.00    +0.000 C 
ATOM     14  C   UNL     1       3.221   0.478   1.265  0.00  0.00    +0.000 C 
ATOM     15  C   UNL     1       2.755  -1.628   0.018  0.00  0.00    +0.000 C 
ENDBRANCH   1  13
BRANCH   3  16
ATOM     16  O   UNL     1       2.982   3.923  -2.847  0.00  0.00    +0.000 OA
BRANCH  16  17
ATOM     17  C   UNL     1       2.427   4.701  -1.784  0.00  0.00    +0.000 C 
BRANCH  17  18
ATOM     18  C   UNL     1       2.326   6.153  -2.169  0.00  0.00    +0.000 A 
ATOM     19  C   UNL     1       1.085   6.801  -2.190  0.00  0.00    +0.000 A 
ATOM     20  C   UNL     1       1.008   8.169  -2.449  0.00  0.00    +0.000 A 
ATOM     21  C   UNL     1       2.172   8.905  -2.674  0.00  0.00    +0.000 A 
ATOM     22  C   UNL     1       3.425   8.279  -2.653  0.00  0.00    +0.000 A 
ATOM     23  C   UNL     1       3.487   6.896  -2.421  0.00  0.00    +0.000 A 
BRANCH  22  24
ATOM     24  C   UNL     1       4.692   9.067  -2.867  0.00  0.00    +0.000 C 
BRANCH  24  25
ATOM     25  N   UNL     1       5.591   8.947  -1.723  0.00  0.00    +0.000 NA
ATOM     26  H   UNL     1       5.131   9.341  -0.904  0.00  0.00    +0.000 HD
ATOM     27  H   UNL     1       6.422   9.510  -1.890  0.00  0.00    +0.000 HD
ENDBRANCH  24  25
ENDBRANCH  22  24
ENDBRANCH  17  18
ENDBRANCH  16  17
ENDBRANCH   3  16
TORSDOF 7
