REMARK  Name = 
REMARK  6 active torsions:
REMARK  status: ('A' for Active; 'I' for Inactive)
REMARK    1  A    between atoms: C_1  and  C_2
REMARK    2  A    between atoms: C_4  and  C_5
REMARK    3  A    between atoms: C_10  and  N_11
REMARK    4  A    between atoms: N_11  and  C_12
REMARK    5  A    between atoms: C_12  and  C_13
REMARK    6  A    between atoms: C_13  and  C_14
REMARK                            x       y       z     vdW  Elec       q    Type
REMARK                         _______ _______ _______ _____ _____    ______ ____
ROOT
ATOM      1  C   UNL     1      -1.852  -1.749   1.188  0.00  0.00    +0.000 C 
ATOM      2  C   UNL     1      -0.928  -0.751   0.551  0.00  0.00    +0.000 A 
ATOM      3  C   UNL     1      -1.348   0.588   0.431  0.00  0.00    +0.000 A 
ATOM      4  C   UNL     1      -0.515   1.544  -0.148  0.00  0.00    +0.000 A 
ATOM      5  C   UNL     1       0.714   1.106  -0.596  0.00  0.00    +0.000 A 
ATOM      6  N   UNL     1       1.159  -0.170  -0.473  0.00  0.00    +0.000 NA
ATOM      7  C   UNL     1       0.357  -1.092   0.104  0.00  0.00    +0.000 A 
ENDROOT
BRANCH   4   8
ATOM      8  C   UNL     1      -0.968   2.954  -0.219  0.00  0.00    +0.000 C 
ATOM      9  N   UNL     1      -0.155   3.894  -0.786  0.00  0.00    +0.000 N 
ATOM     10  O   UNL     1      -2.059   3.290   0.235  0.00  0.00    +0.000 OA
ATOM     11  H   UNL     1       0.761   3.733  -1.173  0.00  0.00    +0.000 HD
ATOM     12  H   UNL     1      -0.500   4.846  -0.786  0.00  0.00    +0.000 HD
ENDBRANCH   4   8
BRANCH   7  13
ATOM     13  N   UNL     1       0.843  -2.403   0.274  0.00  0.00    +0.000 N 
ATOM     14  H   UNL     1       0.266  -3.044  -0.262  0.00  0.00    +0.000 HD
BRANCH  13  15
ATOM     15  C   UNL     1       2.284  -2.539   0.014  0.00  0.00    +0.000 C 
BRANCH  15  16
ATOM     16  C   UNL     1       2.732  -4.006   0.028  0.00  0.00    +0.000 C 
BRANCH  16  17
ATOM     17  C   UNL     1       4.242  -4.124   0.011  0.00  0.00    +0.000 A 
ATOM     18  C   UNL     1       4.957  -4.175   1.217  0.00  0.00    +0.000 A 
ATOM     19  C   UNL     1       6.352  -4.241   1.214  0.00  0.00    +0.000 A 
ATOM     20  C   UNL     1       7.049  -4.253   0.007  0.00  0.00    +0.000 A 
ATOM     21  C   UNL     1       6.351  -4.201  -1.198  0.00  0.00    +0.000 A 
ATOM     22  C   UNL     1       4.954  -4.135  -1.196  0.00  0.00    +0.000 A 
ENDBRANCH  16  17
ENDBRANCH  15  16
ENDBRANCH  13  15
ENDBRANCH   7  13
TORSDOF 5
