REMARK  Name = 
REMARK  8 active torsions:
REMARK  status: ('A' for Active; 'I' for Inactive)
REMARK    1  A    between atoms: C_1  and  O_2
REMARK    2  A    between atoms: O_2  and  C_3
REMARK    3  A    between atoms: C_10  and  C_11
REMARK    4  A    between atoms: N_13  and  C_14
REMARK    5  A    between atoms: C_14  and  C_15
REMARK    6  A    between atoms: C_18  and  N_19
REMARK    7  A    between atoms: N_19  and  C_20
REMARK    8  A    between atoms: C_20  and  C_21
REMARK                            x       y       z     vdW  Elec       q    Type
REMARK                         _______ _______ _______ _____ _____    ______ ____
ROOT
ATOM      1  C   UNL     1       2.600   3.221  -0.675  0.00  0.00    +0.000 C 
ENDROOT
BRANCH   1   2
ATOM      2  C   UNL     1       1.379   2.796  -1.456  0.00  0.00    +0.000 A 
ATOM      3  C   UNL     1       1.260   1.490  -1.945  0.00  0.00    +0.000 A 
ATOM      4  C   UNL     1       0.070   1.053  -2.547  0.00  0.00    +0.000 A 
ATOM      5  C   UNL     1      -1.015   1.915  -2.731  0.00  0.00    +0.000 A 
ATOM      6  C   UNL     1      -0.854   3.244  -2.308  0.00  0.00    +0.000 A 
ATOM      7  C   UNL     1       0.323   3.684  -1.684  0.00  0.00    +0.000 A 
BRANCH   5   8
ATOM      8  N   UNL     1      -2.275   1.510  -3.178  0.00  0.00    +0.000 N 
ATOM      9  H   UNL     1      -2.693   2.207  -3.784  0.00  0.00    +0.000 HD
BRANCH   8  10
ATOM     10  C   UNL     1      -2.537   0.125  -3.593  0.00  0.00    +0.000 C 
BRANCH  10  11
ATOM     11  C   UNL     1      -4.011  -0.057  -4.071  0.00  0.00    +0.000 C 
ATOM     12  C   UNL     1      -4.278  -1.536  -4.416  0.00  0.00    +0.000 C 
ATOM     13  C   UNL     1      -5.687  -1.751  -4.969  0.00  0.00    +0.000 C 
ATOM     14  C   UNL     1      -5.960  -0.797  -6.125  0.00  0.00    +0.000 C 
ATOM     15  C   UNL     1      -5.675   0.642  -5.715  0.00  0.00    +0.000 C 
ATOM     16  N   UNL     1      -4.301   0.805  -5.239  0.00  0.00    +0.000 NA
ATOM     17  H   UNL     1      -4.173   1.778  -4.973  0.00  0.00    +0.000 HD
ENDBRANCH  10  11
ENDBRANCH   8  10
ENDBRANCH   5   8
ENDBRANCH   1   2
BRANCH   1  20
ATOM     18  C   UNL     1       4.818   4.228  -1.035  0.00  0.00    +0.000 C 
ATOM     19  O   UNL     1       5.097   4.145   0.157  0.00  0.00    +0.000 OA
ATOM     20  N   UNL     1       3.613   3.797  -1.523  0.00  0.00    +0.000 N 
ATOM     21  H   UNL     1       3.396   3.885  -2.503  0.00  0.00    +0.000 HD
BRANCH  18  29
ATOM     22  C   UNL     1       4.734   4.647  -4.451  0.00  0.00    +0.000 A 
ATOM     23  N   UNL     1       4.933   4.969  -5.742  0.00  0.00    +0.000 NA
ATOM     24  C   UNL     1       6.074   5.584  -6.066  0.00  0.00    +0.000 A 
ATOM     25  N   UNL     1       7.065   5.919  -5.242  0.00  0.00    +0.000 NA
ATOM     26  C   UNL     1       6.816   5.594  -3.960  0.00  0.00    +0.000 A 
ATOM     27  S   UNL     1       7.972   5.944  -2.769  0.00  0.00    +0.000 S 
ATOM     28  C   UNL     1       6.981   5.294  -1.548  0.00  0.00    +0.000 A 
ATOM     29  C   UNL     1       5.764   4.805  -2.010  0.00  0.00    +0.000 A 
ATOM     30  C   UNL     1       5.677   4.973  -3.461  0.00  0.00    +0.000 A 
BRANCH  22  32
ATOM     31  C   UNL     1       2.995   3.267  -5.196  0.00  0.00    +0.000 C 
ATOM     32  O   UNL     1       3.555   4.013  -4.117  0.00  0.00    +0.000 OA
ENDBRANCH  22  32
ENDBRANCH  18  29
ENDBRANCH   1  20
TORSDOF 7
