REMARK  Name = 
REMARK  8 active torsions:
REMARK  status: ('A' for Active; 'I' for Inactive)
REMARK    1  A    between atoms: C_1  and  C_2
REMARK    2  A    between atoms: C_6  and  C_7
REMARK    3  A    between atoms: C_7  and  N_8
REMARK    4  A    between atoms: N_8  and  C_9
REMARK    5  A    between atoms: C_9  and  C_10
REMARK    6  A    between atoms: C_13  and  C_14
REMARK    7  A    between atoms: C_14  and  N_15
REMARK    8  A    between atoms: C_16  and  C_18
REMARK                            x       y       z     vdW  Elec       q    Type
REMARK                         _______ _______ _______ _____ _____    ______ ____
ROOT
ATOM      1  C   UNL     1      -0.523   6.165   0.077  0.00  0.00    +0.000 A 
ATOM      2  C   UNL     1      -0.999   7.475   0.108  0.00  0.00    +0.000 A 
ATOM      3  C   UNL     1      -0.089   8.527   0.071  0.00  0.00    +0.000 A 
ATOM      4  C   UNL     1       1.280   8.255  -0.000  0.00  0.00    +0.000 A 
ATOM      5  C   UNL     1       1.661   6.917  -0.009  0.00  0.00    +0.000 A 
ATOM      6  N   UNL     1       0.800   5.873   0.018  0.00  0.00    +0.000 NA
ENDROOT
BRANCH   1   7
ATOM      7  C   UNL     1      -1.499   5.003   0.048  0.00  0.00    +0.000 C 
BRANCH   7   8
ATOM      8  N   UNL     1      -2.450   5.048  -1.074  0.00  0.00    +0.000 NA
ATOM      9  H   UNL     1      -3.079   4.250  -0.995  0.00  0.00    +0.000 HD
BRANCH   8  10
ATOM     10  C   UNL     1      -1.753   4.958  -2.362  0.00  0.00    +0.000 C 
BRANCH  10  16
ATOM     11  C   UNL     1      -5.418   7.201  -5.024  0.00  0.00    +0.000 C 
ATOM     12  C   UNL     1      -4.480   6.058  -4.795  0.00  0.00    +0.000 A 
ATOM     13  C   UNL     1      -4.462   4.950  -5.633  0.00  0.00    +0.000 A 
ATOM     14  N   UNL     1      -3.643   3.889  -5.469  0.00  0.00    +0.000 NA
ATOM     15  C   UNL     1      -2.800   3.930  -4.415  0.00  0.00    +0.000 A 
ATOM     16  C   UNL     1      -2.732   4.982  -3.506  0.00  0.00    +0.000 A 
ATOM     17  C   UNL     1      -3.591   6.067  -3.722  0.00  0.00    +0.000 A 
ENDBRANCH  10  16
ENDBRANCH   8  10
ENDBRANCH   7   8
ENDBRANCH   1   7
BRANCH   4  18
ATOM     18  C   UNL     1       2.314   9.341  -0.025  0.00  0.00    +0.000 C 
BRANCH  18  19
ATOM     19  N   UNL     1       2.736   9.691   1.306  0.00  0.00    +0.000 N 
ATOM     20  C   UNL     1       3.650  10.689   1.532  0.00  0.00    +0.000 C 
ATOM     21  O   UNL     1       4.132  11.354   0.619  0.00  0.00    +0.000 OA
ATOM     22  H   UNL     1       2.588   8.997   2.032  0.00  0.00    +0.000 HD
BRANCH  20  23
ATOM     23  C   UNL     1       3.969  10.961   2.938  0.00  0.00    +0.000 A 
ATOM     24  C   UNL     1       4.403  12.224   3.320  0.00  0.00    +0.000 A 
ATOM     25  S   UNL     1       4.677  12.371   4.998  0.00  0.00    +0.000 S 
ATOM     26  C   UNL     1       4.273  10.740   5.265  0.00  0.00    +0.000 A 
ATOM     27  N   UNL     1       4.330  10.197   6.510  0.00  0.00    +0.000 NA
ATOM     28  C   UNL     1       4.025   8.943   6.560  0.00  0.00    +0.000 A 
ATOM     29  N   UNL     1       3.657   8.184   5.479  0.00  0.00    +0.000 N 
ATOM     30  C   UNL     1       3.549   8.699   4.210  0.00  0.00    +0.000 A 
ATOM     31  O   UNL     1       3.158   8.010   3.273  0.00  0.00    +0.000 OA
ATOM     32  C   UNL     1       3.907  10.100   4.094  0.00  0.00    +0.000 A 
ATOM     33  H   UNL     1       3.413   7.210   5.588  0.00  0.00    +0.000 HD
ENDBRANCH  20  23
ENDBRANCH  18  19
ENDBRANCH   4  18
TORSDOF 7
