REMARK  Name = 
REMARK  5 active torsions:
REMARK  status: ('A' for Active; 'I' for Inactive)
REMARK    1  A    between atoms: N_1  and  C_2
REMARK    2  A    between atoms: C_2  and  C_3
REMARK    3  A    between atoms: C_6  and  O_7
REMARK    4  A    between atoms: O_7  and  C_8
REMARK    5  A    between atoms: C_8  and  C_9
REMARK                            x       y       z     vdW  Elec       q    Type
REMARK                         _______ _______ _______ _____ _____    ______ ____
ROOT
ATOM      1  C   UNL     1       2.895   1.421  -0.396  0.00  0.00    +0.000 A 
ATOM      2  C   UNL     1       2.126   2.562  -0.123  0.00  0.00    +0.000 A 
ATOM      3  C   UNL     1       2.608   3.836  -0.441  0.00  0.00    +0.000 A 
ATOM      4  C   UNL     1       3.867   3.988  -1.020  0.00  0.00    +0.000 A 
ATOM      5  C   UNL     1       4.612   2.854  -1.341  0.00  0.00    +0.000 A 
ATOM      6  C   UNL     1       4.136   1.582  -1.022  0.00  0.00    +0.000 A 
ENDROOT
BRANCH   1   7
ATOM      7  C   UNL     1       2.417   0.048   0.001  0.00  0.00    +0.000 C 
BRANCH   7   8
ATOM      8  N   UNL     1       1.161  -0.298  -0.650  0.00  0.00    +0.000 NA
ATOM      9  H   UNL     1       0.936  -1.268  -0.439  0.00  0.00    +0.000 HD
ATOM     10  H   UNL     1       1.291  -0.245  -1.659  0.00  0.00    +0.000 HD
ENDBRANCH   7   8
ENDBRANCH   1   7
BRANCH   4  11
ATOM     11  O   UNL     1       4.280   5.279  -1.227  0.00  0.00    +0.000 OA
BRANCH  11  12
ATOM     12  C   UNL     1       5.701   5.438  -1.311  0.00  0.00    +0.000 C 
BRANCH  12  13
ATOM     13  C   UNL     1       6.143   6.859  -1.040  0.00  0.00    +0.000 A 
ATOM     14  C   UNL     1       5.396   7.715  -0.243  0.00  0.00    +0.000 A 
ATOM     15  C   UNL     1       5.920   8.969   0.044  0.00  0.00    +0.000 A 
ATOM     16 CL   UNL     1       5.031  10.060   1.034  0.00  0.00    +0.000 Cl
ATOM     17  C   UNL     1       7.163   9.345  -0.445  0.00  0.00    +0.000 A 
ATOM     18  C   UNL     1       7.844   8.431  -1.222  0.00  0.00    +0.000 A 
ATOM     19  N   UNL     1       7.366   7.204  -1.524  0.00  0.00    +0.000 NA
ENDBRANCH  12  13
ENDBRANCH  11  12
ENDBRANCH   4  11
TORSDOF 5
