REMARK  Name = 
REMARK  9 active torsions:
REMARK  status: ('A' for Active; 'I' for Inactive)
REMARK    1  A    between atoms: C_2  and  C_3
REMARK    2  A    between atoms: C_3  and  N_4
REMARK    3  A    between atoms: C_3  and  C_17
REMARK    4  A    between atoms: C_5  and  C_7
REMARK    5  A    between atoms: C_20  and  C_21
REMARK    6  A    between atoms: C_21  and  N_22
REMARK    7  A    between atoms: C_23  and  C_25
REMARK    8  A    between atoms: N_29  and  C_30
REMARK    9  A    between atoms: C_30  and  O_31
REMARK                            x       y       z     vdW  Elec       q    Type
REMARK                         _______ _______ _______ _____ _____    ______ ____
ROOT
ATOM      1  C   UNL     1       4.111   0.229   1.453  0.00  0.00    +0.000 A 
ATOM      2  C   UNL     1       4.152   1.553   1.925  0.00  0.00    +0.000 A 
ATOM      3  C   UNL     1       4.505   1.838   3.252  0.00  0.00    +0.000 A 
ATOM      4  C   UNL     1       4.845   0.810   4.141  0.00  0.00    +0.000 A 
ATOM      5  C   UNL     1       4.816  -0.510   3.671  0.00  0.00    +0.000 A 
ATOM      6  C   UNL     1       4.470  -0.796   2.343  0.00  0.00    +0.000 A 
ENDROOT
BRANCH   1   7
ATOM      7  C   UNL     1       3.733  -0.039  -0.006  0.00  0.00    +0.000 C 
BRANCH   7   8
ATOM      8  N   UNL     1       4.930   0.057  -0.823  0.00  0.00    +0.000 N 
ATOM      9  C   UNL     1       4.878   0.458  -2.132  0.00  0.00    +0.000 C 
ATOM     10  O   UNL     1       3.836   0.833  -2.659  0.00  0.00    +0.000 OA
ATOM     11  H   UNL     1       5.728  -0.479  -0.504  0.00  0.00    +0.000 HD
BRANCH   9  12
ATOM     12  C   UNL     1       6.164   0.503  -2.836  0.00  0.00    +0.000 A 
ATOM     13  C   UNL     1       6.356   1.396  -3.881  0.00  0.00    +0.000 A 
ATOM     14  S   UNL     1       7.940   1.367  -4.516  0.00  0.00    +0.000 S 
ATOM     15  C   UNL     1       8.402   0.115  -3.460  0.00  0.00    +0.000 A 
ATOM     16  N   UNL     1       9.658  -0.405  -3.489  0.00  0.00    +0.000 NA
ATOM     17  C   UNL     1       9.851  -1.379  -2.664  0.00  0.00    +0.000 A 
ATOM     18  N   UNL     1       8.904  -1.878  -1.807  0.00  0.00    +0.000 N 
ATOM     19  C   UNL     1       7.641  -1.348  -1.703  0.00  0.00    +0.000 A 
ATOM     20  O   UNL     1       6.841  -1.746  -0.861  0.00  0.00    +0.000 OA
ATOM     21  C   UNL     1       7.366  -0.265  -2.626  0.00  0.00    +0.000 A 
ATOM     22  H   UNL     1       9.125  -2.636  -1.176  0.00  0.00    +0.000 HD
ENDBRANCH   9  12
ENDBRANCH   7   8
BRANCH   7  24
ATOM     23  N   UNL     1       2.524  -2.362  -0.359  0.00  0.00    +0.000 NA
ATOM     24  C   UNL     1       3.039  -1.329  -0.211  0.00  0.00    +0.000 C 
ENDBRANCH   7  24
ENDBRANCH   1   7
BRANCH   4  25
ATOM     25  C   UNL     1       5.266   1.118   5.558  0.00  0.00    +0.000 C 
BRANCH  25  26
ATOM     26  N   UNL     1       4.167   1.156   6.490  0.00  0.00    +0.000 N 
ATOM     27  C   UNL     1       4.358   1.391   7.835  0.00  0.00    +0.000 C 
ATOM     28  O   UNL     1       5.464   1.598   8.327  0.00  0.00    +0.000 OA
ATOM     29  H   UNL     1       3.206   1.066   6.173  0.00  0.00    +0.000 HD
BRANCH  27  30
ATOM     30  C   UNL     1       3.131   1.371   8.619  0.00  0.00    +0.000 A 
ATOM     31  N   UNL     1       1.941   1.112   8.088  0.00  0.00    +0.000 NA
ATOM     32  C   UNL     1       1.052   1.146   9.131  0.00  0.00    +0.000 A 
ATOM     33  C   UNL     1       1.688   1.430  10.310  0.00  0.00    +0.000 A 
ATOM     34  N   UNL     1       3.004   1.611   9.973  0.00  0.00    +0.000 N 
BRANCH  34  35
ATOM     35  C   UNL     1       4.060   1.956  10.907  0.00  0.00    +0.000 C 
BRANCH  35  36
ATOM     36  O   UNL     1       4.658   3.186  10.520  0.00  0.00    +0.000 OA
ATOM     37  H   UNL     1       5.227   2.979   9.749  0.00  0.00    +0.000 HD
ENDBRANCH  35  36
ENDBRANCH  34  35
ENDBRANCH  27  30
ENDBRANCH  25  26
ENDBRANCH   4  25
TORSDOF 9
