REMARK  Name = 
REMARK  5 active torsions:
REMARK  status: ('A' for Active; 'I' for Inactive)
REMARK    1  A    between atoms: N_1  and  C_2
REMARK    2  A    between atoms: C_2  and  C_3
REMARK    3  A    between atoms: C_6  and  C_7
REMARK    4  A    between atoms: C_8  and  C_9
REMARK    5  A    between atoms: C_12  and  C_13
REMARK                            x       y       z     vdW  Elec       q    Type
REMARK                         _______ _______ _______ _____ _____    ______ ____
ROOT
ATOM      1  C   UNL     1       4.128  -0.724  -5.438  0.00  0.00    +0.000 C 
ATOM      2  C   UNL     1       4.409  -0.976  -6.578  0.00  0.00    +0.000 C 
ENDROOT
BRANCH   1   6
ATOM      3  C   UNL     1       2.927  -0.098  -1.419  0.00  0.00    +0.000 A 
ATOM      4  C   UNL     1       2.850   0.945  -2.355  0.00  0.00    +0.000 A 
ATOM      5  C   UNL     1       3.263   0.750  -3.677  0.00  0.00    +0.000 A 
ATOM      6  C   UNL     1       3.761  -0.490  -4.075  0.00  0.00    +0.000 A 
ATOM      7  C   UNL     1       3.867  -1.527  -3.144  0.00  0.00    +0.000 A 
ATOM      8  C   UNL     1       3.452  -1.332  -1.824  0.00  0.00    +0.000 A 
BRANCH   3   9
ATOM      9  C   UNL     1       2.423   0.102  -0.012  0.00  0.00    +0.000 C 
BRANCH   9  10
ATOM     10  N   UNL     1       1.001   0.423  -0.013  0.00  0.00    +0.000 NA
ATOM     11  H   UNL     1       0.663   0.467   0.945  0.00  0.00    +0.000 HD
ATOM     12  H   UNL     1       0.493  -0.334  -0.467  0.00  0.00    +0.000 HD
ENDBRANCH   9  10
ENDBRANCH   3   9
ENDBRANCH   1   6
BRANCH   2  13
ATOM     13  C   UNL     1       4.734  -1.330  -7.924  0.00  0.00    +0.000 A 
ATOM     14  C   UNL     1       5.458  -0.465  -8.741  0.00  0.00    +0.000 A 
ATOM     15  C   UNL     1       5.776  -0.859 -10.041  0.00  0.00    +0.000 A 
ATOM     16  C   UNL     1       5.353  -2.111 -10.475  0.00  0.00    +0.000 A 
ATOM     17  N   UNL     1       4.636  -2.979  -9.707  0.00  0.00    +0.000 NA
ATOM     18  C   UNL     1       4.346  -2.559  -8.450  0.00  0.00    +0.000 A 
BRANCH  16  19
ATOM     19  C   UNL     1       5.701  -2.564 -11.859  0.00  0.00    +0.000 C 
ATOM     20  N   UNL     1       5.246  -3.807 -12.210  0.00  0.00    +0.000 N 
ATOM     21  O   UNL     1       6.353  -1.877 -12.633  0.00  0.00    +0.000 OA
ATOM     22  H   UNL     1       4.713  -4.354 -11.545  0.00  0.00    +0.000 HD
ATOM     23  H   UNL     1       5.458  -4.171 -13.127  0.00  0.00    +0.000 HD
ENDBRANCH  16  19
ENDBRANCH   2  13
TORSDOF 5
