REMARK  Name = 
REMARK  8 active torsions:
REMARK  status: ('A' for Active; 'I' for Inactive)
REMARK    1  A    between atoms: C_2  and  C_4
REMARK    2  A    between atoms: C_7  and  N_8
REMARK    3  A    between atoms: N_8  and  C_9
REMARK    4  A    between atoms: C_9  and  C_10
REMARK    5  A    between atoms: C_10  and  C_13
REMARK    6  A    between atoms: C_15  and  N_16
REMARK    7  A    between atoms: N_16  and  C_17
REMARK    8  A    between atoms: C_23  and  O_24
REMARK                            x       y       z     vdW  Elec       q    Type
REMARK                         _______ _______ _______ _____ _____    ______ ____
ROOT
ATOM      1  C   UNL     1       6.036   2.048   6.977  0.00  0.00    +0.000 C 
ATOM      2  F   UNL     1       7.319   1.722   6.611  0.00  0.00    +0.000 F 
ATOM      3  F   UNL     1       5.996   3.413   6.873  0.00  0.00    +0.000 F 
ENDROOT
BRANCH   1   4
ATOM      4  C   UNL     1       5.716   1.578   8.383  0.00  0.00    +0.000 A 
ATOM      5  C   UNL     1       6.673   0.847   9.112  0.00  0.00    +0.000 A 
ATOM      6  C   UNL     1       6.406   0.352  10.398  0.00  0.00    +0.000 A 
ATOM      7  C   UNL     1       5.158   0.621  10.963  0.00  0.00    +0.000 A 
ATOM      8  C   UNL     1       4.205   1.374  10.270  0.00  0.00    +0.000 A 
ATOM      9  C   UNL     1       4.492   1.853   8.994  0.00  0.00    +0.000 A 
BRANCH   6  10
ATOM     10  N   UNL     1       7.424  -0.328  11.095  0.00  0.00    +0.000 N 
ATOM     11  H   UNL     1       8.232  -0.527  10.506  0.00  0.00    +0.000 HD
BRANCH  10  12
ATOM     12  C   UNL     1       7.234  -1.307  12.136  0.00  0.00    +0.000 C 
ATOM     13  C   UNL     1       8.556  -1.812  12.732  0.00  0.00    +0.000 C 
ATOM     14  O   UNL     1       8.282  -3.170  12.315  0.00  0.00    +0.000 OA
ATOM     15  C   UNL     1       7.088  -2.743  11.615  0.00  0.00    +0.000 C 
ENDBRANCH  10  12
ENDBRANCH   6  10
BRANCH   9  16
ATOM     16  O   UNL     1       3.569   2.600   8.323  0.00  0.00    +0.000 OA
ATOM     17  H   UNL     1       2.841   2.828   8.928  0.00  0.00    +0.000 HD
ENDBRANCH   9  16
ENDBRANCH   1   4
BRANCH   1  18
ATOM     18  C   UNL     1       5.085   1.455   5.897  0.00  0.00    +0.000 C 
BRANCH  18  19
ATOM     19  N   UNL     1       5.093  -0.027   5.833  0.00  0.00    +0.000 N 
ATOM     20  H   UNL     1       5.068  -0.456   6.758  0.00  0.00    +0.000 HD
BRANCH  19  24
ATOM     21  C   UNL     1       2.754  -2.174   3.144  0.00  0.00    +0.000 A 
ATOM     22  C   UNL     1       3.032  -0.850   2.836  0.00  0.00    +0.000 A 
ATOM     23  C   UNL     1       3.793  -0.107   3.739  0.00  0.00    +0.000 A 
ATOM     24  C   UNL     1       4.245  -0.678   4.930  0.00  0.00    +0.000 A 
ATOM     25  C   UNL     1       3.931  -2.032   5.114  0.00  0.00    +0.000 A 
ATOM     26  N   UNL     1       3.185  -2.792   4.274  0.00  0.00    +0.000 NA
BRANCH  21  28
ATOM     27  N   UNL     1       1.685  -4.281   2.604  0.00  0.00    +0.000 N 
ATOM     28  C   UNL     1       1.949  -3.002   2.190  0.00  0.00    +0.000 C 
ATOM     29  O   UNL     1       1.547  -2.575   1.115  0.00  0.00    +0.000 OA
ATOM     30  H   UNL     1       1.165  -4.902   2.001  0.00  0.00    +0.000 HD
ATOM     31  H   UNL     1       2.045  -4.601   3.494  0.00  0.00    +0.000 HD
ENDBRANCH  21  28
ENDBRANCH  19  24
ENDBRANCH  18  19
ENDBRANCH   1  18
TORSDOF 8
