REMARK  Name = 
REMARK  3 active torsions:
REMARK  status: ('A' for Active; 'I' for Inactive)
REMARK    1  A    between atoms: C_2  and  C_4
REMARK    2  A    between atoms: N_8  and  C_9
REMARK    3  A    between atoms: C_9  and  C_10
REMARK                            x       y       z     vdW  Elec       q    Type
REMARK                         _______ _______ _______ _____ _____    ______ ____
ROOT
ATOM      1  C   UNL     1       3.172   1.381   0.294  0.00  0.00    +0.000 A 
ATOM      2  C   UNL     1       3.664   1.652  -0.978  0.00  0.00    +0.000 A 
ATOM      3  C   UNL     1       4.368   2.837  -1.189  0.00  0.00    +0.000 A 
ATOM      4  C   UNL     1       4.548   3.737  -0.141  0.00  0.00    +0.000 A 
ATOM      5  N   UNL     1       5.149   4.951  -0.438  0.00  0.00    +0.000 N 
ATOM      6  N   UNL     1       4.071   3.485   1.093  0.00  0.00    +0.000 NA
ATOM      7  C   UNL     1       3.395   2.322   1.287  0.00  0.00    +0.000 A 
ATOM      8  H   UNL     1       6.058   4.843  -0.871  0.00  0.00    +0.000 HD
ENDROOT
BRANCH   1  10
ATOM      9  N   UNL     1       2.595  -0.933  -0.170  0.00  0.00    +0.000 N 
ATOM     10  C   UNL     1       2.397   0.167   0.616  0.00  0.00    +0.000 C 
ATOM     11  O   UNL     1       1.626   0.134   1.567  0.00  0.00    +0.000 OA
ATOM     12  H   UNL     1       2.122  -1.783   0.115  0.00  0.00    +0.000 HD
ATOM     13  H   UNL     1       3.370  -1.020  -0.810  0.00  0.00    +0.000 HD
ENDBRANCH   1  10
BRANCH   5  14
ATOM     14  C   UNL     1       5.078   6.022   0.536  0.00  0.00    +0.000 C 
BRANCH  14  15
ATOM     15  C   UNL     1       4.771   7.282  -0.227  0.00  0.00    +0.000 A 
ATOM     16  C   UNL     1       5.767   8.147  -0.681  0.00  0.00    +0.000 A 
ATOM     17  C   UNL     1       5.417   9.253  -1.452  0.00  0.00    +0.000 A 
ATOM     18  C   UNL     1       4.078   9.455  -1.746  0.00  0.00    +0.000 A 
ATOM     19  N   UNL     1       3.087   8.641  -1.326  0.00  0.00    +0.000 NA
ATOM     20  C   UNL     1       3.456   7.571  -0.586  0.00  0.00    +0.000 A 
ENDBRANCH  14  15
ENDBRANCH   5  14
TORSDOF 3
