REMARK  Name = 
REMARK  6 active torsions:
REMARK  status: ('A' for Active; 'I' for Inactive)
REMARK    1  A    between atoms: C_1  and  C_2
REMARK    2  A    between atoms: C_9  and  C_10
REMARK    3  A    between atoms: C_10  and  N_11
REMARK    4  A    between atoms: N_11  and  C_12
REMARK    5  A    between atoms: C_15  and  C_16
REMARK    6  A    between atoms: C_25  and  C_26
REMARK                            x       y       z     vdW  Elec       q    Type
REMARK                         _______ _______ _______ _____ _____    ______ ____
ROOT
ATOM      1  C   UNL     1       2.281   4.546  -4.939  0.00  0.00    +0.000 C 
ATOM      2  C   UNL     1       3.157   4.412  -6.163  0.00  0.00    +0.000 C 
ATOM      3  C   UNL     1       3.818   4.525  -4.834  0.00  0.00    +0.000 C 
ENDROOT
BRANCH   1  12
ATOM      4  C   UNL     1       3.553  -1.302  -4.719  0.00  0.00    +0.000 C 
ATOM      5  C   UNL     1       3.591  -1.489  -3.199  0.00  0.00    +0.000 C 
ATOM      6  C   UNL     1       2.351  -0.884  -2.482  0.00  0.00    +0.000 C 
ATOM      7  N   UNL     1       2.432   0.572  -2.375  0.00  0.00    +0.000 N 
ATOM      8  C   UNL     1       1.707   1.314  -3.286  0.00  0.00    +0.000 A 
ATOM      9  N   UNL     1       0.604   0.814  -3.861  0.00  0.00    +0.000 NA
ATOM     10  C   UNL     1      -0.039   1.589  -4.755  0.00  0.00    +0.000 A 
ATOM     11  C   UNL     1       0.399   2.834  -5.133  0.00  0.00    +0.000 A 
ATOM     12  C   UNL     1       1.549   3.274  -4.517  0.00  0.00    +0.000 A 
ATOM     13  N   UNL     1       2.148   2.540  -3.560  0.00  0.00    +0.000 NA
ATOM     14  C   UNL     1       3.723   1.113  -1.914  0.00  0.00    +0.000 C 
ATOM     15  C   UNL     1       4.931   0.471  -2.649  0.00  0.00    +0.000 C 
ATOM     16  C   UNL     1       6.244   0.906  -1.992  0.00  0.00    +0.000 C 
ATOM     17  N   UNL     1       4.881  -1.011  -2.641  0.00  0.00    +0.000 NA
ATOM     18  H   UNL     1       4.923  -1.315  -1.666  0.00  0.00    +0.000 HD
ENDBRANCH   1  12
BRANCH   1  19
ATOM     19  N   UNL     1       1.751   5.780  -4.348  0.00  0.00    +0.000 N 
ATOM     20  H   UNL     1       1.717   5.735  -3.332  0.00  0.00    +0.000 HD
BRANCH  19  21
ATOM     21  C   UNL     1       0.726   6.590  -4.852  0.00  0.00    +0.000 A 
ATOM     22  C   UNL     1       0.224   6.533  -6.155  0.00  0.00    +0.000 A 
ATOM     23  C   UNL     1      -0.734   7.455  -6.589  0.00  0.00    +0.000 A 
ATOM     24  C   UNL     1      -1.196   8.471  -5.730  0.00  0.00    +0.000 A 
ATOM     25  C   UNL     1      -0.663   8.566  -4.446  0.00  0.00    +0.000 A 
ATOM     26  C   UNL     1       0.288   7.637  -4.023  0.00  0.00    +0.000 A 
BRANCH  24  27
ATOM     27  C   UNL     1      -2.185   9.459  -6.227  0.00  0.00    +0.000 C 
ATOM     28  N   UNL     1      -2.944  10.114  -5.288  0.00  0.00    +0.000 N 
ATOM     29  O   UNL     1      -2.336   9.676  -7.418  0.00  0.00    +0.000 OA
ATOM     30  H   UNL     1      -3.001   9.828  -4.323  0.00  0.00    +0.000 HD
ATOM     31  H   UNL     1      -3.654  10.743  -5.639  0.00  0.00    +0.000 HD
ENDBRANCH  24  27
ENDBRANCH  19  21
ENDBRANCH   1  19
TORSDOF 4
