REMARK  Name = 
REMARK  7 active torsions:
REMARK  status: ('A' for Active; 'I' for Inactive)
REMARK    1  A    between atoms: C_1  and  O_2
REMARK    2  A    between atoms: O_2  and  C_3
REMARK    3  A    between atoms: C_5  and  C_6
REMARK    4  A    between atoms: C_6  and  N_7
REMARK    5  A    between atoms: N_7  and  C_8
REMARK    6  A    between atoms: C_11  and  C_12
REMARK    7  A    between atoms: C_16  and  C_17
REMARK                            x       y       z     vdW  Elec       q    Type
REMARK                         _______ _______ _______ _____ _____    ______ ____
ROOT
ATOM      1  C   UNL     1       1.520  -3.437  -5.359  0.00  0.00    +0.000 A 
ATOM      2  N   UNL     1       2.286  -4.440  -5.846  0.00  0.00    +0.000 NA
ATOM      3  C   UNL     1       1.989  -4.961  -7.063  0.00  0.00    +0.000 A 
ATOM      4  C   UNL     1       0.937  -4.539  -7.852  0.00  0.00    +0.000 A 
ATOM      5  C   UNL     1       0.132  -3.526  -7.333  0.00  0.00    +0.000 A 
ATOM      6  C   UNL     1       0.417  -2.955  -6.079  0.00  0.00    +0.000 A 
ATOM      7  C   UNL     1      -0.498  -1.894  -5.539  0.00  0.00    +0.000 C 
ENDROOT
BRANCH   4   8
ATOM      8  C   UNL     1       0.632  -5.099  -9.191  0.00  0.00    +0.000 C 
ATOM      9  N   UNL     1       1.456  -6.053  -9.720  0.00  0.00    +0.000 N 
ATOM     10  O   UNL     1      -0.337  -4.709  -9.832  0.00  0.00    +0.000 OA
ATOM     11  H   UNL     1       2.290  -6.425  -9.295  0.00  0.00    +0.000 HD
ATOM     12  H   UNL     1       1.216  -6.388 -10.645  0.00  0.00    +0.000 HD
ENDBRANCH   4   8
BRANCH   1  13
ATOM     13  N   UNL     1       1.832  -2.896  -4.096  0.00  0.00    +0.000 N 
ATOM     14  H   UNL     1       1.909  -1.887  -4.178  0.00  0.00    +0.000 HD
BRANCH  13  15
ATOM     15  C   UNL     1       3.036  -3.476  -3.505  0.00  0.00    +0.000 C 
BRANCH  15  18
ATOM     16  C   UNL     1       3.016  -2.158   0.059  0.00  0.00    +0.000 A 
ATOM     17  C   UNL     1       2.577  -2.772  -1.106  0.00  0.00    +0.000 A 
ATOM     18  C   UNL     1       3.414  -2.760  -2.228  0.00  0.00    +0.000 A 
ATOM     19  C   UNL     1       4.653  -2.120  -2.120  0.00  0.00    +0.000 A 
ATOM     20  C   UNL     1       5.002  -1.537  -0.912  0.00  0.00    +0.000 A 
ATOM     21  N   UNL     1       4.213  -1.544   0.179  0.00  0.00    +0.000 NA
BRANCH  16  23
ATOM     22  C   UNL     1       2.712  -1.575   2.302  0.00  0.00    +0.000 C 
ATOM     23  O   UNL     1       2.161  -2.196   1.143  0.00  0.00    +0.000 OA
ENDBRANCH  16  23
ENDBRANCH  15  18
ENDBRANCH  13  15
ENDBRANCH   1  13
TORSDOF 5
