REMARK  Name = 
REMARK  6 active torsions:
REMARK  status: ('A' for Active; 'I' for Inactive)
REMARK    1  A    between atoms: C_2  and  C_3
REMARK    2  A    between atoms: C_6  and  N_7
REMARK    3  A    between atoms: N_7  and  C_8
REMARK    4  A    between atoms: C_8  and  C_9
REMARK    5  A    between atoms: C_13  and  C_14
REMARK    6  A    between atoms: C_17  and  C_18
REMARK                            x       y       z     vdW  Elec       q    Type
REMARK                         _______ _______ _______ _____ _____    ______ ____
ROOT
ATOM      1  C   UNL     1      -5.452  -0.198   0.439  0.00  0.00    +0.000 A 
ATOM      2  C   UNL     1      -5.887  -1.258  -0.368  0.00  0.00    +0.000 A 
ATOM      3  C   UNL     1      -6.402  -2.421   0.197  0.00  0.00    +0.000 A 
ATOM      4  C   UNL     1      -6.498  -2.534   1.584  0.00  0.00    +0.000 A 
ATOM      5  C   UNL     1      -6.147  -1.466   2.426  0.00  0.00    +0.000 A 
ATOM      6  C   UNL     1      -5.682  -0.288   1.822  0.00  0.00    +0.000 A 
ENDROOT
BRANCH   5   7
ATOM      7  C   UNL     1      -6.130  -1.602   3.892  0.00  0.00    +0.000 A 
ATOM      8  C   UNL     1      -6.525  -0.567   4.751  0.00  0.00    +0.000 A 
ATOM      9  C   UNL     1      -6.407  -0.711   6.133  0.00  0.00    +0.000 A 
ATOM     10  C   UNL     1      -5.907  -1.906   6.628  0.00  0.00    +0.000 A 
ATOM     11  N   UNL     1      -5.515  -2.936   5.842  0.00  0.00    +0.000 NA
ATOM     12  C   UNL     1      -5.632  -2.754   4.506  0.00  0.00    +0.000 A 
BRANCH  10  13
ATOM     13  C   UNL     1      -5.750  -2.106   8.044  0.00  0.00    +0.000 C 
ATOM     14  N   UNL     1      -5.637  -2.224   9.193  0.00  0.00    +0.000 NA
ENDBRANCH  10  13
ENDBRANCH   5   7
BRANCH   1  15
ATOM     15  C   UNL     1      -4.600   0.917  -0.153  0.00  0.00    +0.000 C 
ATOM     16  C   UNL     1      -3.428   1.476   0.656  0.00  0.00    +0.000 C 
ATOM     17  C   UNL     1      -3.165   0.487  -0.421  0.00  0.00    +0.000 C 
BRANCH  15  18
ATOM     18  N   UNL     1      -5.387   1.933  -0.855  0.00  0.00    +0.000 N 
ATOM     19  H   UNL     1      -6.255   2.210  -0.404  0.00  0.00    +0.000 HD
BRANCH  18  23
ATOM     20  C   UNL     1      -5.047   3.545  -4.681  0.00  0.00    +0.000 A 
ATOM     21  C   UNL     1      -4.325   2.392  -4.408  0.00  0.00    +0.000 A 
ATOM     22  C   UNL     1      -4.452   1.802  -3.146  0.00  0.00    +0.000 A 
ATOM     23  C   UNL     1      -5.285   2.365  -2.184  0.00  0.00    +0.000 A 
ATOM     24  C   UNL     1      -5.966   3.525  -2.574  0.00  0.00    +0.000 A 
ATOM     25  N   UNL     1      -5.881   4.123  -3.788  0.00  0.00    +0.000 NA
BRANCH  20  27
ATOM     26  N   UNL     1      -4.801   4.713  -6.990  0.00  0.00    +0.000 NA
ATOM     27  C   UNL     1      -4.929   4.206  -5.951  0.00  0.00    +0.000 C 
ENDBRANCH  20  27
ENDBRANCH  18  23
ENDBRANCH  15  18
ENDBRANCH   1  15
TORSDOF 6
