REMARK  Name = 
REMARK  11 active torsions:
REMARK  status: ('A' for Active; 'I' for Inactive)
REMARK    1  A    between atoms: C_1  and  O_2
REMARK    2  A    between atoms: O_2  and  C_3
REMARK    3  A    between atoms: C_3  and  C_4
REMARK    4  A    between atoms: C_4  and  N_5
REMARK    5  A    between atoms: C_4  and  C_19
REMARK    6  A    between atoms: C_6  and  C_8
REMARK    7  A    between atoms: C_22  and  C_23
REMARK    8  A    between atoms: C_23  and  N_24
REMARK    9  A    between atoms: N_24  and  C_25
REMARK   10  A    between atoms: C_25  and  C_26
REMARK   11  A    between atoms: C_25  and  C_27
REMARK                            x       y       z     vdW  Elec       q    Type
REMARK                         _______ _______ _______ _____ _____    ______ ____
ROOT
ATOM      1  C   UNL     1      12.982 -11.322   1.553  0.00  0.00    +0.000 C 
ENDROOT
BRANCH   1   2
ATOM      2  C   UNL     1      11.648 -11.104   0.852  0.00  0.00    +0.000 A 
ATOM      3  C   UNL     1      10.944  -9.908   1.069  0.00  0.00    +0.000 A 
ATOM      4  C   UNL     1       9.703  -9.690   0.466  0.00  0.00    +0.000 A 
ATOM      5  C   UNL     1       9.136 -10.666  -0.362  0.00  0.00    +0.000 A 
ATOM      6  C   UNL     1       9.831 -11.860  -0.576  0.00  0.00    +0.000 A 
ATOM      7  C   UNL     1      11.066 -12.082   0.034  0.00  0.00    +0.000 A 
BRANCH   5   8
ATOM      8  C   UNL     1       7.754 -10.491  -0.939  0.00  0.00    +0.000 C 
BRANCH   8   9
ATOM      9  N   UNL     1       7.654  -9.317  -1.808  0.00  0.00    +0.000 NA
ATOM     10  H   UNL     1       8.287  -9.463  -2.598  0.00  0.00    +0.000 HD
BRANCH   9  11
ATOM     11  C   UNL     1       6.286  -9.169  -2.383  0.00  0.00    +0.000 C 
ATOM     12  C   UNL     1       5.265  -8.859  -1.279  0.00  0.00    +0.000 C 
BRANCH  11  13
ATOM     13  C   UNL     1       5.865 -10.335  -3.290  0.00  0.00    +0.000 A 
ATOM     14  N   UNL     1       4.744 -11.023  -2.992  0.00  0.00    +0.000 NA
ATOM     15  C   UNL     1       4.471 -12.099  -3.754  0.00  0.00    +0.000 A 
ATOM     16  C   UNL     1       5.273 -12.521  -4.786  0.00  0.00    +0.000 A 
ATOM     17  C   UNL     1       6.391 -11.756  -5.017  0.00  0.00    +0.000 A 
ATOM     18  N   UNL     1       6.712 -10.667  -4.292  0.00  0.00    +0.000 NA
ENDBRANCH  11  13
ENDBRANCH   9  11
ENDBRANCH   8   9
ENDBRANCH   5   8
ENDBRANCH   1   2
BRANCH   1  19
ATOM     19  N   UNL     1      12.729 -11.958   2.838  0.00  0.00    +0.000 N 
ATOM     20  C   UNL     1      13.580 -11.817   3.902  0.00  0.00    +0.000 C 
ATOM     21  O   UNL     1      14.576 -11.100   3.856  0.00  0.00    +0.000 OA
ATOM     22  H   UNL     1      11.989 -12.650   2.874  0.00  0.00    +0.000 HD
BRANCH  20  23
ATOM     23  C   UNL     1      13.213 -12.531   5.126  0.00  0.00    +0.000 A 
ATOM     24  C   UNL     1      13.561 -12.013   6.363  0.00  0.00    +0.000 A 
ATOM     25  S   UNL     1      13.056 -12.979   7.674  0.00  0.00    +0.000 S 
ATOM     26  C   UNL     1      12.417 -14.159   6.626  0.00  0.00    +0.000 A 
ATOM     27  N   UNL     1      11.886 -15.312   7.111  0.00  0.00    +0.000 NA
ATOM     28  C   UNL     1      11.492 -16.160   6.211  0.00  0.00    +0.000 A 
ATOM     29  N   UNL     1      10.978 -17.359   6.580  0.00  0.00    +0.000 N 
ATOM     30  N   UNL     1      11.557 -15.912   4.866  0.00  0.00    +0.000 N 
ATOM     31  C   UNL     1      12.039 -14.741   4.326  0.00  0.00    +0.000 A 
ATOM     32  O   UNL     1      12.015 -14.534   3.114  0.00  0.00    +0.000 OA
ATOM     33  C   UNL     1      12.542 -13.795   5.300  0.00  0.00    +0.000 A 
ATOM     34  H   UNL     1      10.744 -17.398   7.568  0.00  0.00    +0.000 HD
ATOM     35  H   UNL     1      10.288 -17.794   5.984  0.00  0.00    +0.000 HD
ATOM     36  H   UNL     1      11.249 -16.607   4.208  0.00  0.00    +0.000 HD
ENDBRANCH  20  23
ENDBRANCH   1  19
BRANCH   1  37
ATOM     37  C   UNL     1      14.016 -12.113   0.713  0.00  0.00    +0.000 C 
BRANCH  37  39
ATOM     38  C   UNL     1      15.194 -12.118  -1.339  0.00  0.00    +0.000 C 
ATOM     39  O   UNL     1      14.355 -11.377  -0.467  0.00  0.00    +0.000 OA
ENDBRANCH  37  39
ENDBRANCH   1  37
TORSDOF 9
