REMARK  Name = 
REMARK  5 active torsions:
REMARK  status: ('A' for Active; 'I' for Inactive)
REMARK    1  A    between atoms: N_1  and  C_2
REMARK    2  A    between atoms: C_2  and  C_3
REMARK    3  A    between atoms: C_3  and  C_4
REMARK    4  A    between atoms: C_8  and  C_9
REMARK    5  A    between atoms: C_9  and  N_10
REMARK                            x       y       z     vdW  Elec       q    Type
REMARK                         _______ _______ _______ _____ _____    ______ ____
ROOT
ATOM      1  C   UNL     1       4.387   1.215  -1.025  0.00  0.00    +0.000 A 
ATOM      2  C   UNL     1       5.126   1.131  -2.200  0.00  0.00    +0.000 A 
ATOM      3  N   UNL     1       6.476   1.074  -2.240  0.00  0.00    +0.000 NA
ATOM      4  C   UNL     1       7.123   1.081  -1.054  0.00  0.00    +0.000 A 
ATOM      5  C   UNL     1       6.492   1.140   0.184  0.00  0.00    +0.000 A 
ATOM      6  C   UNL     1       5.096   1.241   0.181  0.00  0.00    +0.000 A 
ENDROOT
BRANCH   1   7
ATOM      7  C   UNL     1       2.881   1.194  -1.044  0.00  0.00    +0.000 C 
BRANCH   7   8
ATOM      8  C   UNL     1       2.342  -0.239  -0.925  0.00  0.00    +0.000 C 
BRANCH   8   9
ATOM      9  N   UNL     1       0.881  -0.262  -0.920  0.00  0.00    +0.000 NA
ATOM     10  H   UNL     1       0.560  -1.226  -0.830  0.00  0.00    +0.000 HD
ATOM     11  H   UNL     1       0.528   0.068  -1.819  0.00  0.00    +0.000 HD
ENDBRANCH   8   9
ENDBRANCH   7   8
ENDBRANCH   1   7
BRANCH   5  12
ATOM     12  C   UNL     1       7.280   1.042   1.461  0.00  0.00    +0.000 C 
BRANCH  12  13
ATOM     13  N   UNL     1       7.770   2.336   1.920  0.00  0.00    +0.000 N 
ATOM     14  C   UNL     1       9.007   2.846   1.608  0.00  0.00    +0.000 A 
ATOM     15  C   UNL     1       9.112   4.089   2.186  0.00  0.00    +0.000 A 
ATOM     16  C   UNL     1       7.910   4.337   2.899  0.00  0.00    +0.000 A 
ATOM     17  C   UNL     1       7.440   5.429   3.656  0.00  0.00    +0.000 A 
ATOM     18  C   UNL     1       6.179   5.345   4.239  0.00  0.00    +0.000 A 
ATOM     19  F   UNL     1       5.710   6.393   4.932  0.00  0.00    +0.000 F 
ATOM     20  C   UNL     1       5.393   4.209   4.123  0.00  0.00    +0.000 A 
ATOM     21  C   UNL     1       5.845   3.108   3.388  0.00  0.00    +0.000 A 
ATOM     22  C   UNL     1       7.098   3.205   2.760  0.00  0.00    +0.000 A 
ENDBRANCH  12  13
ENDBRANCH   5  12
TORSDOF 5
