REMARK  Name = 
REMARK  4 active torsions:
REMARK  status: ('A' for Active; 'I' for Inactive)
REMARK    1  A    between atoms: C_2  and  C_4
REMARK    2  A    between atoms: N_8  and  C_9
REMARK    3  A    between atoms: C_9  and  C_10
REMARK    4  A    between atoms: C_14  and  C_15
REMARK                            x       y       z     vdW  Elec       q    Type
REMARK                         _______ _______ _______ _____ _____    ______ ____
ROOT
ATOM      1  C   UNL     1       2.226   2.325   1.367  0.00  0.00    +0.000 A 
ATOM      2  C   UNL     1       3.278   3.181   1.058  0.00  0.00    +0.000 A 
ATOM      3  C   UNL     1       4.315   3.331   1.975  0.00  0.00    +0.000 A 
ATOM      4  C   UNL     1       4.269   2.655   3.194  0.00  0.00    +0.000 A 
ATOM      5  N   UNL     1       5.293   2.907   4.101  0.00  0.00    +0.000 N 
ATOM      6  N   UNL     1       3.253   1.831   3.509  0.00  0.00    +0.000 NA
ATOM      7  C   UNL     1       2.257   1.680   2.596  0.00  0.00    +0.000 A 
ATOM      8  H   UNL     1       6.189   2.616   3.724  0.00  0.00    +0.000 HD
ENDROOT
BRANCH   1  10
ATOM      9  N   UNL     1       1.252   2.355  -0.862  0.00  0.00    +0.000 N 
ATOM     10  C   UNL     1       1.073   2.104   0.468  0.00  0.00    +0.000 C 
ATOM     11  O   UNL     1       0.004   1.685   0.894  0.00  0.00    +0.000 OA
ATOM     12  H   UNL     1       0.480   2.118  -1.473  0.00  0.00    +0.000 HD
ATOM     13  H   UNL     1       2.160   2.482  -1.285  0.00  0.00    +0.000 HD
ENDBRANCH   1  10
BRANCH   5  14
ATOM     14  C   UNL     1       5.088   2.465   5.469  0.00  0.00    +0.000 C 
BRANCH  14  15
ATOM     15  C   UNL     1       6.090   3.221   6.314  0.00  0.00    +0.000 A 
ATOM     16  C   UNL     1       7.282   2.623   6.737  0.00  0.00    +0.000 A 
ATOM     17  C   UNL     1       8.240   3.371   7.426  0.00  0.00    +0.000 A 
ATOM     18  C   UNL     1       8.019   4.725   7.686  0.00  0.00    +0.000 A 
ATOM     19  C   UNL     1       6.838   5.350   7.263  0.00  0.00    +0.000 A 
ATOM     20  C   UNL     1       5.876   4.583   6.588  0.00  0.00    +0.000 A 
BRANCH  19  21
ATOM     21  C   UNL     1       6.598   6.820   7.497  0.00  0.00    +0.000 C 
ATOM     22  F   UNL     1       7.652   7.458   8.080  0.00  0.00    +0.000 F 
ATOM     23  F   UNL     1       6.349   7.499   6.342  0.00  0.00    +0.000 F 
ATOM     24  F   UNL     1       5.528   7.054   8.307  0.00  0.00    +0.000 F 
ENDBRANCH  19  21
ENDBRANCH  14  15
ENDBRANCH   5  14
TORSDOF 4
