REMARK  Name = 
REMARK  3 active torsions:
REMARK  status: ('A' for Active; 'I' for Inactive)
REMARK    1  A    between atoms: C_2  and  C_4
REMARK    2  A    between atoms: N_8  and  C_9
REMARK    3  A    between atoms: C_9  and  C_10
REMARK                            x       y       z     vdW  Elec       q    Type
REMARK                         _______ _______ _______ _____ _____    ______ ____
ROOT
ATOM      1  C   UNL     1       3.531   3.309  -1.566  0.00  0.00    +0.000 A 
ATOM      2  C   UNL     1       2.752   3.847  -0.546  0.00  0.00    +0.000 A 
ATOM      3  C   UNL     1       3.343   4.130   0.685  0.00  0.00    +0.000 A 
ATOM      4  C   UNL     1       4.690   3.861   0.883  0.00  0.00    +0.000 A 
ATOM      5  N   UNL     1       5.328   4.014   2.116  0.00  0.00    +0.000 N 
ATOM      6  N   UNL     1       5.453   3.334  -0.098  0.00  0.00    +0.000 NA
ATOM      7  C   UNL     1       4.865   3.064  -1.293  0.00  0.00    +0.000 A 
ATOM      8  H   UNL     1       6.308   3.795   1.943  0.00  0.00    +0.000 HD
ENDROOT
BRANCH   1  10
ATOM      9  N   UNL     1       1.867   3.634  -3.306  0.00  0.00    +0.000 N 
ATOM     10  C   UNL     1       2.977   2.953  -2.888  0.00  0.00    +0.000 C 
ATOM     11  O   UNL     1       3.500   2.099  -3.593  0.00  0.00    +0.000 OA
ATOM     12  H   UNL     1       1.541   3.438  -4.244  0.00  0.00    +0.000 HD
ATOM     13  H   UNL     1       1.557   4.493  -2.874  0.00  0.00    +0.000 HD
ENDBRANCH   1  10
BRANCH   5  14
ATOM     14  C   UNL     1       5.070   5.105   3.072  0.00  0.00    +0.000 C 
ATOM     15  C   UNL     1       5.005   4.655   4.528  0.00  0.00    +0.000 C 
ATOM     16  C   UNL     1       3.792   5.229   3.879  0.00  0.00    +0.000 C 
BRANCH  14  17
ATOM     17  C   UNL     1       5.833   6.386   2.742  0.00  0.00    +0.000 A 
ATOM     18  C   UNL     1       7.132   6.614   3.232  0.00  0.00    +0.000 A 
ATOM     19  C   UNL     1       7.865   7.747   2.865  0.00  0.00    +0.000 A 
ATOM     20  C   UNL     1       7.315   8.683   1.990  0.00  0.00    +0.000 A 
ATOM     21 CL   UNL     1       8.292  10.033   1.535  0.00  0.00    +0.000 Cl
ATOM     22  C   UNL     1       6.019   8.494   1.506  0.00  0.00    +0.000 A 
ATOM     23 CL   UNL     1       5.262   9.610   0.424  0.00  0.00    +0.000 Cl
ATOM     24  C   UNL     1       5.290   7.359   1.884  0.00  0.00    +0.000 A 
ENDBRANCH  14  17
ENDBRANCH   5  14
TORSDOF 3
