REMARK  Name = 
REMARK  8 active torsions:
REMARK  status: ('A' for Active; 'I' for Inactive)
REMARK    1  A    between atoms: C_2  and  C_27
REMARK    2  A    between atoms: N_3  and  C_4
REMARK    3  A    between atoms: C_4  and  C_5
REMARK    4  A    between atoms: C_8  and  C_9
REMARK    5  A    between atoms: C_9  and  O_10
REMARK    6  A    between atoms: C_9  and  C_11
REMARK    7  A    between atoms: C_11  and  N_12
REMARK    8  A    between atoms: C_13  and  C_15
REMARK                            x       y       z     vdW  Elec       q    Type
REMARK                         _______ _______ _______ _____ _____    ______ ____
ROOT
ATOM      1  C   UNL     1       5.783   0.926   6.972  0.00  0.00    +0.000 C 
ENDROOT
BRANCH   1   5
ATOM      2  C   UNL     1       3.170   0.455   3.530  0.00  0.00    +0.000 A 
ATOM      3  C   UNL     1       3.515   1.727   4.003  0.00  0.00    +0.000 A 
ATOM      4  C   UNL     1       4.355   1.871   5.113  0.00  0.00    +0.000 A 
ATOM      5  C   UNL     1       4.884   0.747   5.764  0.00  0.00    +0.000 A 
ATOM      6  C   UNL     1       4.532  -0.524   5.280  0.00  0.00    +0.000 A 
ATOM      7  C   UNL     1       3.700  -0.668   4.170  0.00  0.00    +0.000 A 
BRANCH   2   8
ATOM      8  C   UNL     1       2.234   0.290   2.368  0.00  0.00    +0.000 C 
BRANCH   8  11
ATOM      9  O   UNL     1       0.986  -0.022  -0.044  0.00  0.00    +0.000 OA
ATOM     10  C   UNL     1       2.210   0.116  -0.065  0.00  0.00    +0.000 C 
ATOM     11  N   UNL     1       2.924   0.276   1.102  0.00  0.00    +0.000 N 
ATOM     12  H   UNL     1       3.921   0.437   1.065  0.00  0.00    +0.000 HD
BRANCH  10  13
ATOM     13  C   UNL     1       2.964   0.131  -1.309  0.00  0.00    +0.000 A 
ATOM     14  C   UNL     1       2.427   0.082  -2.586  0.00  0.00    +0.000 A 
ATOM     15  C   UNL     1       3.425   0.087  -3.604  0.00  0.00    +0.000 A 
ATOM     16  C   UNL     1       4.679   0.134  -3.055  0.00  0.00    +0.000 A 
ATOM     17 CL   UNL     1       6.168   0.131  -3.909  0.00  0.00    +0.000 Cl
ATOM     18  S   UNL     1       4.677   0.195  -1.363  0.00  0.00    +0.000 S 
ENDBRANCH  10  13
ENDBRANCH   8  11
ENDBRANCH   2   8
ENDBRANCH   1   5
BRANCH   1  19
ATOM     19  O   UNL     1       4.963   0.977   8.142  0.00  0.00    +0.000 OA
ATOM     20  H   UNL     1       4.412   0.176   8.144  0.00  0.00    +0.000 HD
ENDBRANCH   1  19
BRANCH   1  21
ATOM     21  C   UNL     1       6.831  -0.193   7.122  0.00  0.00    +0.000 C 
BRANCH  21  22
ATOM     22  N   UNL     1       7.713  -0.019   8.256  0.00  0.00    +0.000 N 
ATOM     23  C   UNL     1       8.717  -0.937   8.465  0.00  0.00    +0.000 C 
ATOM     24  O   UNL     1       8.940  -1.846   7.669  0.00  0.00    +0.000 OA
ATOM     25  H   UNL     1       7.325   0.469   9.063  0.00  0.00    +0.000 HD
BRANCH  23  26
ATOM     26  C   UNL     1       9.553  -0.742   9.649  0.00  0.00    +0.000 A 
ATOM     27  C   UNL     1      10.859  -1.211   9.649  0.00  0.00    +0.000 A 
ATOM     28  S   UNL     1      11.710  -0.851  11.081  0.00  0.00    +0.000 S 
ATOM     29  C   UNL     1      10.343  -0.108  11.771  0.00  0.00    +0.000 A 
ATOM     30  N   UNL     1      10.385   0.408  13.028  0.00  0.00    +0.000 NA
ATOM     31  C   UNL     1       9.267   0.914  13.433  0.00  0.00    +0.000 A 
ATOM     32  N   UNL     1       8.113   0.955  12.693  0.00  0.00    +0.000 N 
ATOM     33  C   UNL     1       8.030   0.466  11.411  0.00  0.00    +0.000 A 
ATOM     34  O   UNL     1       6.995   0.537  10.762  0.00  0.00    +0.000 OA
ATOM     35  C   UNL     1       9.259  -0.118  10.912  0.00  0.00    +0.000 A 
ATOM     36  H   UNL     1       7.271   1.368  13.068  0.00  0.00    +0.000 HD
ENDBRANCH  23  26
ENDBRANCH  21  22
ENDBRANCH   1  21
TORSDOF 8
