REMARK  Name = 
REMARK  7 active torsions:
REMARK  status: ('A' for Active; 'I' for Inactive)
REMARK    1  A    between atoms: C_2  and  C_19
REMARK    2  A    between atoms: N_3  and  C_4
REMARK    3  A    between atoms: C_4  and  C_5
REMARK    4  A    between atoms: C_8  and  C_9
REMARK    5  A    between atoms: C_9  and  N_10
REMARK    6  A    between atoms: N_10  and  C_11
REMARK    7  A    between atoms: C_11  and  C_12
REMARK                            x       y       z     vdW  Elec       q    Type
REMARK                         _______ _______ _______ _____ _____    ______ ____
ROOT
ATOM      1  C   UNL     1       2.184   1.836   1.623  0.00  0.00    +0.000 C 
ENDROOT
BRANCH   1   2
ATOM      2  C   UNL     1       3.099   2.790   2.329  0.00  0.00    +0.000 A 
ATOM      3  C   UNL     1       2.915   4.171   2.236  0.00  0.00    +0.000 A 
ATOM      4  C   UNL     1       3.752   5.031   2.941  0.00  0.00    +0.000 A 
ATOM      5  C   UNL     1       4.772   4.488   3.716  0.00  0.00    +0.000 A 
ATOM      6  N   UNL     1       5.000   3.150   3.791  0.00  0.00    +0.000 NA
ATOM      7  C   UNL     1       4.167   2.340   3.097  0.00  0.00    +0.000 A 
BRANCH   5   8
ATOM      8  C   UNL     1       5.700   5.394   4.502  0.00  0.00    +0.000 C 
BRANCH   8   9
ATOM      9  N   UNL     1       7.129   5.187   4.199  0.00  0.00    +0.000 NA
ATOM     10  H   UNL     1       7.280   4.177   4.271  0.00  0.00    +0.000 HD
BRANCH   9  11
ATOM     11  C   UNL     1       7.440   5.577   2.823  0.00  0.00    +0.000 C 
BRANCH  11  12
ATOM     12  C   UNL     1       8.893   5.419   2.582  0.00  0.00    +0.000 A 
ATOM     13  C   UNL     1       9.617   5.092   1.457  0.00  0.00    +0.000 A 
ATOM     14  N   UNL     1      10.960   5.071   1.730  0.00  0.00    +0.000 NA
ATOM     15  C   UNL     1      11.062   5.379   3.001  0.00  0.00    +0.000 A 
ATOM     16  N   UNL     1       9.841   5.612   3.557  0.00  0.00    +0.000 N 
ATOM     17  H   UNL     1       9.640   5.847   4.520  0.00  0.00    +0.000 HD
ENDBRANCH  11  12
ENDBRANCH   9  11
ENDBRANCH   8   9
ENDBRANCH   5   8
ENDBRANCH   1   2
BRANCH   1  20
ATOM     18  O   UNL     1       1.218   3.130  -0.675  0.00  0.00    +0.000 OA
ATOM     19  C   UNL     1       2.094   2.278  -0.801  0.00  0.00    +0.000 C 
ATOM     20  N   UNL     1       2.603   1.589   0.268  0.00  0.00    +0.000 N 
ATOM     21  H   UNL     1       3.432   1.017   0.142  0.00  0.00    +0.000 HD
BRANCH  19  22
ATOM     22  C   UNL     1       2.614   1.907  -2.123  0.00  0.00    +0.000 A 
ATOM     23  C   UNL     1       1.852   2.159  -3.256  0.00  0.00    +0.000 A 
ATOM     24  S   UNL     1       2.599   1.663  -4.707  0.00  0.00    +0.000 S 
ATOM     25  C   UNL     1       3.985   1.132  -3.875  0.00  0.00    +0.000 A 
ATOM     26  N   UNL     1       5.051   0.621  -4.548  0.00  0.00    +0.000 NA
ATOM     27  C   UNL     1       6.052   0.301  -3.798  0.00  0.00    +0.000 A 
ATOM     28  N   UNL     1       6.077   0.426  -2.433  0.00  0.00    +0.000 N 
ATOM     29  C   UNL     1       4.993   0.860  -1.705  0.00  0.00    +0.000 A 
ATOM     30  O   UNL     1       4.994   0.826  -0.479  0.00  0.00    +0.000 OA
ATOM     31  C   UNL     1       3.865   1.295  -2.507  0.00  0.00    +0.000 A 
ATOM     32  H   UNL     1       6.880   0.123  -1.903  0.00  0.00    +0.000 HD
ENDBRANCH  19  22
ENDBRANCH   1  20
TORSDOF 7
