REMARK  Name = 
REMARK  5 active torsions:
REMARK  status: ('A' for Active; 'I' for Inactive)
REMARK    1  A    between atoms: C_2  and  C_4
REMARK    2  A    between atoms: C_7  and  C_8
REMARK    3  A    between atoms: C_8  and  C_9
REMARK    4  A    between atoms: C_9  and  N_10
REMARK    5  A    between atoms: C_13  and  O_14
REMARK                            x       y       z     vdW  Elec       q    Type
REMARK                         _______ _______ _______ _____ _____    ______ ____
ROOT
ATOM      1  C   UNL     1       5.472   3.635  -2.643  0.00  0.00    +0.000 C 
ENDROOT
BRANCH   1   5
ATOM      2  C   UNL     1       2.513   6.257  -4.060  0.00  0.00    +0.000 A 
ATOM      3  N   UNL     1       2.757   5.152  -4.807  0.00  0.00    +0.000 NA
ATOM      4  C   UNL     1       3.747   4.353  -4.357  0.00  0.00    +0.000 A 
ATOM      5  C   UNL     1       4.481   4.603  -3.213  0.00  0.00    +0.000 A 
ATOM      6  C   UNL     1       4.152   5.774  -2.553  0.00  0.00    +0.000 A 
ATOM      7  N   UNL     1       3.182   6.618  -2.951  0.00  0.00    +0.000 NA
BRANCH   2   9
ATOM      8  N   UNL     1       0.634   6.667  -5.575  0.00  0.00    +0.000 N 
ATOM      9  C   UNL     1       1.339   7.115  -4.480  0.00  0.00    +0.000 C 
ATOM     10  O   UNL     1       0.993   8.136  -3.898  0.00  0.00    +0.000 OA
ATOM     11  H   UNL     1      -0.185   7.178  -5.869  0.00  0.00    +0.000 HD
ATOM     12  H   UNL     1       0.901   5.805  -6.034  0.00  0.00    +0.000 HD
ENDBRANCH   2   9
ENDBRANCH   1   5
BRANCH   1  13
ATOM     13  C   UNL     1       6.715   3.407  -3.500  0.00  0.00    +0.000 C 
ATOM     14  C   UNL     1       6.688   2.265  -4.501  0.00  0.00    +0.000 C 
ATOM     15  C   UNL     1       7.451   2.100  -3.228  0.00  0.00    +0.000 C 
BRANCH  13  16
ATOM     16  N   UNL     1       7.640   4.533  -3.751  0.00  0.00    +0.000 NA
ATOM     17  C   UNL     1       8.012   5.362  -2.609  0.00  0.00    +0.000 C 
ATOM     18  C   UNL     1       9.375   5.998  -2.876  0.00  0.00    +0.000 C 
ATOM     19  C   UNL     1       9.397   6.764  -4.197  0.00  0.00    +0.000 C 
ATOM     20  C   UNL     1       8.821   5.938  -5.348  0.00  0.00    +0.000 C 
ATOM     21  C   UNL     1       7.480   5.289  -4.987  0.00  0.00    +0.000 C 
BRANCH  19  22
ATOM     22  O   UNL     1       8.688   7.995  -4.065  0.00  0.00    +0.000 OA
ATOM     23  H   UNL     1       7.745   7.803  -3.929  0.00  0.00    +0.000 HD
ENDBRANCH  19  22
ENDBRANCH  13  16
ENDBRANCH   1  13
TORSDOF 5
