REMARK  Name = 
REMARK  9 active torsions:
REMARK  status: ('A' for Active; 'I' for Inactive)
REMARK    1  A    between atoms: C_1  and  N_2
REMARK    2  A    between atoms: N_5  and  C_6
REMARK    3  A    between atoms: C_10  and  C_11
REMARK    4  A    between atoms: C_11  and  C_12
REMARK    5  A    between atoms: C_11  and  C_13
REMARK    6  A    between atoms: C_11  and  C_14
REMARK    7  A    between atoms: C_14  and  N_15
REMARK    8  A    between atoms: N_15  and  C_16
REMARK    9  A    between atoms: C_19  and  C_20
REMARK                            x       y       z     vdW  Elec       q    Type
REMARK                         _______ _______ _______ _____ _____    ______ ____
ROOT
ATOM      1  C   UNL     1      -6.419   1.743   0.494  0.00  0.00    +0.000 C 
ATOM      2  C   UNL     1      -5.789   3.150   0.351  0.00  0.00    +0.000 C 
ATOM      3  C   UNL     1      -6.928   1.294  -0.895  0.00  0.00    +0.000 C 
ENDROOT
BRANCH   1   8
ATOM      4  C   UNL     1      -4.605  -0.981   2.600  0.00  0.00    +0.000 A 
ATOM      5  C   UNL     1      -3.461  -1.170   1.819  0.00  0.00    +0.000 A 
ATOM      6  C   UNL     1      -3.232  -0.415   0.666  0.00  0.00    +0.000 A 
ATOM      7  C   UNL     1      -4.167   0.531   0.249  0.00  0.00    +0.000 A 
ATOM      8  C   UNL     1      -5.338   0.758   0.989  0.00  0.00    +0.000 A 
ATOM      9  C   UNL     1      -5.496   0.016   2.175  0.00  0.00    +0.000 A 
BRANCH   4  14
ATOM     10  C   UNL     1      -7.350  -4.463   5.906  0.00  0.00    +0.000 C 
ATOM     11  N   UNL     1      -6.251  -3.585   5.516  0.00  0.00    +0.000 NA
ATOM     12  C   UNL     1      -5.612  -4.059   4.269  0.00  0.00    +0.000 C 
ATOM     13  C   UNL     1      -4.442  -3.152   3.811  0.00  0.00    +0.000 C 
ATOM     14  N   UNL     1      -4.895  -1.760   3.699  0.00  0.00    +0.000 N 
ATOM     15  C   UNL     1      -5.589  -1.244   4.893  0.00  0.00    +0.000 C 
ATOM     16  C   UNL     1      -6.730  -2.199   5.314  0.00  0.00    +0.000 C 
ENDBRANCH   4  14
ENDBRANCH   1   8
BRANCH   1  17
ATOM     17  C   UNL     1      -7.656   1.905   1.453  0.00  0.00    +0.000 C 
BRANCH  17  18
ATOM     18  N   UNL     1      -8.477   0.689   1.547  0.00  0.00    +0.000 N 
ATOM     19  H   UNL     1      -8.005  -0.165   1.258  0.00  0.00    +0.000 HD
BRANCH  18  20
ATOM     20  C   UNL     1      -9.383   0.510   2.591  0.00  0.00    +0.000 A 
ATOM     21  C   UNL     1      -9.920   1.568   3.331  0.00  0.00    +0.000 A 
ATOM     22  C   UNL     1     -10.927   1.354   4.281  0.00  0.00    +0.000 A 
ATOM     23  C   UNL     1     -11.433   0.069   4.496  0.00  0.00    +0.000 A 
ATOM     24  C   UNL     1     -10.897  -1.003   3.785  0.00  0.00    +0.000 A 
ATOM     25  C   UNL     1      -9.889  -0.777   2.837  0.00  0.00    +0.000 A 
BRANCH  23  26
ATOM     26  C   UNL     1     -12.531  -0.098   5.488  0.00  0.00    +0.000 C 
ATOM     27  N   UNL     1     -13.357  -1.178   5.338  0.00  0.00    +0.000 N 
ATOM     28  O   UNL     1     -12.720   0.716   6.379  0.00  0.00    +0.000 OA
ATOM     29  H   UNL     1     -13.400  -1.715   4.484  0.00  0.00    +0.000 HD
ATOM     30  H   UNL     1     -14.168  -1.203   5.944  0.00  0.00    +0.000 HD
ENDBRANCH  23  26
ENDBRANCH  18  20
ENDBRANCH  17  18
ENDBRANCH   1  17
TORSDOF 6
