REMARK  Name = 
REMARK  7 active torsions:
REMARK  status: ('A' for Active; 'I' for Inactive)
REMARK    1  A    between atoms: C_1  and  C_2
REMARK    2  A    between atoms: C_2  and  N_3
REMARK    3  A    between atoms: C_2  and  C_16
REMARK    4  A    between atoms: C_4  and  C_6
REMARK    5  A    between atoms: C_19  and  C_20
REMARK    6  A    between atoms: C_20  and  N_21
REMARK    7  A    between atoms: C_22  and  C_24
REMARK                            x       y       z     vdW  Elec       q    Type
REMARK                         _______ _______ _______ _____ _____    ______ ____
ROOT
ATOM      1  C   UNL     1       3.766  -0.791  -0.427  0.00  0.00    +0.000 C 
ATOM      2  C   UNL     1       2.539   0.039  -0.031  0.00  0.00    +0.000 C 
ENDROOT
BRANCH   2   3
ATOM      3  C   UNL     1       2.900   1.028   1.071  0.00  0.00    +0.000 A 
ATOM      4  C   UNL     1       2.823   2.409   0.850  0.00  0.00    +0.000 A 
ATOM      5  C   UNL     1       3.106   3.313   1.881  0.00  0.00    +0.000 A 
ATOM      6  C   UNL     1       3.476   2.855   3.153  0.00  0.00    +0.000 A 
ATOM      7  C   UNL     1       3.558   1.477   3.376  0.00  0.00    +0.000 A 
ATOM      8  C   UNL     1       3.278   0.575   2.347  0.00  0.00    +0.000 A 
BRANCH   6   9
ATOM      9  C   UNL     1       3.755   3.823   4.274  0.00  0.00    +0.000 C 
BRANCH   9  10
ATOM     10  N   UNL     1       2.560   4.093   5.042  0.00  0.00    +0.000 N 
ATOM     11  C   UNL     1       2.604   4.907   6.154  0.00  0.00    +0.000 C 
ATOM     12  O   UNL     1       3.633   5.461   6.526  0.00  0.00    +0.000 OA
ATOM     13  H   UNL     1       1.681   3.731   4.699  0.00  0.00    +0.000 HD
BRANCH  11  14
ATOM     14  C   UNL     1       1.262   5.080   6.853  0.00  0.00    +0.000 C 
ATOM     15  C   UNL     1       1.324   6.017   8.042  0.00  0.00    +0.000 C 
ATOM     16  C   UNL     1       1.743   5.099   9.169  0.00  0.00    +0.000 C 
ATOM     17  O   UNL     1       1.168   3.818   8.882  0.00  0.00    +0.000 OA
ATOM     18  C   UNL     1       0.806   3.781   7.493  0.00  0.00    +0.000 C 
ENDBRANCH  11  14
ENDBRANCH   9  10
ENDBRANCH   6   9
ENDBRANCH   2   3
BRANCH   2  19
ATOM     19  N   UNL     1       1.425  -0.780   0.428  0.00  0.00    +0.000 N 
ATOM     20  C   UNL     1       0.812  -1.738  -0.336  0.00  0.00    +0.000 C 
ATOM     21  O   UNL     1       1.188  -2.031  -1.467  0.00  0.00    +0.000 OA
ATOM     22  H   UNL     1       0.890  -0.385   1.195  0.00  0.00    +0.000 HD
BRANCH  20  23
ATOM     23  C   UNL     1      -0.289  -2.464   0.312  0.00  0.00    +0.000 A 
ATOM     24  C   UNL     1      -0.565  -3.771  -0.062  0.00  0.00    +0.000 A 
ATOM     25  S   UNL     1      -1.846  -4.476   0.816  0.00  0.00    +0.000 S 
ATOM     26  C   UNL     1      -2.108  -3.040   1.691  0.00  0.00    +0.000 A 
ATOM     27  N   UNL     1      -3.106  -2.953   2.612  0.00  0.00    +0.000 NA
ATOM     28  C   UNL     1      -3.216  -1.795   3.172  0.00  0.00    +0.000 A 
ATOM     29  N   UNL     1      -2.412  -0.718   2.902  0.00  0.00    +0.000 N 
ATOM     30  C   UNL     1      -1.364  -0.772   2.014  0.00  0.00    +0.000 A 
ATOM     31  O   UNL     1      -0.618   0.187   1.846  0.00  0.00    +0.000 OA
ATOM     32  C   UNL     1      -1.215  -2.045   1.336  0.00  0.00    +0.000 A 
ATOM     33  H   UNL     1      -2.542   0.157   3.387  0.00  0.00    +0.000 HD
ENDBRANCH  20  23
ENDBRANCH   2  19
TORSDOF 6
