REMARK  Name = 
REMARK  6 active torsions:
REMARK  status: ('A' for Active; 'I' for Inactive)
REMARK    1  A    between atoms: C_1  and  C_2
REMARK    2  A    between atoms: C_2  and  N_3
REMARK    3  A    between atoms: C_2  and  C_16
REMARK    4  A    between atoms: C_4  and  C_6
REMARK    5  A    between atoms: C_19  and  O_20
REMARK    6  A    between atoms: O_20  and  C_21
REMARK                            x       y       z     vdW  Elec       q    Type
REMARK                         _______ _______ _______ _____ _____    ______ ____
ROOT
ATOM      1  C   UNL     1       0.782   0.016  -0.081  0.00  0.00    +0.000 C 
ATOM      2  C   UNL     1       2.308  -0.064   0.061  0.00  0.00    +0.000 C 
ENDROOT
BRANCH   2   3
ATOM      3  C   UNL     1       2.831  -1.255  -0.727  0.00  0.00    +0.000 A 
ATOM      4  C   UNL     1       3.712  -1.055  -1.798  0.00  0.00    +0.000 A 
ATOM      5  C   UNL     1       4.151  -2.133  -2.570  0.00  0.00    +0.000 A 
ATOM      6  C   UNL     1       3.752  -3.435  -2.257  0.00  0.00    +0.000 A 
ATOM      7  C   UNL     1       2.873  -3.646  -1.195  0.00  0.00    +0.000 A 
ATOM      8  C   UNL     1       2.423  -2.567  -0.430  0.00  0.00    +0.000 A 
BRANCH   6   9
ATOM      9  O   UNL     1       4.097  -4.547  -2.992  0.00  0.00    +0.000 OA
BRANCH   9  10
ATOM     10  C   UNL     1       5.368  -4.611  -3.548  0.00  0.00    +0.000 A 
ATOM     11  C   UNL     1       5.514  -5.419  -4.666  0.00  0.00    +0.000 A 
ATOM     12  C   UNL     1       6.770  -5.504  -5.259  0.00  0.00    +0.000 A 
ATOM     13  C   UNL     1       7.833  -4.791  -4.712  0.00  0.00    +0.000 A 
ATOM     14  C   UNL     1       7.597  -4.034  -3.577  0.00  0.00    +0.000 A 
ATOM     15  N   UNL     1       6.393  -3.941  -2.975  0.00  0.00    +0.000 NA
ENDBRANCH   9  10
ENDBRANCH   6   9
ENDBRANCH   2   3
BRANCH   2  16
ATOM     16  N   UNL     1       2.744  -0.151   1.445  0.00  0.00    +0.000 N 
ATOM     17  C   UNL     1       2.485   0.845   2.356  0.00  0.00    +0.000 C 
ATOM     18  O   UNL     1       1.814   1.836   2.082  0.00  0.00    +0.000 OA
ATOM     19  H   UNL     1       3.542  -0.755   1.623  0.00  0.00    +0.000 HD
BRANCH  17  20
ATOM     20  C   UNL     1       2.992   0.637   3.717  0.00  0.00    +0.000 A 
ATOM     21  C   UNL     1       2.312   1.194   4.792  0.00  0.00    +0.000 A 
ATOM     22  S   UNL     1       3.028   0.854   6.302  0.00  0.00    +0.000 S 
ATOM     23  C   UNL     1       4.296  -0.010   5.566  0.00  0.00    +0.000 A 
ATOM     24  N   UNL     1       5.301  -0.546   6.308  0.00  0.00    +0.000 NA
ATOM     25  C   UNL     1       6.214  -1.142   5.615  0.00  0.00    +0.000 A 
ATOM     26  N   UNL     1       6.206  -1.261   4.249  0.00  0.00    +0.000 N 
ATOM     27  C   UNL     1       5.190  -0.771   3.462  0.00  0.00    +0.000 A 
ATOM     28  O   UNL     1       5.173  -0.944   2.249  0.00  0.00    +0.000 OA
ATOM     29  C   UNL     1       4.156  -0.067   4.191  0.00  0.00    +0.000 A 
ATOM     30  H   UNL     1       6.943  -1.756   3.768  0.00  0.00    +0.000 HD
ENDBRANCH  17  20
ENDBRANCH   2  16
TORSDOF 5
