REMARK  Name = 
REMARK  10 active torsions:
REMARK  status: ('A' for Active; 'I' for Inactive)
REMARK    1  A    between atoms: C_1  and  O_2
REMARK    2  A    between atoms: O_2  and  C_3
REMARK    3  A    between atoms: C_10  and  C_11
REMARK    4  A    between atoms: N_13  and  C_14
REMARK    5  A    between atoms: C_14  and  C_15
REMARK    6  A    between atoms: C_18  and  N_19
REMARK    7  A    between atoms: N_19  and  C_20
REMARK    8  A    between atoms: C_20  and  C_21
REMARK    9  A    between atoms: C_20  and  C_22
REMARK   10  A    between atoms: C_20  and  C_23
REMARK                            x       y       z     vdW  Elec       q    Type
REMARK                         _______ _______ _______ _____ _____    ______ ____
ROOT
ATOM      1  C   UNL     1       1.499   2.844  -1.612  0.00  0.00    +0.000 A 
ATOM      2  C   UNL     1       1.427   1.512  -2.019  0.00  0.00    +0.000 A 
ATOM      3  C   UNL     1       0.265   1.010  -2.616  0.00  0.00    +0.000 A 
ATOM      4  C   UNL     1      -0.861   1.809  -2.823  0.00  0.00    +0.000 A 
ATOM      5  C   UNL     1      -0.728   3.175  -2.542  0.00  0.00    +0.000 A 
ATOM      6  C   UNL     1       0.430   3.688  -1.933  0.00  0.00    +0.000 A 
ENDROOT
BRANCH   4   7
ATOM      7  N   UNL     1      -2.092   1.336  -3.262  0.00  0.00    +0.000 N 
ATOM      8  H   UNL     1      -2.359   1.696  -4.176  0.00  0.00    +0.000 HD
BRANCH   7   9
ATOM      9  C   UNL     1      -2.658  -0.010  -2.969  0.00  0.00    +0.000 C 
ATOM     10  C   UNL     1      -2.120  -1.039  -3.982  0.00  0.00    +0.000 C 
ATOM     11  C   UNL     1      -2.379  -0.433  -1.512  0.00  0.00    +0.000 C 
BRANCH   9  12
ATOM     12  C   UNL     1      -4.207   0.019  -3.097  0.00  0.00    +0.000 A 
ATOM     13  C   UNL     1      -4.939   1.172  -2.803  0.00  0.00    +0.000 A 
ATOM     14  C   UNL     1      -6.332   1.132  -2.858  0.00  0.00    +0.000 A 
ATOM     15  C   UNL     1      -6.972  -0.057  -3.188  0.00  0.00    +0.000 A 
ATOM     16  C   UNL     1      -6.186  -1.162  -3.450  0.00  0.00    +0.000 A 
ATOM     17  N   UNL     1      -4.835  -1.149  -3.411  0.00  0.00    +0.000 NA
ENDBRANCH   9  12
ENDBRANCH   7   9
ENDBRANCH   4   7
BRANCH   1  18
ATOM     18  C   UNL     1       2.686   3.329  -0.825  0.00  0.00    +0.000 C 
BRANCH  18  21
ATOM     19  C   UNL     1       4.950   4.222  -1.179  0.00  0.00    +0.000 C 
ATOM     20  O   UNL     1       5.192   4.173   0.025  0.00  0.00    +0.000 OA
ATOM     21  N   UNL     1       3.737   3.827  -1.676  0.00  0.00    +0.000 N 
ATOM     22  H   UNL     1       3.539   3.908  -2.664  0.00  0.00    +0.000 HD
BRANCH  19  30
ATOM     23  C   UNL     1       4.986   4.516  -4.602  0.00  0.00    +0.000 A 
ATOM     24  N   UNL     1       5.250   4.760  -5.900  0.00  0.00    +0.000 NA
ATOM     25  C   UNL     1       6.433   5.296  -6.209  0.00  0.00    +0.000 A 
ATOM     26  N   UNL     1       7.410   5.627  -5.366  0.00  0.00    +0.000 NA
ATOM     27  C   UNL     1       7.101   5.378  -4.082  0.00  0.00    +0.000 A 
ATOM     28  S   UNL     1       8.228   5.733  -2.863  0.00  0.00    +0.000 S 
ATOM     29  C   UNL     1       7.169   5.182  -1.654  0.00  0.00    +0.000 A 
ATOM     30  C   UNL     1       5.949   4.724  -2.139  0.00  0.00    +0.000 A 
ATOM     31  C   UNL     1       5.916   4.836  -3.596  0.00  0.00    +0.000 A 
BRANCH  23  33
ATOM     32  C   UNL     1       3.130   3.281  -5.336  0.00  0.00    +0.000 C 
ATOM     33  O   UNL     1       3.759   3.987  -4.271  0.00  0.00    +0.000 OA
ENDBRANCH  23  33
ENDBRANCH  19  30
ENDBRANCH  18  21
ENDBRANCH   1  18
TORSDOF 7
