REMARK  Name = 
REMARK  5 active torsions:
REMARK  status: ('A' for Active; 'I' for Inactive)
REMARK    1  A    between atoms: C_2  and  C_4
REMARK    2  A    between atoms: C_7  and  N_8
REMARK    3  A    between atoms: N_8  and  C_9
REMARK    4  A    between atoms: C_9  and  C_10
REMARK    5  A    between atoms: C_14  and  C_15
REMARK                            x       y       z     vdW  Elec       q    Type
REMARK                         _______ _______ _______ _____ _____    ______ ____
ROOT
ATOM      1  C   UNL     1       4.916   3.171   5.161  0.00  0.00    +0.000 C 
ENDROOT
BRANCH   1   2
ATOM      2  C   UNL     1       5.860   4.109   5.857  0.00  0.00    +0.000 A 
ATOM      3  C   UNL     1       5.448   5.360   6.285  0.00  0.00    +0.000 A 
ATOM      4  N   UNL     1       6.248   6.226   6.939  0.00  0.00    +0.000 NA
ATOM      5  C   UNL     1       7.520   5.820   7.181  0.00  0.00    +0.000 A 
ATOM      6  C   UNL     1       8.058   4.578   6.829  0.00  0.00    +0.000 A 
ATOM      7  C   UNL     1       7.176   3.720   6.157  0.00  0.00    +0.000 A 
BRANCH   6   8
ATOM      8  C   UNL     1       9.454   4.197   7.139  0.00  0.00    +0.000 A 
ATOM      9  C   UNL     1      10.179   3.321   6.316  0.00  0.00    +0.000 A 
ATOM     10  C   UNL     1      11.490   2.996   6.642  0.00  0.00    +0.000 A 
ATOM     11  N   UNL     1      12.137   3.480   7.718  0.00  0.00    +0.000 NA
ATOM     12  C   UNL     1      11.436   4.318   8.502  0.00  0.00    +0.000 A 
ATOM     13  F   UNL     1      12.055   4.820   9.581  0.00  0.00    +0.000 F 
ATOM     14  C   UNL     1      10.123   4.695   8.265  0.00  0.00    +0.000 A 
ENDBRANCH   6   8
ENDBRANCH   1   2
BRANCH   1  15
ATOM     15  N   UNL     1       5.480   2.762   3.884  0.00  0.00    +0.000 N 
ATOM     16  H   UNL     1       5.643   3.525   3.232  0.00  0.00    +0.000 HD
BRANCH  15  20
ATOM     17  C   UNL     1       4.768  -0.999   2.124  0.00  0.00    +0.000 A 
ATOM     18  C   UNL     1       4.112  -0.656   3.306  0.00  0.00    +0.000 A 
ATOM     19  C   UNL     1       4.302   0.607   3.870  0.00  0.00    +0.000 A 
ATOM     20  C   UNL     1       5.135   1.561   3.275  0.00  0.00    +0.000 A 
ATOM     21  C   UNL     1       5.782   1.202   2.083  0.00  0.00    +0.000 A 
ATOM     22  C   UNL     1       5.604  -0.065   1.513  0.00  0.00    +0.000 A 
BRANCH  17  24
ATOM     23  N   UNL     1       3.495  -3.050   1.814  0.00  0.00    +0.000 N 
ATOM     24  C   UNL     1       4.642  -2.359   1.540  0.00  0.00    +0.000 C 
ATOM     25  O   UNL     1       5.517  -2.836   0.831  0.00  0.00    +0.000 OA
ATOM     26  H   UNL     1       3.388  -3.947   1.357  0.00  0.00    +0.000 HD
ATOM     27  H   UNL     1       2.668  -2.612   2.191  0.00  0.00    +0.000 HD
ENDBRANCH  17  24
ENDBRANCH  15  20
ENDBRANCH   1  15
TORSDOF 5
