REMARK  Name = 
REMARK  5 active torsions:
REMARK  status: ('A' for Active; 'I' for Inactive)
REMARK    1  A    between atoms: C_2  and  C_4
REMARK    2  A    between atoms: N_8  and  C_9
REMARK    3  A    between atoms: C_9  and  C_10
REMARK    4  A    between atoms: C_10  and  C_13
REMARK    5  A    between atoms: C_17  and  N_18
REMARK                            x       y       z     vdW  Elec       q    Type
REMARK                         _______ _______ _______ _____ _____    ______ ____
ROOT
ATOM      1  C   UNL     1       6.611  -5.755   3.458  0.00  0.00    +0.000 C 
ATOM      2  F   UNL     1       5.457  -5.024   3.486  0.00  0.00    +0.000 F 
ATOM      3  F   UNL     1       7.249  -5.382   2.309  0.00  0.00    +0.000 F 
ENDROOT
BRANCH   1   4
ATOM      4  C   UNL     1       6.347  -7.247   3.512  0.00  0.00    +0.000 A 
ATOM      5  C   UNL     1       7.198  -8.148   2.866  0.00  0.00    +0.000 A 
ATOM      6  C   UNL     1       6.984  -9.517   2.996  0.00  0.00    +0.000 A 
ATOM      7  C   UNL     1       5.929  -9.989   3.785  0.00  0.00    +0.000 A 
ATOM      8  C   UNL     1       5.055  -9.121   4.456  0.00  0.00    +0.000 A 
ATOM      9  C   UNL     1       5.282  -7.746   4.285  0.00  0.00    +0.000 A 
BRANCH   8  10
ATOM     10  N   UNL     1       4.044  -9.593   5.261  0.00  0.00    +0.000 N 
ATOM     11  C   UNL     1       2.773  -8.882   5.471  0.00  0.00    +0.000 C 
ATOM     12  C   UNL     1       2.542  -8.670   6.974  0.00  0.00    +0.000 C 
ATOM     13  O   UNL     1       2.584  -9.916   7.692  0.00  0.00    +0.000 OA
ATOM     14  C   UNL     1       3.860 -10.553   7.515  0.00  0.00    +0.000 C 
ATOM     15  C   UNL     1       4.161 -10.841   6.032  0.00  0.00    +0.000 C 
ENDBRANCH   8  10
ENDBRANCH   1   4
BRANCH   1  16
ATOM     16  C   UNL     1       7.485  -5.346   4.671  0.00  0.00    +0.000 C 
BRANCH  16  21
ATOM     17  C   UNL     1      10.264  -2.063   7.483  0.00  0.00    +0.000 A 
ATOM     18  C   UNL     1       9.987  -3.413   7.659  0.00  0.00    +0.000 A 
ATOM     19  C   UNL     1       9.182  -4.066   6.725  0.00  0.00    +0.000 A 
ATOM     20  C   UNL     1       8.657  -3.363   5.643  0.00  0.00    +0.000 A 
ATOM     21  N   UNL     1       7.849  -3.936   4.700  0.00  0.00    +0.000 N 
ATOM     22  N   UNL     1       8.917  -2.053   5.470  0.00  0.00    +0.000 NA
ATOM     23  C   UNL     1       9.704  -1.429   6.386  0.00  0.00    +0.000 A 
ATOM     24  H   UNL     1       7.506  -3.303   3.985  0.00  0.00    +0.000 HD
BRANCH  17  26
ATOM     25  N   UNL     1      12.025  -1.971   9.155  0.00  0.00    +0.000 N 
ATOM     26  C   UNL     1      11.089  -1.287   8.429  0.00  0.00    +0.000 C 
ATOM     27  O   UNL     1      10.962  -0.074   8.543  0.00  0.00    +0.000 OA
ATOM     28  H   UNL     1      12.644  -1.411   9.728  0.00  0.00    +0.000 HD
ATOM     29  H   UNL     1      12.330  -2.902   8.910  0.00  0.00    +0.000 HD
ENDBRANCH  17  26
ENDBRANCH  16  21
ENDBRANCH   1  16
TORSDOF 5
