REMARK  Name = 
REMARK  5 active torsions:
REMARK  status: ('A' for Active; 'I' for Inactive)
REMARK    1  A    between atoms: C_2  and  C_3
REMARK    2  A    between atoms: C_7  and  C_8
REMARK    3  A    between atoms: C_12  and  C_13
REMARK    4  A    between atoms: C_13  and  N_14
REMARK    5  A    between atoms: C_18  and  C_19
REMARK                            x       y       z     vdW  Elec       q    Type
REMARK                         _______ _______ _______ _____ _____    ______ ____
ROOT
ATOM      1  C   UNL     1       2.143   5.808   1.695  0.00  0.00    +0.000 C 
ATOM      2  C   UNL     1       1.319   6.951   1.097  0.00  0.00    +0.000 C 
ATOM      3  C   UNL     1       2.659   7.234   1.678  0.00  0.00    +0.000 C 
ENDROOT
BRANCH   1   4
ATOM      4  N   UNL     1       1.650   5.202   2.945  0.00  0.00    +0.000 N 
ATOM      5  C   UNL     1       2.458   4.903   4.049  0.00  0.00    +0.000 A 
ATOM      6  C   UNL     1       3.540   5.686   4.439  0.00  0.00    +0.000 A 
ATOM      7  C   UNL     1       4.217   5.402   5.627  0.00  0.00    +0.000 A 
ATOM      8  C   UNL     1       3.804   4.324   6.400  0.00  0.00    +0.000 A 
ATOM      9  C   UNL     1       2.748   3.562   5.926  0.00  0.00    +0.000 A 
ATOM     10  N   UNL     1       2.065   3.840   4.783  0.00  0.00    +0.000 NA
ATOM     11  H   UNL     1       1.015   4.411   2.848  0.00  0.00    +0.000 HD
BRANCH   8  12
ATOM     12  C   UNL     1       4.443   3.958   7.682  0.00  0.00    +0.000 C 
ATOM     13  N   UNL     1       5.071   4.956   8.378  0.00  0.00    +0.000 N 
ATOM     14  O   UNL     1       4.382   2.821   8.123  0.00  0.00    +0.000 OA
ATOM     15  H   UNL     1       4.937   5.936   8.175  0.00  0.00    +0.000 HD
ATOM     16  H   UNL     1       5.415   4.713   9.299  0.00  0.00    +0.000 HD
ENDBRANCH   8  12
ENDBRANCH   1   4
BRANCH   1  21
ATOM     17  C   UNL     1       2.009   3.221  -1.175  0.00  0.00    +0.000 A 
ATOM     18  C   UNL     1       3.364   2.867  -1.263  0.00  0.00    +0.000 A 
ATOM     19  C   UNL     1       4.322   3.446  -0.423  0.00  0.00    +0.000 A 
ATOM     20  C   UNL     1       3.946   4.391   0.532  0.00  0.00    +0.000 A 
ATOM     21  C   UNL     1       2.610   4.780   0.667  0.00  0.00    +0.000 A 
ATOM     22  C   UNL     1       1.668   4.170  -0.194  0.00  0.00    +0.000 A 
BRANCH  17  27
ATOM     23  C   UNL     1       0.295   1.806  -4.276  0.00  0.00    +0.000 A 
ATOM     24  C   UNL     1      -1.006   1.602  -3.814  0.00  0.00    +0.000 A 
ATOM     25  C   UNL     1      -1.324   1.913  -2.496  0.00  0.00    +0.000 A 
ATOM     26  C   UNL     1      -0.342   2.421  -1.640  0.00  0.00    +0.000 A 
ATOM     27  C   UNL     1       0.979   2.647  -2.077  0.00  0.00    +0.000 A 
ATOM     28  C   UNL     1       1.272   2.329  -3.416  0.00  0.00    +0.000 A 
BRANCH  23  30
ATOM     29  N   UNL     1       0.905   1.229  -6.731  0.00  0.00    +0.000 NA
ATOM     30  C   UNL     1       0.631   1.488  -5.633  0.00  0.00    +0.000 C 
ENDBRANCH  23  30
ENDBRANCH  17  27
ENDBRANCH   1  21
TORSDOF 5
