REMARK  Name = 
REMARK  9 active torsions:
REMARK  status: ('A' for Active; 'I' for Inactive)
REMARK    1  A    between atoms: C_1  and  C_2
REMARK    2  A    between atoms: C_2  and  O_3
REMARK    3  A    between atoms: O_3  and  C_4
REMARK    4  A    between atoms: C_4  and  N_5
REMARK    5  A    between atoms: C_4  and  C_18
REMARK    6  A    between atoms: C_6  and  C_8
REMARK    7  A    between atoms: C_21  and  C_22
REMARK    8  A    between atoms: C_22  and  N_23
REMARK    9  A    between atoms: C_24  and  C_26
REMARK                            x       y       z     vdW  Elec       q    Type
REMARK                         _______ _______ _______ _____ _____    ______ ____
ROOT
ATOM      1  C   UNL     1       4.356  -0.856  -1.035  0.00  0.00    +0.000 C 
ENDROOT
BRANCH   1   2
ATOM      2  C   UNL     1       4.936  -1.854  -2.026  0.00  0.00    +0.000 A 
ATOM      3  C   UNL     1       5.728  -1.413  -3.096  0.00  0.00    +0.000 A 
ATOM      4  C   UNL     1       6.126  -2.304  -4.098  0.00  0.00    +0.000 A 
ATOM      5  C   UNL     1       5.745  -3.653  -4.050  0.00  0.00    +0.000 A 
ATOM      6  C   UNL     1       5.006  -4.107  -2.952  0.00  0.00    +0.000 A 
ATOM      7  C   UNL     1       4.596  -3.214  -1.960  0.00  0.00    +0.000 A 
BRANCH   5   8
ATOM      8  C   UNL     1       6.092  -4.597  -5.170  0.00  0.00    +0.000 C 
BRANCH   8   9
ATOM      9  N   UNL     1       7.369  -5.234  -4.976  0.00  0.00    +0.000 N 
ATOM     10  C   UNL     1       7.799  -6.204  -5.851  0.00  0.00    +0.000 C 
ATOM     11  O   UNL     1       7.125  -6.578  -6.801  0.00  0.00    +0.000 OA
ATOM     12  H   UNL     1       7.978  -4.890  -4.249  0.00  0.00    +0.000 HD
BRANCH  10  13
ATOM     13  C   UNL     1       9.098  -6.757  -5.573  0.00  0.00    +0.000 A 
ATOM     14  C   UNL     1      10.029  -6.546  -4.574  0.00  0.00    +0.000 A 
ATOM     15  C   UNL     1      11.096  -7.415  -4.874  0.00  0.00    +0.000 A 
ATOM     16  N   UNL     1      10.871  -8.132  -5.976  0.00  0.00    +0.000 NA
ATOM     17  N   UNL     1       9.657  -7.718  -6.378  0.00  0.00    +0.000 N 
ATOM     18  H   UNL     1       9.251  -8.125  -7.214  0.00  0.00    +0.000 HD
ENDBRANCH  10  13
ENDBRANCH   8   9
ENDBRANCH   5   8
ENDBRANCH   1   2
BRANCH   1  19
ATOM     19  N   UNL     1       4.772  -1.152   0.303  0.00  0.00    +0.000 N 
ATOM     20  C   UNL     1       5.909  -0.633   0.856  0.00  0.00    +0.000 C 
ATOM     21  O   UNL     1       6.571   0.243   0.305  0.00  0.00    +0.000 OA
ATOM     22  H   UNL     1       4.325  -1.958   0.716  0.00  0.00    +0.000 HD
BRANCH  20  23
ATOM     23  C   UNL     1       6.288  -1.158   2.176  0.00  0.00    +0.000 A 
ATOM     24  C   UNL     1       7.022  -0.377   3.060  0.00  0.00    +0.000 A 
ATOM     25  S   UNL     1       7.419  -1.180   4.513  0.00  0.00    +0.000 S 
ATOM     26  C   UNL     1       6.664  -2.614   3.993  0.00  0.00    +0.000 A 
ATOM     27  N   UNL     1       6.699  -3.744   4.751  0.00  0.00    +0.000 NA
ATOM     28  C   UNL     1       6.120  -4.765   4.213  0.00  0.00    +0.000 A 
ATOM     29  N   UNL     1       5.487  -4.753   2.998  0.00  0.00    +0.000 N 
ATOM     30  C   UNL     1       5.348  -3.613   2.246  0.00  0.00    +0.000 A 
ATOM     31  O   UNL     1       4.634  -3.598   1.250  0.00  0.00    +0.000 OA
ATOM     32  C   UNL     1       6.057  -2.459   2.760  0.00  0.00    +0.000 A 
ATOM     33  H   UNL     1       5.004  -5.572   2.657  0.00  0.00    +0.000 HD
ENDBRANCH  20  23
ENDBRANCH   1  19
BRANCH   1  34
ATOM     34  O   UNL     1       2.926  -0.956  -1.026  0.00  0.00    +0.000 OA
BRANCH  34  36
ATOM     35  C   UNL     1       0.835  -0.641  -2.177  0.00  0.00    +0.000 C 
ATOM     36  C   UNL     1       2.343  -0.511  -2.253  0.00  0.00    +0.000 C 
ENDBRANCH  34  36
ENDBRANCH   1  34
TORSDOF 8
