REMARK  Name = 
REMARK  8 active torsions:
REMARK  status: ('A' for Active; 'I' for Inactive)
REMARK    1  A    between atoms: C_1  and  O_2
REMARK    2  A    between atoms: O_2  and  C_3
REMARK    3  A    between atoms: C_10  and  C_11
REMARK    4  A    between atoms: N_13  and  C_14
REMARK    5  A    between atoms: C_14  and  C_15
REMARK    6  A    between atoms: C_18  and  N_19
REMARK    7  A    between atoms: N_19  and  C_20
REMARK    8  A    between atoms: C_20  and  C_21
REMARK                            x       y       z     vdW  Elec       q    Type
REMARK                         _______ _______ _______ _____ _____    ______ ____
ROOT
ATOM      1  C   UNL     1       2.797  -2.594  -2.170  0.00  0.00    +0.000 C 
ENDROOT
BRANCH   1   2
ATOM      2  C   UNL     1       1.694  -3.126  -1.297  0.00  0.00    +0.000 A 
ATOM      3  C   UNL     1       1.685  -4.468  -0.908  0.00  0.00    +0.000 A 
ATOM      4  C   UNL     1       0.747  -4.934   0.021  0.00  0.00    +0.000 A 
ATOM      5  C   UNL     1      -0.232  -4.091   0.560  0.00  0.00    +0.000 A 
ATOM      6  C   UNL     1      -0.254  -2.763   0.113  0.00  0.00    +0.000 A 
ATOM      7  C   UNL     1       0.689  -2.285  -0.809  0.00  0.00    +0.000 A 
BRANCH   5   8
ATOM      8  N   UNL     1      -1.084  -4.458   1.611  0.00  0.00    +0.000 N 
ATOM      9  H   UNL     1      -2.016  -4.067   1.486  0.00  0.00    +0.000 HD
BRANCH   8  10
ATOM     10  C   UNL     1      -1.040  -5.821   2.124  0.00  0.00    +0.000 C 
BRANCH  10  11
ATOM     11  C   UNL     1      -1.969  -6.030   3.330  0.00  0.00    +0.000 C 
ATOM     12  C   UNL     1      -1.775  -7.464   3.857  0.00  0.00    +0.000 C 
ATOM     13  C   UNL     1      -2.791  -7.820   4.931  0.00  0.00    +0.000 C 
ATOM     14  O   UNL     1      -4.117  -7.611   4.452  0.00  0.00    +0.000 OA
ATOM     15  C   UNL     1      -4.354  -6.243   4.129  0.00  0.00    +0.000 C 
ATOM     16  C   UNL     1      -3.448  -5.795   2.990  0.00  0.00    +0.000 C 
ENDBRANCH  10  11
ENDBRANCH   8  10
ENDBRANCH   5   8
ENDBRANCH   1   2
BRANCH   1  19
ATOM     17  C   UNL     1       3.405  -2.246  -4.504  0.00  0.00    +0.000 C 
ATOM     18  O   UNL     1       4.481  -1.764  -4.155  0.00  0.00    +0.000 OA
ATOM     19  N   UNL     1       2.495  -2.677  -3.576  0.00  0.00    +0.000 N 
ATOM     20  H   UNL     1       1.621  -3.100  -3.858  0.00  0.00    +0.000 HD
BRANCH  17  28
ATOM     21  C   UNL     1       0.666  -3.484  -6.191  0.00  0.00    +0.000 A 
ATOM     22  N   UNL     1      -0.231  -3.936  -7.090  0.00  0.00    +0.000 NA
ATOM     23  C   UNL     1       0.060  -3.808  -8.388  0.00  0.00    +0.000 A 
ATOM     24  N   UNL     1       1.154  -3.266  -8.913  0.00  0.00    +0.000 NA
ATOM     25  C   UNL     1       2.027  -2.841  -7.984  0.00  0.00    +0.000 A 
ATOM     26  S   UNL     1       3.480  -2.114  -8.476  0.00  0.00    +0.000 S 
ATOM     27  C   UNL     1       3.973  -1.903  -6.865  0.00  0.00    +0.000 A 
ATOM     28  C   UNL     1       3.059  -2.370  -5.927  0.00  0.00    +0.000 A 
ATOM     29  C   UNL     1       1.885  -2.918  -6.601  0.00  0.00    +0.000 A 
BRANCH  21  31
ATOM     30  C   UNL     1      -1.043  -3.672  -4.610  0.00  0.00    +0.000 C 
ATOM     31  O   UNL     1       0.362  -3.611  -4.851  0.00  0.00    +0.000 OA
ENDBRANCH  21  31
ENDBRANCH  17  28
ENDBRANCH   1  19
TORSDOF 7
