REMARK  Name = 
REMARK  6 active torsions:
REMARK  status: ('A' for Active; 'I' for Inactive)
REMARK    1  A    between atoms: C_2  and  C_4
REMARK    2  A    between atoms: C_7  and  O_8
REMARK    3  A    between atoms: O_8  and  C_9
REMARK    4  A    between atoms: C_9  and  C_10
REMARK    5  A    between atoms: C_14  and  N_15
REMARK    6  A    between atoms: C_18  and  O_19
REMARK                            x       y       z     vdW  Elec       q    Type
REMARK                         _______ _______ _______ _____ _____    ______ ____
ROOT
ATOM      1  C   UNL     1       6.054  -7.073  -0.407  0.00  0.00    +0.000 A 
ATOM      2  C   UNL     1       5.640  -8.388  -0.554  0.00  0.00    +0.000 A 
ATOM      3  N   UNL     1       6.456  -9.452  -0.416  0.00  0.00    +0.000 NA
ATOM      4  C   UNL     1       7.752  -9.182  -0.118  0.00  0.00    +0.000 A 
ATOM      5  C   UNL     1       8.307  -7.909   0.052  0.00  0.00    +0.000 A 
ATOM      6  C   UNL     1       7.403  -6.848  -0.092  0.00  0.00    +0.000 A 
ENDROOT
BRANCH   5   7
ATOM      7  N   UNL     1       9.641  -7.687   0.355  0.00  0.00    +0.000 N 
ATOM      8  C   UNL     1      10.430  -8.688   1.072  0.00  0.00    +0.000 C 
ATOM      9  C   UNL     1      11.506  -9.269   0.163  0.00  0.00    +0.000 C 
ATOM     10  C   UNL     1      12.338  -8.176  -0.505  0.00  0.00    +0.000 C 
ATOM     11  C   UNL     1      11.462  -7.135  -1.198  0.00  0.00    +0.000 C 
ATOM     12  C   UNL     1      10.375  -6.586  -0.275  0.00  0.00    +0.000 C 
BRANCH  10  13
ATOM     13  O   UNL     1      13.203  -7.551   0.442  0.00  0.00    +0.000 OA
ATOM     14  H   UNL     1      12.667  -7.130   1.134  0.00  0.00    +0.000 HD
ENDBRANCH  10  13
ENDBRANCH   5   7
BRANCH   1  15
ATOM     15  C   UNL     1       5.096  -5.934  -0.624  0.00  0.00    +0.000 C 
BRANCH  15  16
ATOM     16  O   UNL     1       4.384  -5.612   0.579  0.00  0.00    +0.000 OA
BRANCH  16  20
ATOM     17  C   UNL     1       1.738  -2.501  -0.042  0.00  0.00    +0.000 A 
ATOM     18  C   UNL     1       1.823  -3.082   1.225  0.00  0.00    +0.000 A 
ATOM     19  C   UNL     1       2.715  -4.139   1.437  0.00  0.00    +0.000 A 
ATOM     20  C   UNL     1       3.493  -4.575   0.368  0.00  0.00    +0.000 A 
ATOM     21  N   UNL     1       3.416  -4.032  -0.864  0.00  0.00    +0.000 NA
ATOM     22  C   UNL     1       2.538  -3.021  -1.048  0.00  0.00    +0.000 A 
BRANCH  17  24
ATOM     23  N   UNL     1       0.523  -0.511   0.627  0.00  0.00    +0.000 N 
ATOM     24  C   UNL     1       0.834  -1.381  -0.375  0.00  0.00    +0.000 C 
ATOM     25  O   UNL     1       0.418  -1.214  -1.517  0.00  0.00    +0.000 OA
ATOM     26  H   UNL     1      -0.009   0.308   0.361  0.00  0.00    +0.000 HD
ATOM     27  H   UNL     1       1.040  -0.470   1.494  0.00  0.00    +0.000 HD
ENDBRANCH  17  24
ENDBRANCH  16  20
ENDBRANCH  15  16
ENDBRANCH   1  15
TORSDOF 6
