REMARK  Name = 
REMARK  4 active torsions:
REMARK  status: ('A' for Active; 'I' for Inactive)
REMARK    1  A    between atoms: C_2  and  C_4
REMARK    2  A    between atoms: N_8  and  C_9
REMARK    3  A    between atoms: C_9  and  C_10
REMARK    4  A    between atoms: C_10  and  C_13
REMARK                            x       y       z     vdW  Elec       q    Type
REMARK                         _______ _______ _______ _____ _____    ______ ____
ROOT
ATOM      1  C   UNL     1       2.980  -1.280   0.349  0.00  0.00    +0.000 A 
ATOM      2  C   UNL     1       3.616  -1.183   1.582  0.00  0.00    +0.000 A 
ATOM      3  C   UNL     1       4.429  -2.234   2.010  0.00  0.00    +0.000 A 
ATOM      4  C   UNL     1       4.563  -3.375   1.221  0.00  0.00    +0.000 A 
ATOM      5  N   UNL     1       5.333  -4.426   1.722  0.00  0.00    +0.000 N 
ATOM      6  N   UNL     1       3.947  -3.485   0.029  0.00  0.00    +0.000 NA
ATOM      7  C   UNL     1       3.178  -2.442  -0.385  0.00  0.00    +0.000 A 
ATOM      8  H   UNL     1       6.298  -4.133   1.856  0.00  0.00    +0.000 HD
ENDROOT
BRANCH   1  10
ATOM      9  N   UNL     1       2.225   1.034   0.291  0.00  0.00    +0.000 N 
ATOM     10  C   UNL     1       2.078  -0.239  -0.187  0.00  0.00    +0.000 C 
ATOM     11  O   UNL     1       1.245  -0.496  -1.045  0.00  0.00    +0.000 OA
ATOM     12  H   UNL     1       1.650   1.747  -0.142  0.00  0.00    +0.000 HD
ATOM     13  H   UNL     1       3.027   1.338   0.823  0.00  0.00    +0.000 HD
ENDBRANCH   1  10
BRANCH   5  14
ATOM     14  C   UNL     1       5.215  -5.719   1.018  0.00  0.00    +0.000 C 
BRANCH  14  15
ATOM     15  C   UNL     1       6.250  -6.751   1.535  0.00  0.00    +0.000 C 
ATOM     16  F   UNL     1       7.495  -6.301   1.176  0.00  0.00    +0.000 F 
ATOM     17  F   UNL     1       6.257  -6.723   2.905  0.00  0.00    +0.000 F 
BRANCH  15  18
ATOM     18  C   UNL     1       5.981  -8.148   1.013  0.00  0.00    +0.000 A 
ATOM     19  C   UNL     1       6.514  -8.574  -0.214  0.00  0.00    +0.000 A 
ATOM     20  C   UNL     1       6.279  -9.871  -0.673  0.00  0.00    +0.000 A 
ATOM     21  C   UNL     1       5.507 -10.754   0.079  0.00  0.00    +0.000 A 
ATOM     22  C   UNL     1       4.966 -10.340   1.297  0.00  0.00    +0.000 A 
ATOM     23  C   UNL     1       5.199  -9.044   1.760  0.00  0.00    +0.000 A 
ENDBRANCH  15  18
ENDBRANCH  14  15
ENDBRANCH   5  14
TORSDOF 4
