REMARK  Name = 
REMARK  7 active torsions:
REMARK  status: ('A' for Active; 'I' for Inactive)
REMARK    1  A    between atoms: C_1  and  C_2
REMARK    2  A    between atoms: C_2  and  N_3
REMARK    3  A    between atoms: C_2  and  C_16
REMARK    4  A    between atoms: C_4  and  C_6
REMARK    5  A    between atoms: C_19  and  C_20
REMARK    6  A    between atoms: C_20  and  N_21
REMARK    7  A    between atoms: C_22  and  C_24
REMARK                            x       y       z     vdW  Elec       q    Type
REMARK                         _______ _______ _______ _____ _____    ______ ____
ROOT
ATOM      1  C   UNL     1       1.933  -1.026  -1.000  0.00  0.00    +0.000 C 
ATOM      2  C   UNL     1       2.479  -0.028   0.026  0.00  0.00    +0.000 C 
ENDROOT
BRANCH   2   3
ATOM      3  C   UNL     1       3.007   1.238  -0.635  0.00  0.00    +0.000 A 
ATOM      4  C   UNL     1       2.433   2.473  -0.301  0.00  0.00    +0.000 A 
ATOM      5  C   UNL     1       2.817   3.649  -0.955  0.00  0.00    +0.000 A 
ATOM      6  C   UNL     1       3.789   3.623  -1.963  0.00  0.00    +0.000 A 
ATOM      7  C   UNL     1       4.420   2.405  -2.248  0.00  0.00    +0.000 A 
ATOM      8  C   UNL     1       4.031   1.225  -1.597  0.00  0.00    +0.000 A 
BRANCH   6   9
ATOM      9  C   UNL     1       4.101   4.867  -2.754  0.00  0.00    +0.000 C 
BRANCH   9  10
ATOM     10  N   UNL     1       5.165   5.658  -2.199  0.00  0.00    +0.000 N 
ATOM     11  C   UNL     1       5.563   6.826  -2.814  0.00  0.00    +0.000 C 
ATOM     12  O   UNL     1       5.071   7.238  -3.858  0.00  0.00    +0.000 OA
ATOM     13  H   UNL     1       5.610   5.416  -1.320  0.00  0.00    +0.000 HD
BRANCH  11  14
ATOM     14  C   UNL     1       6.630   7.531  -2.102  0.00  0.00    +0.000 A 
ATOM     15  C   UNL     1       7.223   8.721  -2.481  0.00  0.00    +0.000 A 
ATOM     16  N   UNL     1       8.157   8.991  -1.523  0.00  0.00    +0.000 N 
ATOM     17  C   UNL     1       8.108   7.979  -0.605  0.00  0.00    +0.000 A 
ATOM     18  N   UNL     1       7.202   7.081  -0.920  0.00  0.00    +0.000 NA
ATOM     19  H   UNL     1       8.776   9.790  -1.492  0.00  0.00    +0.000 HD
ENDBRANCH  11  14
ENDBRANCH   9  10
ENDBRANCH   6   9
ENDBRANCH   2   3
BRANCH   2  20
ATOM     20  N   UNL     1       3.483  -0.653   0.864  0.00  0.00    +0.000 N 
ATOM     21  C   UNL     1       3.151  -1.412   1.958  0.00  0.00    +0.000 C 
ATOM     22  O   UNL     1       1.986  -1.567   2.318  0.00  0.00    +0.000 OA
ATOM     23  H   UNL     1       4.457  -0.484   0.635  0.00  0.00    +0.000 HD
BRANCH  21  24
ATOM     24  C   UNL     1       4.254  -2.081   2.656  0.00  0.00    +0.000 A 
ATOM     25  C   UNL     1       3.997  -3.198   3.441  0.00  0.00    +0.000 A 
ATOM     26  S   UNL     1       5.393  -3.860   4.165  0.00  0.00    +0.000 S 
ATOM     27  C   UNL     1       6.381  -2.647   3.497  0.00  0.00    +0.000 A 
ATOM     28  N   UNL     1       7.715  -2.606   3.760  0.00  0.00    +0.000 NA
ATOM     29  C   UNL     1       8.332  -1.603   3.230  0.00  0.00    +0.000 A 
ATOM     30  N   UNL     1       7.739  -0.646   2.449  0.00  0.00    +0.000 N 
ATOM     31  C   UNL     1       6.415  -0.698   2.086  0.00  0.00    +0.000 A 
ATOM     32  O   UNL     1       5.954   0.089   1.267  0.00  0.00    +0.000 OA
ATOM     33  C   UNL     1       5.662  -1.770   2.705  0.00  0.00    +0.000 A 
ATOM     34  H   UNL     1       8.283   0.095   2.032  0.00  0.00    +0.000 HD
ENDBRANCH  21  24
ENDBRANCH   2  20
TORSDOF 6
