REMARK  Name = 
REMARK  6 active torsions:
REMARK  status: ('A' for Active; 'I' for Inactive)
REMARK    1  A    between atoms: C_2  and  C_4
REMARK    2  A    between atoms: N_8  and  C_9
REMARK    3  A    between atoms: C_9  and  C_10
REMARK    4  A    between atoms: C_10  and  C_13
REMARK    5  A    between atoms: C_15  and  N_16
REMARK    6  A    between atoms: C_19  and  O_20
REMARK                            x       y       z     vdW  Elec       q    Type
REMARK                         _______ _______ _______ _____ _____    ______ ____
ROOT
ATOM      1  C   UNL     1       6.249   3.858   6.063  0.00  0.00    +0.000 C 
ATOM      2  F   UNL     1       5.181   3.817   5.211  0.00  0.00    +0.000 F 
ATOM      3  F   UNL     1       6.987   2.746   5.765  0.00  0.00    +0.000 F 
ENDROOT
BRANCH   1   4
ATOM      4  C   UNL     1       5.803   3.886   7.524  0.00  0.00    +0.000 A 
ATOM      5  C   UNL     1       5.568   2.691   8.202  0.00  0.00    +0.000 A 
ATOM      6  C   UNL     1       5.067   2.696   9.512  0.00  0.00    +0.000 A 
ATOM      7  C   UNL     1       4.877   3.945  10.106  0.00  0.00    +0.000 A 
ATOM      8  C   UNL     1       5.145   5.092   9.385  0.00  0.00    +0.000 A 
ATOM      9  N   UNL     1       5.592   5.094   8.116  0.00  0.00    +0.000 NA
BRANCH   6  10
ATOM     10  N   UNL     1       4.772   1.514  10.170  0.00  0.00    +0.000 N 
ATOM     11  C   UNL     1       4.828   1.401  11.627  0.00  0.00    +0.000 C 
ATOM     12  C   UNL     1       3.437   1.142  12.194  0.00  0.00    +0.000 C 
ATOM     13  C   UNL     1       2.737  -0.021  11.494  0.00  0.00    +0.000 C 
ATOM     14  C   UNL     1       2.755   0.127   9.975  0.00  0.00    +0.000 C 
ATOM     15  C   UNL     1       4.161   0.398   9.442  0.00  0.00    +0.000 C 
BRANCH  13  16
ATOM     16  O   UNL     1       3.316  -1.266  11.884  0.00  0.00    +0.000 OA
ATOM     17  H   UNL     1       4.248  -1.285  11.609  0.00  0.00    +0.000 HD
ENDBRANCH  13  16
ENDBRANCH   6  10
ENDBRANCH   1   4
BRANCH   1  18
ATOM     18  C   UNL     1       7.091   5.114   5.742  0.00  0.00    +0.000 C 
BRANCH  18  23
ATOM     19  C   UNL     1       9.991   8.250   2.919  0.00  0.00    +0.000 A 
ATOM     20  C   UNL     1       9.549   8.326   4.230  0.00  0.00    +0.000 A 
ATOM     21  C   UNL     1       8.759   7.296   4.742  0.00  0.00    +0.000 A 
ATOM     22  C   UNL     1       8.402   6.218   3.933  0.00  0.00    +0.000 A 
ATOM     23  N   UNL     1       7.636   5.174   4.386  0.00  0.00    +0.000 N 
ATOM     24  N   UNL     1       8.818   6.142   2.654  0.00  0.00    +0.000 NA
ATOM     25  C   UNL     1       9.596   7.152   2.172  0.00  0.00    +0.000 A 
ATOM     26  H   UNL     1       7.311   4.533   3.668  0.00  0.00    +0.000 HD
BRANCH  19  28
ATOM     27  N   UNL     1      11.623  10.026   3.141  0.00  0.00    +0.000 N 
ATOM     28  C   UNL     1      10.814   9.308   2.304  0.00  0.00    +0.000 C 
ATOM     29  O   UNL     1      10.789   9.524   1.099  0.00  0.00    +0.000 OA
ATOM     30  H   UNL     1      12.239  10.703   2.708  0.00  0.00    +0.000 HD
ATOM     31  H   UNL     1      11.848   9.722   4.078  0.00  0.00    +0.000 HD
ENDBRANCH  19  28
ENDBRANCH  18  23
ENDBRANCH   1  18
TORSDOF 6
