REMARK  Name = 
REMARK  7 active torsions:
REMARK  status: ('A' for Active; 'I' for Inactive)
REMARK    1  A    between atoms: C_1  and  C_2
REMARK    2  A    between atoms: C_2  and  C_3
REMARK    3  A    between atoms: C_2  and  C_4
REMARK    4  A    between atoms: C_2  and  C_5
REMARK    5  A    between atoms: C_9  and  C_10
REMARK    6  A    between atoms: N_16  and  C_17
REMARK    7  A    between atoms: C_17  and  C_18
REMARK                            x       y       z     vdW  Elec       q    Type
REMARK                         _______ _______ _______ _____ _____    ______ ____
ROOT
ATOM      1  C   UNL     1       2.941   1.194   0.703  0.00  0.00    +0.000 A 
ATOM      2  N   UNL     1       2.439   2.365   0.340  0.00  0.00    +0.000 NA
ATOM      3  C   UNL     1       3.053   3.321   1.096  0.00  0.00    +0.000 A 
ATOM      4  C   UNL     1       2.852   4.712   1.087  0.00  0.00    +0.000 A 
ATOM      5  C   UNL     1       3.597   5.508   1.963  0.00  0.00    +0.000 A 
ATOM      6  C   UNL     1       4.554   4.908   2.802  0.00  0.00    +0.000 A 
ATOM      7  C   UNL     1       4.769   3.520   2.814  0.00  0.00    +0.000 A 
ATOM      8  C   UNL     1       3.979   2.748   1.951  0.00  0.00    +0.000 A 
ATOM      9  N   UNL     1       3.850   1.383   1.737  0.00  0.00    +0.000 N 
ENDROOT
BRANCH   5  10
ATOM     10  C   UNL     1       3.414   6.984   2.069  0.00  0.00    +0.000 C 
ATOM     11  N   UNL     1       2.499   7.594   1.256  0.00  0.00    +0.000 N 
ATOM     12  O   UNL     1       4.054   7.652   2.874  0.00  0.00    +0.000 OA
ATOM     13  H   UNL     1       1.928   7.133   0.567  0.00  0.00    +0.000 HD
ATOM     14  H   UNL     1       2.388   8.594   1.367  0.00  0.00    +0.000 HD
ENDBRANCH   5  10
BRANCH   1  16
ATOM     15  C   UNL     1       1.463   0.217  -1.064  0.00  0.00    +0.000 C 
ATOM     16  C   UNL     1       2.526  -0.110   0.020  0.00  0.00    +0.000 C 
ATOM     17  C   UNL     1       1.872  -1.095   0.997  0.00  0.00    +0.000 C 
ATOM     18  C   UNL     1       3.705  -0.773  -0.711  0.00  0.00    +0.000 C 
ENDBRANCH   1  16
BRANCH   9  19
ATOM     19  C   UNL     1       4.599   0.379   2.484  0.00  0.00    +0.000 C 
BRANCH  19  20
ATOM     20  C   UNL     1       3.927  -0.117   3.738  0.00  0.00    +0.000 A 
ATOM     21  C   UNL     1       3.102   0.664   4.552  0.00  0.00    +0.000 A 
ATOM     22  C   UNL     1       2.606   0.144   5.746  0.00  0.00    +0.000 A 
ATOM     23  C   UNL     1       2.952  -1.149   6.096  0.00  0.00    +0.000 A 
ATOM     24  N   UNL     1       3.736  -1.941   5.337  0.00  0.00    +0.000 NA
ATOM     25  C   UNL     1       4.206  -1.408   4.187  0.00  0.00    +0.000 A 
ENDBRANCH  19  20
ENDBRANCH   9  19
TORSDOF 4
