REMARK  Name = 
REMARK  5 active torsions:
REMARK  status: ('A' for Active; 'I' for Inactive)
REMARK    1  A    between atoms: C_2  and  C_4
REMARK    2  A    between atoms: C_7  and  O_8
REMARK    3  A    between atoms: O_8  and  C_9
REMARK    4  A    between atoms: C_9  and  C_10
REMARK    5  A    between atoms: C_14  and  N_15
REMARK                            x       y       z     vdW  Elec       q    Type
REMARK                         _______ _______ _______ _____ _____    ______ ____
ROOT
ATOM      1  C   UNL     1       4.870  -3.223  -5.135  0.00  0.00    +0.000 C 
ENDROOT
BRANCH   1   2
ATOM      2  C   UNL     1       5.747  -4.242  -5.817  0.00  0.00    +0.000 A 
ATOM      3  C   UNL     1       6.874  -3.843  -6.539  0.00  0.00    +0.000 A 
ATOM      4  C   UNL     1       7.671  -4.798  -7.159  0.00  0.00    +0.000 A 
ATOM      5  C   UNL     1       7.345  -6.153  -7.060  0.00  0.00    +0.000 A 
ATOM      6  C   UNL     1       6.223  -6.598  -6.343  0.00  0.00    +0.000 A 
ATOM      7  C   UNL     1       5.434  -5.613  -5.733  0.00  0.00    +0.000 A 
BRANCH   6   8
ATOM      8  N   UNL     1       5.965  -7.945  -6.207  0.00  0.00    +0.000 N 
ATOM      9  C   UNL     1       5.215  -8.503  -5.073  0.00  0.00    +0.000 C 
ATOM     10  C   UNL     1       5.863  -9.841  -4.665  0.00  0.00    +0.000 C 
ATOM     11  O   UNL     1       5.956 -10.757  -5.771  0.00  0.00    +0.000 OA
ATOM     12  C   UNL     1       6.728 -10.177  -6.838  0.00  0.00    +0.000 C 
ATOM     13  C   UNL     1       6.091  -8.873  -7.340  0.00  0.00    +0.000 C 
ENDBRANCH   6   8
ENDBRANCH   1   2
BRANCH   1  14
ATOM     14  O   UNL     1       4.831  -3.520  -3.740  0.00  0.00    +0.000 OA
BRANCH  14  18
ATOM     15  C   UNL     1       2.610  -1.189  -1.097  0.00  0.00    +0.000 A 
ATOM     16  C   UNL     1       2.620  -0.833  -2.451  0.00  0.00    +0.000 A 
ATOM     17  C   UNL     1       3.352  -1.590  -3.373  0.00  0.00    +0.000 A 
ATOM     18  C   UNL     1       4.083  -2.700  -2.946  0.00  0.00    +0.000 A 
ATOM     19  C   UNL     1       4.084  -3.042  -1.590  0.00  0.00    +0.000 A 
ATOM     20  C   UNL     1       3.357  -2.289  -0.666  0.00  0.00    +0.000 A 
BRANCH  15  22
ATOM     21  N   UNL     1       0.720   0.239  -0.535  0.00  0.00    +0.000 N 
ATOM     22  C   UNL     1       1.836  -0.415  -0.092  0.00  0.00    +0.000 C 
ATOM     23  O   UNL     1       2.154  -0.394   1.089  0.00  0.00    +0.000 OA
ATOM     24  H   UNL     1       0.138   0.657   0.181  0.00  0.00    +0.000 HD
ATOM     25  H   UNL     1       0.287   0.024  -1.421  0.00  0.00    +0.000 HD
ENDBRANCH  15  22
ENDBRANCH  14  18
ENDBRANCH   1  14
TORSDOF 5
