REMARK  Name = 
REMARK  8 active torsions:
REMARK  status: ('A' for Active; 'I' for Inactive)
REMARK    1  A    between atoms: C_1  and  N_2
REMARK    2  A    between atoms: N_2  and  C_3
REMARK    3  A    between atoms: C_3  and  C_4
REMARK    4  A    between atoms: C_7  and  C_8
REMARK    5  A    between atoms: C_8  and  N_9
REMARK    6  A    between atoms: N_9  and  C_10
REMARK    7  A    between atoms: C_13  and  N_14
REMARK    8  A    between atoms: C_18  and  C_20
REMARK                            x       y       z     vdW  Elec       q    Type
REMARK                         _______ _______ _______ _____ _____    ______ ____
ROOT
ATOM      1  C   UNL     1       0.376   0.688 -12.626  0.00  0.00    +0.000 A 
ATOM      2  C   UNL     1       0.080  -0.246 -11.622  0.00  0.00    +0.000 A 
ATOM      3  C   UNL     1      -0.452   0.173 -10.408  0.00  0.00    +0.000 A 
ATOM      4  C   UNL     1      -0.695   1.534 -10.172  0.00  0.00    +0.000 A 
ATOM      5  C   UNL     1      -0.421   2.462 -11.185  0.00  0.00    +0.000 A 
ATOM      6  C   UNL     1       0.106   2.043 -12.406  0.00  0.00    +0.000 A 
ENDROOT
BRANCH   1   7
ATOM      7  C   UNL     1       1.015   0.244 -13.909  0.00  0.00    +0.000 C 
BRANCH   7   9
ATOM      8  C   UNL     1      -1.303  -0.186 -14.829  0.00  0.00    +0.000 C 
ATOM      9  N   UNL     1       0.142  -0.150 -15.016  0.00  0.00    +0.000 N 
ATOM     10  C   UNL     1       0.593  -0.209 -16.347  0.00  0.00    +0.000 C 
ATOM     11  O   UNL     1      -0.197  -0.307 -17.283  0.00  0.00    +0.000 OA
BRANCH  10  12
ATOM     12  C   UNL     1       2.042  -0.192 -16.620  0.00  0.00    +0.000 A 
ATOM     13  C   UNL     1       2.986  -0.899 -15.893  0.00  0.00    +0.000 A 
ATOM     14  S   UNL     1       4.577  -0.726 -16.482  0.00  0.00    +0.000 S 
ATOM     15  C   UNL     1       4.035   0.171 -17.817  0.00  0.00    +0.000 A 
ATOM     16  N   UNL     1       4.895   0.538 -18.805  0.00  0.00    +0.000 NA
ATOM     17  C   UNL     1       4.336   1.152 -19.791  0.00  0.00    +0.000 A 
ATOM     18  N   UNL     1       2.998   1.465 -19.864  0.00  0.00    +0.000 N 
ATOM     19  C   UNL     1       2.119   1.243 -18.819  0.00  0.00    +0.000 A 
ATOM     20  O   UNL     1       1.015   1.774 -18.807  0.00  0.00    +0.000 OA
ATOM     21  C   UNL     1       2.679   0.432 -17.755  0.00  0.00    +0.000 A 
ATOM     22  H   UNL     1       2.641   2.013 -20.628  0.00  0.00    +0.000 HD
ENDBRANCH  10  12
ENDBRANCH   7   9
ENDBRANCH   1   7
BRANCH   4  23
ATOM     23  C   UNL     1      -1.259   1.990  -8.846  0.00  0.00    +0.000 C 
BRANCH  23  24
ATOM     24  N   UNL     1      -0.378   1.592  -7.747  0.00  0.00    +0.000 NA
ATOM     25  H   UNL     1       0.560   1.932  -7.965  0.00  0.00    +0.000 HD
BRANCH  24  26
ATOM     26  C   UNL     1      -0.786   2.130  -6.447  0.00  0.00    +0.000 C 
ATOM     27  C   UNL     1      -2.136   1.609  -5.932  0.00  0.00    +0.000 C 
ATOM     28  C   UNL     1      -1.851   0.316  -5.162  0.00  0.00    +0.000 C 
ATOM     29  C   UNL     1      -0.328   0.194  -5.094  0.00  0.00    +0.000 C 
ATOM     30  C   UNL     1       0.180   1.610  -5.373  0.00  0.00    +0.000 C 
BRANCH  29  31
ATOM     31  N   UNL     1       0.133  -0.341  -3.819  0.00  0.00    +0.000 NA
ATOM     32  H   UNL     1      -0.155   0.274  -3.059  0.00  0.00    +0.000 HD
ATOM     33  H   UNL     1       1.152  -0.351  -3.805  0.00  0.00    +0.000 HD
ENDBRANCH  29  31
ENDBRANCH  24  26
ENDBRANCH  23  24
ENDBRANCH   4  23
TORSDOF 7
