REMARK  Name = 
REMARK  12 active torsions:
REMARK  status: ('A' for Active; 'I' for Inactive)
REMARK    1  A    between atoms: C_1  and  C_2
REMARK    2  A    between atoms: C_4  and  C_5
REMARK    3  A    between atoms: C_5  and  O_6
REMARK    4  A    between atoms: O_6  and  C_7
REMARK    5  A    between atoms: C_9  and  N_10
REMARK    6  A    between atoms: N_10  and  C_11
REMARK    7  A    between atoms: C_11  and  C_12
REMARK    8  A    between atoms: C_12  and  C_13
REMARK    9  A    between atoms: C_12  and  C_14
REMARK   10  A    between atoms: C_12  and  C_15
REMARK   11  A    between atoms: C_18  and  C_19
REMARK   12  A    between atoms: C_25  and  C_26
REMARK                            x       y       z     vdW  Elec       q    Type
REMARK                         _______ _______ _______ _____ _____    ______ ____
ROOT
ATOM      1  N   UNL     1       9.373  -2.656  -1.493  0.00  0.00    +0.000 N 
ATOM      2  H   UNL     1       8.934  -2.866  -2.385  0.00  0.00    +0.000 HD
ENDROOT
BRANCH   1   5
ATOM      3  C   UNL     1       6.218  -2.325   0.483  0.00  0.00    +0.000 A 
ATOM      4  C   UNL     1       7.171  -2.161  -0.550  0.00  0.00    +0.000 A 
ATOM      5  C   UNL     1       8.441  -2.777  -0.447  0.00  0.00    +0.000 A 
ATOM      6  C   UNL     1       8.759  -3.430   0.733  0.00  0.00    +0.000 A 
ATOM      7  C   UNL     1       7.855  -3.539   1.796  0.00  0.00    +0.000 A 
ATOM      8  C   UNL     1       6.577  -3.005   1.632  0.00  0.00    +0.000 A 
BRANCH   7   9
ATOM      9  C   UNL     1       8.283  -4.164   3.088  0.00  0.00    +0.000 C 
ATOM     10  F   UNL     1       9.581  -4.578   3.074  0.00  0.00    +0.000 F 
ATOM     11  F   UNL     1       8.173  -3.311   4.139  0.00  0.00    +0.000 F 
ATOM     12  F   UNL     1       7.546  -5.263   3.416  0.00  0.00    +0.000 F 
ENDBRANCH   7   9
BRANCH   3  13
ATOM     13  O   UNL     1       4.962  -1.774   0.330  0.00  0.00    +0.000 OA
BRANCH  13  14
ATOM     14  C   UNL     1       3.924  -2.472   1.054  0.00  0.00    +0.000 C 
BRANCH  14  18
ATOM     15  C   UNL     1       0.088  -2.687   0.798  0.00  0.00    +0.000 C 
ATOM     16  C   UNL     1       1.346  -1.982   1.180  0.00  0.00    +0.000 C 
ATOM     17  C   UNL     1       1.945  -0.922   0.292  0.00  0.00    +0.000 C 
ATOM     18  C   UNL     1       2.604  -2.274   0.378  0.00  0.00    +0.000 C 
ENDBRANCH  14  18
ENDBRANCH  13  14
ENDBRANCH   3  13
ENDBRANCH   1   5
BRANCH   1  19
ATOM     19  C   UNL     1      10.696  -3.292  -1.304  0.00  0.00    +0.000 C 
BRANCH  19  20
ATOM     20  C   UNL     1      11.608  -3.180  -2.551  0.00  0.00    +0.000 C 
ATOM     21  C   UNL     1      10.922  -3.900  -3.735  0.00  0.00    +0.000 C 
ATOM     22  C   UNL     1      11.829  -1.703  -2.926  0.00  0.00    +0.000 C 
BRANCH  20  23
ATOM     23  C   UNL     1      12.961  -3.842  -2.225  0.00  0.00    +0.000 A 
ATOM     24  C   UNL     1      13.989  -3.892  -3.164  0.00  0.00    +0.000 A 
ATOM     25  C   UNL     1      15.186  -4.530  -2.843  0.00  0.00    +0.000 A 
ATOM     26  C   UNL     1      15.353  -5.110  -1.585  0.00  0.00    +0.000 A 
ATOM     27  C   UNL     1      14.297  -4.997  -0.700  0.00  0.00    +0.000 A 
ATOM     28  N   UNL     1      13.121  -4.385  -0.990  0.00  0.00    +0.000 NA
BRANCH  26  29
ATOM     29  C   UNL     1      16.621  -5.808  -1.273  0.00  0.00    +0.000 C 
ATOM     30  N   UNL     1      16.785  -6.378  -0.045  0.00  0.00    +0.000 N 
ATOM     31  O   UNL     1      17.521  -5.888  -2.108  0.00  0.00    +0.000 OA
ATOM     32  H   UNL     1      16.107  -6.397   0.701  0.00  0.00    +0.000 HD
ATOM     33  H   UNL     1      17.662  -6.862   0.115  0.00  0.00    +0.000 HD
ENDBRANCH  26  29
ENDBRANCH  20  23
ENDBRANCH  19  20
ENDBRANCH   1  19
TORSDOF 9
