REMARK  Name = 
REMARK  6 active torsions:
REMARK  status: ('A' for Active; 'I' for Inactive)
REMARK    1  A    between atoms: C_2  and  C_26
REMARK    2  A    between atoms: N_3  and  C_4
REMARK    3  A    between atoms: C_4  and  C_5
REMARK    4  A    between atoms: C_8  and  C_9
REMARK    5  A    between atoms: C_9  and  N_10
REMARK    6  A    between atoms: C_11  and  C_13
REMARK                            x       y       z     vdW  Elec       q    Type
REMARK                         _______ _______ _______ _____ _____    ______ ____
ROOT
ATOM      1  C   UNL     1       3.184  -3.256  -1.700  0.00  0.00    +0.000 A 
ATOM      2  C   UNL     1       4.405  -2.955  -2.319  0.00  0.00    +0.000 A 
ATOM      3  C   UNL     1       5.227  -3.979  -2.808  0.00  0.00    +0.000 A 
ATOM      4  C   UNL     1       4.843  -5.322  -2.689  0.00  0.00    +0.000 A 
ATOM      5  C   UNL     1       3.641  -5.623  -2.036  0.00  0.00    +0.000 A 
ATOM      6  C   UNL     1       2.828  -4.597  -1.556  0.00  0.00    +0.000 A 
ATOM      7  F   UNL     1       1.674  -4.919  -0.953  0.00  0.00    +0.000 F 
ENDROOT
BRANCH   1   8
ATOM      8  C   UNL     1       2.280  -2.167  -1.200  0.00  0.00    +0.000 C 
BRANCH   8  11
ATOM      9  O   UNL     1       4.033  -0.018  -0.426  0.00  0.00    +0.000 OA
ATOM     10  C   UNL     1       3.426  -0.680   0.401  0.00  0.00    +0.000 C 
ATOM     11  N   UNL     1       2.608  -1.749   0.141  0.00  0.00    +0.000 N 
ATOM     12  H   UNL     1       2.172  -2.212   0.935  0.00  0.00    +0.000 HD
BRANCH  10  13
ATOM     13  C   UNL     1       3.514  -0.307   1.862  0.00  0.00    +0.000 C 
ATOM     14  N   UNL     1       2.888  -0.951   2.801  0.00  0.00    +0.000 NA
ATOM     15  N   UNL     1       3.108  -0.243   3.936  0.00  0.00    +0.000 N 
ATOM     16  C   UNL     1       4.129   0.788   3.785  0.00  0.00    +0.000 C 
ATOM     17  C   UNL     1       4.337   0.860   2.285  0.00  0.00    +0.000 C 
ATOM     18  H   UNL     1       3.230  -0.825   4.766  0.00  0.00    +0.000 HD
ENDBRANCH  10  13
ENDBRANCH   8  11
ENDBRANCH   1   8
BRANCH   4  19
ATOM     19  C   UNL     1       5.725  -6.426  -3.211  0.00  0.00    +0.000 C 
BRANCH  19  20
ATOM     20  N   UNL     1       6.678  -6.843  -2.215  0.00  0.00    +0.000 N 
ATOM     21  C   UNL     1       7.669  -7.744  -2.510  0.00  0.00    +0.000 C 
ATOM     22  O   UNL     1       7.826  -8.190  -3.644  0.00  0.00    +0.000 OA
ATOM     23  H   UNL     1       6.434  -6.672  -1.244  0.00  0.00    +0.000 HD
BRANCH  21  24
ATOM     24  C   UNL     1       8.577  -8.103  -1.412  0.00  0.00    +0.000 A 
ATOM     25  C   UNL     1       9.843  -8.595  -1.700  0.00  0.00    +0.000 A 
ATOM     26  S   UNL     1      10.787  -8.908  -0.315  0.00  0.00    +0.000 S 
ATOM     27  C   UNL     1       9.519  -8.445   0.722  0.00  0.00    +0.000 A 
ATOM     28  N   UNL     1       9.665  -8.500   2.073  0.00  0.00    +0.000 NA
ATOM     29  C   UNL     1       8.613  -8.153   2.738  0.00  0.00    +0.000 A 
ATOM     30  N   UNL     1       7.432  -7.749   2.175  0.00  0.00    +0.000 N 
ATOM     31  C   UNL     1       7.248  -7.650   0.814  0.00  0.00    +0.000 A 
ATOM     32  O   UNL     1       6.190  -7.245   0.342  0.00  0.00    +0.000 OA
ATOM     33  C   UNL     1       8.397  -8.042   0.020  0.00  0.00    +0.000 A 
ATOM     34  H   UNL     1       6.646  -7.486   2.750  0.00  0.00    +0.000 HD
ENDBRANCH  21  24
ENDBRANCH  19  20
ENDBRANCH   4  19
TORSDOF 6
