REMARK  Name = 
REMARK  7 active torsions:
REMARK  status: ('A' for Active; 'I' for Inactive)
REMARK    1  A    between atoms: C_2  and  C_3
REMARK    2  A    between atoms: C_6  and  C_7
REMARK    3  A    between atoms: N_9  and  C_10
REMARK    4  A    between atoms: C_10  and  C_11
REMARK    5  A    between atoms: C_14  and  C_15
REMARK    6  A    between atoms: C_15  and  N_16
REMARK    7  A    between atoms: C_17  and  C_19
REMARK                            x       y       z     vdW  Elec       q    Type
REMARK                         _______ _______ _______ _____ _____    ______ ____
ROOT
ATOM      1  C   UNL     1      10.335   0.372  -0.374  0.00  0.00    +0.000 A 
ATOM      2  C   UNL     1      11.323   1.312  -0.050  0.00  0.00    +0.000 A 
ATOM      3  C   UNL     1      12.597   0.896   0.353  0.00  0.00    +0.000 A 
ATOM      4  C   UNL     1      12.915  -0.467   0.419  0.00  0.00    +0.000 A 
ATOM      5  C   UNL     1      11.921  -1.405   0.109  0.00  0.00    +0.000 A 
ATOM      6  C   UNL     1      10.649  -0.991  -0.296  0.00  0.00    +0.000 A 
ENDROOT
BRANCH   1   7
ATOM      7  C   UNL     1       8.962   0.814  -0.801  0.00  0.00    +0.000 C 
BRANCH   7  10
ATOM      8  C   UNL     1       7.701   1.476  -2.783  0.00  0.00    +0.000 C 
ATOM      9  O   UNL     1       6.702   1.712  -2.109  0.00  0.00    +0.000 OA
ATOM     10  N   UNL     1       8.873   1.022  -2.228  0.00  0.00    +0.000 N 
ATOM     11  H   UNL     1       9.653   0.749  -2.812  0.00  0.00    +0.000 HD
BRANCH   8  15
ATOM     12  C   UNL     1       6.540   3.720  -4.562  0.00  0.00    +0.000 C 
ATOM     13  C   UNL     1       8.008   4.025  -4.870  0.00  0.00    +0.000 C 
ATOM     14  C   UNL     1       8.763   2.697  -4.740  0.00  0.00    +0.000 C 
ATOM     15  C   UNL     1       7.730   1.656  -4.300  0.00  0.00    +0.000 C 
ATOM     16  C   UNL     1       6.411   2.224  -4.834  0.00  0.00    +0.000 C 
BRANCH  12  18
ATOM     17  N   UNL     1       4.828   5.242  -6.138  0.00  0.00    +0.000 NA
ATOM     18  C   UNL     1       5.605   4.552  -5.423  0.00  0.00    +0.000 C 
ENDBRANCH  12  18
ENDBRANCH   8  15
ENDBRANCH   7  10
ENDBRANCH   1   7
BRANCH   4  19
ATOM     19  C   UNL     1      14.288  -0.927   0.841  0.00  0.00    +0.000 C 
BRANCH  19  20
ATOM     20  N   UNL     1      14.369  -1.114   2.267  0.00  0.00    +0.000 N 
ATOM     21  C   UNL     1      15.545  -1.486   2.869  0.00  0.00    +0.000 C 
ATOM     22  O   UNL     1      16.587  -1.621   2.234  0.00  0.00    +0.000 OA
ATOM     23  H   UNL     1      13.494  -1.245   2.765  0.00  0.00    +0.000 HD
BRANCH  21  24
ATOM     24  C   UNL     1      15.508  -1.657   4.327  0.00  0.00    +0.000 A 
ATOM     25  C   UNL     1      16.674  -1.517   5.069  0.00  0.00    +0.000 A 
ATOM     26  S   UNL     1      16.442  -1.695   6.749  0.00  0.00    +0.000 S 
ATOM     27  C   UNL     1      14.785  -2.018   6.541  0.00  0.00    +0.000 A 
ATOM     28  N   UNL     1      13.982  -2.288   7.608  0.00  0.00    +0.000 NA
ATOM     29  C   UNL     1      12.755  -2.539   7.302  0.00  0.00    +0.000 A 
ATOM     30  N   UNL     1      12.251  -2.540   6.026  0.00  0.00    +0.000 N 
ATOM     31  C   UNL     1      13.016  -2.250   4.922  0.00  0.00    +0.000 A 
ATOM     32  O   UNL     1      12.526  -2.219   3.799  0.00  0.00    +0.000 OA
ATOM     33  C   UNL     1      14.409  -1.970   5.210  0.00  0.00    +0.000 A 
ATOM     34  H   UNL     1      11.275  -2.735   5.856  0.00  0.00    +0.000 HD
ENDBRANCH  21  24
ENDBRANCH  19  20
ENDBRANCH   4  19
TORSDOF 7
