REMARK  Name = 
REMARK  7 active torsions:
REMARK  status: ('A' for Active; 'I' for Inactive)
REMARK    1  A    between atoms: C_2  and  C_25
REMARK    2  A    between atoms: N_3  and  C_4
REMARK    3  A    between atoms: C_4  and  C_5
REMARK    4  A    between atoms: C_8  and  C_9
REMARK    5  A    between atoms: C_9  and  O_10
REMARK    6  A    between atoms: O_10  and  C_11
REMARK    7  A    between atoms: C_11  and  C_13
REMARK                            x       y       z     vdW  Elec       q    Type
REMARK                         _______ _______ _______ _____ _____    ______ ____
ROOT
ATOM      1  C   UNL     1       3.268   3.478   1.312  0.00  0.00    +0.000 A 
ATOM      2  C   UNL     1       2.912   4.803   1.028  0.00  0.00    +0.000 A 
ATOM      3  C   UNL     1       3.729   5.863   1.433  0.00  0.00    +0.000 A 
ATOM      4  C   UNL     1       4.925   5.618   2.118  0.00  0.00    +0.000 A 
ATOM      5  C   UNL     1       5.297   4.292   2.377  0.00  0.00    +0.000 A 
ATOM      6  C   UNL     1       4.478   3.232   1.974  0.00  0.00    +0.000 A 
ENDROOT
BRANCH   1   7
ATOM      7  C   UNL     1       2.354   2.346   0.922  0.00  0.00    +0.000 C 
BRANCH   7  10
ATOM      8  O   UNL     1       1.002   0.262  -0.309  0.00  0.00    +0.000 OA
ATOM      9  C   UNL     1       1.860   0.857  -0.954  0.00  0.00    +0.000 C 
ATOM     10  N   UNL     1       2.587   1.899  -0.429  0.00  0.00    +0.000 N 
ATOM     11  H   UNL     1       3.215   2.428  -1.015  0.00  0.00    +0.000 HD
BRANCH   9  12
ATOM     12  C   UNL     1       2.169   0.506  -2.325  0.00  0.00    +0.000 A 
ATOM     13  C   UNL     1       3.118   0.976  -3.219  0.00  0.00    +0.000 A 
ATOM     14  C   UNL     1       2.980   0.249  -4.425  0.00  0.00    +0.000 A 
ATOM     15 CL   UNL     1       3.938   0.463  -5.807  0.00  0.00    +0.000 Cl
ATOM     16  C   UNL     1       1.950  -0.643  -4.257  0.00  0.00    +0.000 A 
ATOM     17  N   UNL     1       1.466  -0.483  -2.987  0.00  0.00    +0.000 N 
ATOM     18  H   UNL     1       0.708  -1.009  -2.566  0.00  0.00    +0.000 HD
ENDBRANCH   9  12
ENDBRANCH   7  10
ENDBRANCH   1   7
BRANCH   4  19
ATOM     19  C   UNL     1       5.787   6.765   2.591  0.00  0.00    +0.000 C 
BRANCH  19  20
ATOM     20  O   UNL     1       5.938   6.724   4.015  0.00  0.00    +0.000 OA
BRANCH  20  21
ATOM     21  C   UNL     1       4.943   7.326   4.718  0.00  0.00    +0.000 C 
ATOM     22  O   UNL     1       3.953   7.851   4.221  0.00  0.00    +0.000 OA
BRANCH  21  23
ATOM     23  C   UNL     1       5.124   7.215   6.161  0.00  0.00    +0.000 A 
ATOM     24  C   UNL     1       4.039   7.033   7.003  0.00  0.00    +0.000 A 
ATOM     25  S   UNL     1       4.481   6.898   8.646  0.00  0.00    +0.000 S 
ATOM     26  C   UNL     1       6.129   7.130   8.281  0.00  0.00    +0.000 A 
ATOM     27  N   UNL     1       7.066   7.161   9.265  0.00  0.00    +0.000 NA
ATOM     28  C   UNL     1       8.269   7.371   8.845  0.00  0.00    +0.000 A 
ATOM     29  N   UNL     1       8.620   7.548   7.530  0.00  0.00    +0.000 N 
ATOM     30  C   UNL     1       7.704   7.561   6.501  0.00  0.00    +0.000 A 
ATOM     31  O   UNL     1       8.045   7.820   5.352  0.00  0.00    +0.000 OA
ATOM     32  C   UNL     1       6.341   7.295   6.924  0.00  0.00    +0.000 A 
ATOM     33  H   UNL     1       9.576   7.742   7.273  0.00  0.00    +0.000 HD
ENDBRANCH  21  23
ENDBRANCH  20  21
ENDBRANCH  19  20
ENDBRANCH   4  19
TORSDOF 7
