REMARK  Name = 
REMARK  10 active torsions:
REMARK  status: ('A' for Active; 'I' for Inactive)
REMARK    1  A    between atoms: C_2  and  C_3
REMARK    2  A    between atoms: C_3  and  N_4
REMARK    3  A    between atoms: C_3  and  C_21
REMARK    4  A    between atoms: N_4  and  C_5
REMARK    5  A    between atoms: C_5  and  C_6
REMARK    6  A    between atoms: C_9  and  C_10
REMARK    7  A    between atoms: C_10  and  C_11
REMARK    8  A    between atoms: C_10  and  C_13
REMARK    9  A    between atoms: C_11  and  O_12
REMARK   10  A    between atoms: C_13  and  N_14
REMARK                            x       y       z     vdW  Elec       q    Type
REMARK                         _______ _______ _______ _____ _____    ______ ____
ROOT
ATOM      1  C   UNL     1      10.756   2.271   7.885  0.00  0.00    +0.000 C 
ENDROOT
BRANCH   1   2
ATOM      2  C   UNL     1       9.309   2.589   7.588  0.00  0.00    +0.000 A 
ATOM      3  C   UNL     1       8.855   2.657   6.268  0.00  0.00    +0.000 A 
ATOM      4  C   UNL     1       7.515   2.928   5.989  0.00  0.00    +0.000 A 
ATOM      5  C   UNL     1       6.581   3.142   7.016  0.00  0.00    +0.000 A 
ATOM      6  C   UNL     1       7.038   3.053   8.340  0.00  0.00    +0.000 A 
ATOM      7  C   UNL     1       8.383   2.777   8.622  0.00  0.00    +0.000 A 
BRANCH   5   8
ATOM      8  C   UNL     1       5.123   3.533   6.739  0.00  0.00    +0.000 C 
BRANCH   8   9
ATOM      9  C   UNL     1       4.112   2.512   7.300  0.00  0.00    +0.000 C 
BRANCH   9  10
ATOM     10  O   UNL     1       4.195   1.246   6.652  0.00  0.00    +0.000 OA
ATOM     11  H   UNL     1       5.123   0.958   6.702  0.00  0.00    +0.000 HD
ENDBRANCH   9  10
ENDBRANCH   8   9
BRANCH   8  12
ATOM     12  C   UNL     1       4.857   3.827   5.236  0.00  0.00    +0.000 C 
BRANCH  12  13
ATOM     13  N   UNL     1       3.527   4.359   4.889  0.00  0.00    +0.000 NA
ATOM     14  C   UNL     1       3.403   4.490   3.424  0.00  0.00    +0.000 C 
ATOM     15  C   UNL     1       3.954   5.868   3.111  0.00  0.00    +0.000 C 
ATOM     16  C   UNL     1       3.446   6.697   4.272  0.00  0.00    +0.000 C 
ATOM     17  C   UNL     1       3.300   5.712   5.426  0.00  0.00    +0.000 C 
ENDBRANCH  12  13
ENDBRANCH   8  12
ENDBRANCH   5   8
ENDBRANCH   1   2
BRANCH   1  18
ATOM     18  N   UNL     1      11.668   3.274   7.320  0.00  0.00    +0.000 NA
ATOM     19  H   UNL     1      11.498   3.321   6.316  0.00  0.00    +0.000 HD
BRANCH  18  20
ATOM     20  C   UNL     1      13.078   2.878   7.503  0.00  0.00    +0.000 C 
BRANCH  20  21
ATOM     21  C   UNL     1      13.926   3.918   6.788  0.00  0.00    +0.000 A 
ATOM     22  C   UNL     1      14.457   5.067   7.359  0.00  0.00    +0.000 A 
ATOM     23  S   UNL     1      15.410   5.985   6.276  0.00  0.00    +0.000 S 
ATOM     24  C   UNL     1      15.108   4.906   4.997  0.00  0.00    +0.000 A 
ATOM     25  N   UNL     1      15.629   5.105   3.757  0.00  0.00    +0.000 NA
ATOM     26  C   UNL     1      15.301   4.205   2.888  0.00  0.00    +0.000 A 
ATOM     27  N   UNL     1      14.493   3.126   3.145  0.00  0.00    +0.000 N 
ATOM     28  C   UNL     1      13.924   2.893   4.376  0.00  0.00    +0.000 A 
ATOM     29  O   UNL     1      13.154   1.959   4.579  0.00  0.00    +0.000 OA
ATOM     30  C   UNL     1      14.290   3.865   5.390  0.00  0.00    +0.000 A 
ATOM     31  H   UNL     1      14.263   2.472   2.414  0.00  0.00    +0.000 HD
ENDBRANCH  20  21
BRANCH  20  33
ATOM     32  N   UNL     1      13.808   2.639  10.040  0.00  0.00    +0.000 NA
ATOM     33  C   UNL     1      13.493   2.756   8.925  0.00  0.00    +0.000 C 
ENDBRANCH  20  33
ENDBRANCH  18  20
ENDBRANCH   1  18
TORSDOF 10
