REMARK  Name = 
REMARK  7 active torsions:
REMARK  status: ('A' for Active; 'I' for Inactive)
REMARK    1  A    between atoms: C_2  and  C_20
REMARK    2  A    between atoms: N_3  and  C_4
REMARK    3  A    between atoms: C_4  and  C_5
REMARK    4  A    between atoms: C_9  and  C_10
REMARK    5  A    between atoms: C_10  and  O_11
REMARK    6  A    between atoms: O_11  and  C_12
REMARK    7  A    between atoms: C_12  and  C_13
REMARK                            x       y       z     vdW  Elec       q    Type
REMARK                         _______ _______ _______ _____ _____    ______ ____
ROOT
ATOM      1  C   UNL     1       2.386   1.921  -1.531  0.00  0.00    +0.000 C 
ENDROOT
BRANCH   1   2
ATOM      2  C   UNL     1       3.314   2.911  -2.179  0.00  0.00    +0.000 A 
ATOM      3  C   UNL     1       4.432   2.471  -2.887  0.00  0.00    +0.000 A 
ATOM      4  C   UNL     1       5.244   3.413  -3.495  0.00  0.00    +0.000 A 
ATOM      5  N   UNL     1       5.023   4.745  -3.448  0.00  0.00    +0.000 NA
ATOM      6  C   UNL     1       3.957   5.172  -2.726  0.00  0.00    +0.000 A 
ATOM      7  C   UNL     1       3.092   4.289  -2.077  0.00  0.00    +0.000 A 
BRANCH   6   8
ATOM      8  C   UNL     1       3.710   6.662  -2.666  0.00  0.00    +0.000 C 
BRANCH   8   9
ATOM      9  O   UNL     1       3.726   7.092  -1.306  0.00  0.00    +0.000 OA
BRANCH   9  10
ATOM     10  C   UNL     1       3.532   8.497  -1.181  0.00  0.00    +0.000 C 
BRANCH  10  11
ATOM     11  C   UNL     1       3.595   8.878   0.271  0.00  0.00    +0.000 A 
ATOM     12  C   UNL     1       3.989  10.160   0.668  0.00  0.00    +0.000 A 
ATOM     13  C   UNL     1       4.012  10.487   2.022  0.00  0.00    +0.000 A 
ATOM     14  C   UNL     1       3.627   9.523   2.939  0.00  0.00    +0.000 A 
ATOM     15  N   UNL     1       3.226   8.280   2.600  0.00  0.00    +0.000 NA
ATOM     16  C   UNL     1       3.216   7.991   1.276  0.00  0.00    +0.000 A 
ENDBRANCH  10  11
ENDBRANCH   9  10
ENDBRANCH   8   9
ENDBRANCH   6   8
ENDBRANCH   1   2
BRANCH   1  19
ATOM     17  O   UNL     1       3.891  -0.331  -0.755  0.00  0.00    +0.000 OA
ATOM     18  C   UNL     1       3.565   0.490   0.098  0.00  0.00    +0.000 C 
ATOM     19  N   UNL     1       2.806   1.594  -0.195  0.00  0.00    +0.000 N 
ATOM     20  H   UNL     1       2.722   2.332   0.495  0.00  0.00    +0.000 HD
BRANCH  18  21
ATOM     21  C   UNL     1       3.910   0.303   1.512  0.00  0.00    +0.000 A 
ATOM     22  C   UNL     1       4.195  -0.967   1.996  0.00  0.00    +0.000 A 
ATOM     23  S   UNL     1       4.523  -1.001   3.670  0.00  0.00    +0.000 S 
ATOM     24  C   UNL     1       4.346   0.687   3.798  0.00  0.00    +0.000 A 
ATOM     25  N   UNL     1       4.519   1.322   4.989  0.00  0.00    +0.000 NA
ATOM     26  C   UNL     1       4.404   2.608   4.929  0.00  0.00    +0.000 A 
ATOM     27  N   UNL     1       4.121   3.316   3.790  0.00  0.00    +0.000 N 
ATOM     28  C   UNL     1       3.861   2.711   2.585  0.00  0.00    +0.000 A 
ATOM     29  O   UNL     1       3.478   3.357   1.615  0.00  0.00    +0.000 OA
ATOM     30  C   UNL     1       4.022   1.268   2.585  0.00  0.00    +0.000 A 
ATOM     31  H   UNL     1       4.018   4.321   3.815  0.00  0.00    +0.000 HD
ENDBRANCH  18  21
ENDBRANCH   1  19
TORSDOF 7
