REMARK  Name = 
REMARK  5 active torsions:
REMARK  status: ('A' for Active; 'I' for Inactive)
REMARK    1  A    between atoms: C_2  and  C_3
REMARK    2  A    between atoms: C_6  and  N_7
REMARK    3  A    between atoms: N_7  and  C_8
REMARK    4  A    between atoms: C_8  and  C_9
REMARK    5  A    between atoms: C_13  and  C_14
REMARK                            x       y       z     vdW  Elec       q    Type
REMARK                         _______ _______ _______ _____ _____    ______ ____
ROOT
ATOM      1  C   UNL     1       8.686  -0.863  -0.675  0.00  0.00    +0.000 C 
ATOM      2  C   UNL     1       8.494  -1.647  -1.971  0.00  0.00    +0.000 C 
ATOM      3  C   UNL     1       9.085  -2.319  -0.774  0.00  0.00    +0.000 C 
ENDROOT
BRANCH   1   4
ATOM      4  C   UNL     1       9.752   0.226  -0.640  0.00  0.00    +0.000 A 
ATOM      5  C   UNL     1       9.776   1.242  -1.609  0.00  0.00    +0.000 A 
ATOM      6  C   UNL     1      10.562   2.379  -1.444  0.00  0.00    +0.000 A 
ATOM      7  C   UNL     1      11.367   2.509  -0.312  0.00  0.00    +0.000 A 
ATOM      8  C   UNL     1      11.433   1.494   0.657  0.00  0.00    +0.000 A 
ATOM      9  C   UNL     1      10.620   0.359   0.461  0.00  0.00    +0.000 A 
BRANCH   8  10
ATOM     10  C   UNL     1      12.293   1.626   1.856  0.00  0.00    +0.000 A 
ATOM     11  C   UNL     1      12.464   2.863   2.508  0.00  0.00    +0.000 A 
ATOM     12  C   UNL     1      13.287   2.991   3.632  0.00  0.00    +0.000 A 
ATOM     13  C   UNL     1      13.950   1.877   4.139  0.00  0.00    +0.000 A 
ATOM     14  C   UNL     1      13.786   0.644   3.519  0.00  0.00    +0.000 A 
ATOM     15 CL   UNL     1      14.592  -0.741   4.148  0.00  0.00    +0.000 Cl
ATOM     16  C   UNL     1      12.974   0.517   2.390  0.00  0.00    +0.000 A 
ENDBRANCH   8  10
ENDBRANCH   1   4
BRANCH   1  17
ATOM     17  N   UNL     1       7.431  -0.394  -0.066  0.00  0.00    +0.000 N 
ATOM     18  H   UNL     1       7.146   0.545  -0.343  0.00  0.00    +0.000 HD
BRANCH  17  22
ATOM     19  C   UNL     1       5.999  -0.778   3.750  0.00  0.00    +0.000 A 
ATOM     20  C   UNL     1       5.747   0.330   2.964  0.00  0.00    +0.000 A 
ATOM     21  N   UNL     1       6.272   0.483   1.726  0.00  0.00    +0.000 NA
ATOM     22  C   UNL     1       7.072  -0.508   1.271  0.00  0.00    +0.000 A 
ATOM     23  C   UNL     1       7.358  -1.592   2.096  0.00  0.00    +0.000 A 
ATOM     24  N   UNL     1       6.838  -1.761   3.344  0.00  0.00    +0.000 NA
BRANCH  19  26
ATOM     25  N   UNL     1       4.738  -1.064   5.999  0.00  0.00    +0.000 NA
ATOM     26  C   UNL     1       5.325  -0.958   5.002  0.00  0.00    +0.000 C 
ENDBRANCH  19  26
ENDBRANCH  17  22
ENDBRANCH   1  17
TORSDOF 5
