REMARK  Name = 
REMARK  6 active torsions:
REMARK  status: ('A' for Active; 'I' for Inactive)
REMARK    1  A    between atoms: C_2  and  C_20
REMARK    2  A    between atoms: N_3  and  C_4
REMARK    3  A    between atoms: C_4  and  C_5
REMARK    4  A    between atoms: C_8  and  C_9
REMARK    5  A    between atoms: C_9  and  C_10
REMARK    6  A    between atoms: C_10  and  C_11
REMARK                            x       y       z     vdW  Elec       q    Type
REMARK                         _______ _______ _______ _____ _____    ______ ____
ROOT
ATOM      1  C   UNL     1       2.185  -1.960   1.578  0.00  0.00    +0.000 C 
ENDROOT
BRANCH   1   2
ATOM      2  C   UNL     1       3.103  -2.840   2.387  0.00  0.00    +0.000 A 
ATOM      3  C   UNL     1       4.072  -2.274   3.224  0.00  0.00    +0.000 A 
ATOM      4  C   UNL     1       4.894  -3.085   4.014  0.00  0.00    +0.000 A 
ATOM      5  C   UNL     1       4.766  -4.481   3.983  0.00  0.00    +0.000 A 
ATOM      6  C   UNL     1       3.823  -5.046   3.116  0.00  0.00    +0.000 A 
ATOM      7  C   UNL     1       3.005  -4.236   2.320  0.00  0.00    +0.000 A 
BRANCH   5   8
ATOM      8  C   UNL     1       5.649  -5.371   4.831  0.00  0.00    +0.000 C 
BRANCH   8   9
ATOM      9  C   UNL     1       5.503  -5.111   6.332  0.00  0.00    +0.000 C 
BRANCH   9  10
ATOM     10  C   UNL     1       6.399  -6.012   7.163  0.00  0.00    +0.000 C 
ATOM     11  O   UNL     1       7.089  -6.897   6.659  0.00  0.00    +0.000 OA
ATOM     12  N   UNL     1       6.419  -5.757   8.520  0.00  0.00    +0.000 N 
ATOM     13  C   UNL     1       5.617  -4.798   9.256  0.00  0.00    +0.000 C 
ATOM     14  C   UNL     1       6.547  -4.370  10.377  0.00  0.00    +0.000 C 
ATOM     15  C   UNL     1       7.297  -5.654  10.719  0.00  0.00    +0.000 C 
ATOM     16  C   UNL     1       7.356  -6.430   9.403  0.00  0.00    +0.000 C 
ENDBRANCH   9  10
ENDBRANCH   8   9
ENDBRANCH   5   8
ENDBRANCH   1   2
BRANCH   1  19
ATOM     17  O   UNL     1       3.516   0.450   1.007  0.00  0.00    +0.000 OA
ATOM     18  C   UNL     1       3.424  -0.399   0.125  0.00  0.00    +0.000 C 
ATOM     19  N   UNL     1       2.766  -1.586   0.314  0.00  0.00    +0.000 N 
ATOM     20  H   UNL     1       2.837  -2.318  -0.385  0.00  0.00    +0.000 HD
BRANCH  18  21
ATOM     21  C   UNL     1       3.976  -0.168  -1.214  0.00  0.00    +0.000 A 
ATOM     22  C   UNL     1       4.205   1.131  -1.653  0.00  0.00    +0.000 A 
ATOM     23  S   UNL     1       4.891   1.216  -3.211  0.00  0.00    +0.000 S 
ATOM     24  C   UNL     1       4.938  -0.479  -3.342  0.00  0.00    +0.000 A 
ATOM     25  N   UNL     1       5.476  -1.081  -4.438  0.00  0.00    +0.000 NA
ATOM     26  C   UNL     1       5.486  -2.372  -4.384  0.00  0.00    +0.000 A 
ATOM     27  N   UNL     1       4.984  -3.115  -3.348  0.00  0.00    +0.000 N 
ATOM     28  C   UNL     1       4.348  -2.555  -2.264  0.00  0.00    +0.000 A 
ATOM     29  O   UNL     1       3.763  -3.247  -1.442  0.00  0.00    +0.000 OA
ATOM     30  C   UNL     1       4.387  -1.104  -2.236  0.00  0.00    +0.000 A 
ATOM     31  H   UNL     1       4.979  -4.123  -3.391  0.00  0.00    +0.000 HD
ENDBRANCH  18  21
ENDBRANCH   1  19
TORSDOF 6
