REMARK  Name = 
REMARK  8 active torsions:
REMARK  status: ('A' for Active; 'I' for Inactive)
REMARK    1  A    between atoms: C_2  and  C_3
REMARK    2  A    between atoms: C_3  and  N_4
REMARK    3  A    between atoms: C_3  and  C_27
REMARK    4  A    between atoms: N_4  and  C_5
REMARK    5  A    between atoms: C_5  and  C_6
REMARK    6  A    between atoms: C_9  and  C_10
REMARK    7  A    between atoms: C_10  and  N_11
REMARK    8  A    between atoms: C_12  and  C_14
REMARK                            x       y       z     vdW  Elec       q    Type
REMARK                         _______ _______ _______ _____ _____    ______ ____
ROOT
ATOM      1  C   UNL     1       0.247   0.508   1.294  0.00  0.00    +0.000 A 
ATOM      2  C   UNL     1      -0.556  -0.329   2.085  0.00  0.00    +0.000 A 
ATOM      3  C   UNL     1      -1.950  -0.213   2.067  0.00  0.00    +0.000 A 
ATOM      4  C   UNL     1      -2.573   0.739   1.249  0.00  0.00    +0.000 A 
ATOM      5  C   UNL     1      -1.766   1.585   0.486  0.00  0.00    +0.000 A 
ATOM      6  F   UNL     1      -2.326   2.533  -0.279  0.00  0.00    +0.000 F 
ATOM      7  C   UNL     1      -0.376   1.478   0.501  0.00  0.00    +0.000 A 
ENDROOT
BRANCH   1   8
ATOM      8  C   UNL     1       1.754   0.391   1.333  0.00  0.00    +0.000 C 
BRANCH   8   9
ATOM      9  N   UNL     1       2.188  -0.952   0.944  0.00  0.00    +0.000 NA
ATOM     10  H   UNL     1       1.852  -1.140  -0.002  0.00  0.00    +0.000 HD
BRANCH   9  11
ATOM     11  C   UNL     1       3.670  -1.080   0.921  0.00  0.00    +0.000 C 
BRANCH  11  12
ATOM     12  C   UNL     1       4.086  -2.482   0.469  0.00  0.00    +0.000 A 
ATOM     13  C   UNL     1       3.647  -3.615   1.161  0.00  0.00    +0.000 A 
ATOM     14  C   UNL     1       4.064  -4.873   0.736  0.00  0.00    +0.000 A 
ATOM     15  C   UNL     1       4.906  -4.975  -0.364  0.00  0.00    +0.000 A 
ATOM     16  C   UNL     1       5.291  -3.807  -1.003  0.00  0.00    +0.000 A 
ATOM     17  N   UNL     1       4.898  -2.572  -0.619  0.00  0.00    +0.000 NA
ENDBRANCH  11  12
BRANCH  11  19
ATOM     18  N   UNL     1       4.808  -0.489   3.240  0.00  0.00    +0.000 NA
ATOM     19  C   UNL     1       4.323  -0.768   2.219  0.00  0.00    +0.000 C 
ENDBRANCH  11  19
ENDBRANCH   9  11
ENDBRANCH   8   9
ENDBRANCH   1   8
BRANCH   4  20
ATOM     20  C   UNL     1      -4.070   0.876   1.236  0.00  0.00    +0.000 C 
BRANCH  20  21
ATOM     21  N   UNL     1      -4.499   1.789   2.265  0.00  0.00    +0.000 N 
ATOM     22  C   UNL     1      -5.708   1.679   2.901  0.00  0.00    +0.000 C 
ATOM     23  O   UNL     1      -6.475   0.741   2.706  0.00  0.00    +0.000 OA
ATOM     24  H   UNL     1      -4.031   2.689   2.268  0.00  0.00    +0.000 HD
BRANCH  22  25
ATOM     25  C   UNL     1      -6.000   2.720   3.894  0.00  0.00    +0.000 A 
ATOM     26  C   UNL     1      -6.853   2.452   4.955  0.00  0.00    +0.000 A 
ATOM     27  S   UNL     1      -7.008   3.752   6.050  0.00  0.00    +0.000 S 
ATOM     28  C   UNL     1      -5.984   4.737   5.114  0.00  0.00    +0.000 A 
ATOM     29  N   UNL     1      -5.694   6.011   5.492  0.00  0.00    +0.000 NA
ATOM     30  C   UNL     1      -4.930   6.651   4.671  0.00  0.00    +0.000 A 
ATOM     31  N   UNL     1      -4.430   6.134   3.504  0.00  0.00    +0.000 N 
ATOM     32  C   UNL     1      -4.670   4.844   3.098  0.00  0.00    +0.000 A 
ATOM     33  O   UNL     1      -4.166   4.394   2.075  0.00  0.00    +0.000 OA
ATOM     34  C   UNL     1      -5.526   4.081   3.986  0.00  0.00    +0.000 A 
ATOM     35  H   UNL     1      -3.831   6.684   2.906  0.00  0.00    +0.000 HD
ENDBRANCH  22  25
ENDBRANCH  20  21
ENDBRANCH   4  20
TORSDOF 8
