REMARK  Name = 
REMARK  5 active torsions:
REMARK  status: ('A' for Active; 'I' for Inactive)
REMARK    1  A    between atoms: N_1  and  C_2
REMARK    2  A    between atoms: C_2  and  C_3
REMARK    3  A    between atoms: C_6  and  O_7
REMARK    4  A    between atoms: O_7  and  C_8
REMARK    5  A    between atoms: C_8  and  C_9
REMARK                            x       y       z     vdW  Elec       q    Type
REMARK                         _______ _______ _______ _____ _____    ______ ____
ROOT
ATOM      1  C   UNL     1       2.989   1.332   0.188  0.00  0.00    +0.000 A 
ATOM      2  C   UNL     1       2.330   2.429  -0.387  0.00  0.00    +0.000 A 
ATOM      3  C   UNL     1       2.766   3.734  -0.131  0.00  0.00    +0.000 A 
ATOM      4  C   UNL     1       3.856   3.957   0.710  0.00  0.00    +0.000 A 
ATOM      5  C   UNL     1       4.554   2.866   1.233  0.00  0.00    +0.000 A 
ATOM      6  C   UNL     1       4.117   1.565   0.984  0.00  0.00    +0.000 A 
ENDROOT
BRANCH   1   7
ATOM      7  C   UNL     1       2.485  -0.071  -0.023  0.00  0.00    +0.000 C 
BRANCH   7   8
ATOM      8  N   UNL     1       2.575  -0.475  -1.419  0.00  0.00    +0.000 NA
ATOM      9  H   UNL     1       2.303  -1.452  -1.499  0.00  0.00    +0.000 HD
ATOM     10  H   UNL     1       3.550  -0.422  -1.712  0.00  0.00    +0.000 HD
ENDBRANCH   7   8
ENDBRANCH   1   7
BRANCH   4  11
ATOM     11  O   UNL     1       4.156   5.270   0.967  0.00  0.00    +0.000 OA
BRANCH  11  12
ATOM     12  C   UNL     1       4.879   5.485   2.182  0.00  0.00    +0.000 C 
BRANCH  12  13
ATOM     13  C   UNL     1       4.747   6.906   2.674  0.00  0.00    +0.000 A 
ATOM     14  C   UNL     1       3.638   7.697   2.371  0.00  0.00    +0.000 A 
ATOM     15  C   UNL     1       3.550   8.962   2.934  0.00  0.00    +0.000 A 
ATOM     16  N   UNL     1       4.473   9.478   3.773  0.00  0.00    +0.000 NA
ATOM     17  C   UNL     1       5.532   8.695   4.061  0.00  0.00    +0.000 A 
ATOM     18  C   UNL     1       5.711   7.420   3.548  0.00  0.00    +0.000 A 
ENDBRANCH  12  13
ENDBRANCH  11  12
ENDBRANCH   4  11
TORSDOF 5
