REMARK  Name = 
REMARK  7 active torsions:
REMARK  status: ('A' for Active; 'I' for Inactive)
REMARK    1  A    between atoms: N_1  and  C_2
REMARK    2  A    between atoms: C_2  and  N_3
REMARK    3  A    between atoms: C_2  and  C_16
REMARK    4  A    between atoms: C_4  and  C_6
REMARK    5  A    between atoms: C_19  and  C_20
REMARK    6  A    between atoms: C_20  and  N_21
REMARK    7  A    between atoms: C_22  and  C_24
REMARK                            x       y       z     vdW  Elec       q    Type
REMARK                         _______ _______ _______ _____ _____    ______ ____
ROOT
ATOM      1  C   UNL     1       2.363  -0.080   0.027  0.00  0.00    +0.000 C 
ENDROOT
BRANCH   1   2
ATOM      2  C   UNL     1       2.866   1.351   0.048  0.00  0.00    +0.000 A 
ATOM      3  C   UNL     1       1.977   2.406  -0.210  0.00  0.00    +0.000 A 
ATOM      4  C   UNL     1       2.412   3.736  -0.193  0.00  0.00    +0.000 A 
ATOM      5  C   UNL     1       3.752   4.047   0.074  0.00  0.00    +0.000 A 
ATOM      6  C   UNL     1       4.640   3.001   0.351  0.00  0.00    +0.000 A 
ATOM      7  C   UNL     1       4.206   1.671   0.329  0.00  0.00    +0.000 A 
BRANCH   5   8
ATOM      8  C   UNL     1       4.225   5.478   0.072  0.00  0.00    +0.000 C 
BRANCH   8   9
ATOM      9  N   UNL     1       4.085   6.090   1.370  0.00  0.00    +0.000 N 
ATOM     10  C   UNL     1       4.530   7.369   1.606  0.00  0.00    +0.000 C 
ATOM     11  O   UNL     1       5.096   8.038   0.746  0.00  0.00    +0.000 OA
ATOM     12  H   UNL     1       3.545   5.609   2.073  0.00  0.00    +0.000 HD
BRANCH  10  13
ATOM     13  C   UNL     1       4.282   7.877   2.939  0.00  0.00    +0.000 A 
ATOM     14  C   UNL     1       3.703   7.308   4.063  0.00  0.00    +0.000 A 
ATOM     15  C   UNL     1       3.721   8.265   5.109  0.00  0.00    +0.000 A 
ATOM     16  C   UNL     1       4.310   9.403   4.605  0.00  0.00    +0.000 A 
ATOM     17  N   UNL     1       4.645   9.161   3.302  0.00  0.00    +0.000 N 
ATOM     18  H   UNL     1       5.097   9.814   2.671  0.00  0.00    +0.000 HD
ENDBRANCH  10  13
ENDBRANCH   8   9
ENDBRANCH   5   8
ENDBRANCH   1   2
BRANCH   1  19
ATOM     19  N   UNL     1       2.607  -0.747   1.268  0.00  0.00    +0.000 N 
ATOM     20  C   UNL     1       1.840  -1.793   1.710  0.00  0.00    +0.000 C 
ATOM     21  O   UNL     1       0.912  -2.250   1.047  0.00  0.00    +0.000 OA
ATOM     22  H   UNL     1       3.198  -0.260   1.933  0.00  0.00    +0.000 HD
BRANCH  20  23
ATOM     23  C   UNL     1       2.246  -2.412   2.978  0.00  0.00    +0.000 A 
ATOM     24  C   UNL     1       1.886  -3.727   3.243  0.00  0.00    +0.000 A 
ATOM     25  S   UNL     1       2.486  -4.317   4.726  0.00  0.00    +0.000 S 
ATOM     26  C   UNL     1       3.205  -2.819   5.092  0.00  0.00    +0.000 A 
ATOM     27  N   UNL     1       3.877  -2.633   6.260  0.00  0.00    +0.000 NA
ATOM     28  C   UNL     1       4.337  -1.439   6.428  0.00  0.00    +0.000 A 
ATOM     29  N   UNL     1       4.195  -0.415   5.527  0.00  0.00    +0.000 N 
ATOM     30  C   UNL     1       3.571  -0.571   4.313  0.00  0.00    +0.000 A 
ATOM     31  O   UNL     1       3.533   0.339   3.491  0.00  0.00    +0.000 OA
ATOM     32  C   UNL     1       3.007  -1.888   4.088  0.00  0.00    +0.000 A 
ATOM     33  H   UNL     1       4.595   0.493   5.711  0.00  0.00    +0.000 HD
ENDBRANCH  20  23
ENDBRANCH   1  19
BRANCH   1  34
ATOM     34  N   UNL     1       3.058  -0.876  -0.963  0.00  0.00    +0.000 NA
ATOM     35  H   UNL     1       2.600  -1.787  -0.976  0.00  0.00    +0.000 HD
ATOM     36  H   UNL     1       3.997  -1.050  -0.620  0.00  0.00    +0.000 HD
ENDBRANCH   1  34
TORSDOF 7
