REMARK  Name = 
REMARK  10 active torsions:
REMARK  status: ('A' for Active; 'I' for Inactive)
REMARK    1  A    between atoms: C_1  and  C_2
REMARK    2  A    between atoms: C_2  and  C_3
REMARK    3  A    between atoms: C_2  and  N_4
REMARK    4  A    between atoms: C_5  and  C_7
REMARK    5  A    between atoms: C_10  and  O_11
REMARK    6  A    between atoms: O_11  and  C_12
REMARK    7  A    between atoms: C_12  and  C_13
REMARK    8  A    between atoms: C_13  and  C_14
REMARK    9  A    between atoms: C_13  and  C_15
REMARK   10  A    between atoms: C_13  and  C_16
REMARK                            x       y       z     vdW  Elec       q    Type
REMARK                         _______ _______ _______ _____ _____    ______ ____
ROOT
ATOM      1  C   UNL     1       5.005   0.922   2.942  0.00  0.00    +0.000 A 
ATOM      2  C   UNL     1       4.386   0.375   4.062  0.00  0.00    +0.000 A 
ATOM      3  C   UNL     1       4.843   0.735   5.332  0.00  0.00    +0.000 A 
ATOM      4  C   UNL     1       5.902   1.628   5.449  0.00  0.00    +0.000 A 
ATOM      5  C   UNL     1       6.447   2.135   4.268  0.00  0.00    +0.000 A 
ATOM      6  N   UNL     1       6.035   1.810   3.014  0.00  0.00    +0.000 NA
ENDROOT
BRANCH   1   8
ATOM      7  N   UNL     1       5.210   1.104   0.512  0.00  0.00    +0.000 N 
ATOM      8  C   UNL     1       4.545   0.517   1.574  0.00  0.00    +0.000 C 
ATOM      9  O   UNL     1       3.628  -0.290   1.435  0.00  0.00    +0.000 OA
ATOM     10  H   UNL     1       6.015   1.679   0.745  0.00  0.00    +0.000 HD
BRANCH   7  12
ATOM     11  C   UNL     1       5.153   1.999  -1.770  0.00  0.00    +0.000 C 
ATOM     12  C   UNL     1       4.886   0.796  -0.872  0.00  0.00    +0.000 C 
ATOM     13  C   UNL     1       5.664  -0.418  -1.374  0.00  0.00    +0.000 C 
ENDBRANCH   7  12
ENDBRANCH   1   8
BRANCH   4  14
ATOM     14  O   UNL     1       6.471   2.055   6.614  0.00  0.00    +0.000 OA
BRANCH  14  15
ATOM     15  C   UNL     1       5.930   1.539   7.841  0.00  0.00    +0.000 C 
BRANCH  15  16
ATOM     16  C   UNL     1       6.699   2.122   9.064  0.00  0.00    +0.000 C 
ATOM     17  C   UNL     1       8.194   1.733   8.979  0.00  0.00    +0.000 C 
ATOM     18  C   UNL     1       6.635   3.667   8.983  0.00  0.00    +0.000 C 
BRANCH  16  19
ATOM     19  C   UNL     1       6.131   1.557  10.384  0.00  0.00    +0.000 A 
ATOM     20  C   UNL     1       6.146   0.169  10.626  0.00  0.00    +0.000 A 
ATOM     21  C   UNL     1       5.755  -0.361  11.860  0.00  0.00    +0.000 A 
ATOM     22  C   UNL     1       5.332   0.484  12.879  0.00  0.00    +0.000 A 
ATOM     23  C   UNL     1       5.270   1.854  12.653  0.00  0.00    +0.000 A 
ATOM     24  C   UNL     1       5.655   2.384  11.417  0.00  0.00    +0.000 A 
ENDBRANCH  16  19
ENDBRANCH  15  16
ENDBRANCH  14  15
ENDBRANCH   4  14
TORSDOF 6
