REMARK  Name = 
REMARK  9 active torsions:
REMARK  status: ('A' for Active; 'I' for Inactive)
REMARK    1  A    between atoms: C_1  and  C_2
REMARK    2  A    between atoms: C_6  and  C_7
REMARK    3  A    between atoms: C_7  and  C_8
REMARK    4  A    between atoms: C_7  and  N_9
REMARK    5  A    between atoms: N_9  and  C_10
REMARK    6  A    between atoms: C_10  and  C_11
REMARK    7  A    between atoms: C_14  and  C_15
REMARK    8  A    between atoms: C_15  and  N_16
REMARK    9  A    between atoms: C_17  and  C_19
REMARK                            x       y       z     vdW  Elec       q    Type
REMARK                         _______ _______ _______ _____ _____    ______ ____
ROOT
ATOM      1  C   UNL     1      -5.311   3.608   0.058  0.00  0.00    +0.000 A 
ATOM      2  C   UNL     1      -6.148   4.724   0.070  0.00  0.00    +0.000 A 
ATOM      3  C   UNL     1      -7.529   4.553   0.079  0.00  0.00    +0.000 A 
ATOM      4  C   UNL     1      -8.047   3.259   0.084  0.00  0.00    +0.000 A 
ATOM      5  N   UNL     1      -7.255   2.158   0.041  0.00  0.00    +0.000 NA
ATOM      6  C   UNL     1      -5.916   2.357   0.030  0.00  0.00    +0.000 A 
ENDROOT
BRANCH   1   7
ATOM      7  C   UNL     1      -3.815   3.749   0.092  0.00  0.00    +0.000 C 
BRANCH   7   8
ATOM      8  N   UNL     1      -3.317   4.481   1.267  0.00  0.00    +0.000 NA
ATOM      9  H   UNL     1      -2.295   4.490   1.192  0.00  0.00    +0.000 HD
BRANCH   8  10
ATOM     10  C   UNL     1      -3.608   3.791   2.547  0.00  0.00    +0.000 C 
ATOM     11  C   UNL     1      -3.135   4.684   3.697  0.00  0.00    +0.000 C 
BRANCH  10  17
ATOM     12  C   UNL     1       0.178   0.933   1.380  0.00  0.00    +0.000 C 
ATOM     13  C   UNL     1      -1.127   1.065   2.105  0.00  0.00    +0.000 A 
ATOM     14  C   UNL     1      -1.704  -0.020   2.752  0.00  0.00    +0.000 A 
ATOM     15  C   UNL     1      -2.939   0.148   3.374  0.00  0.00    +0.000 A 
ATOM     16  C   UNL     1      -3.567   1.385   3.325  0.00  0.00    +0.000 A 
ATOM     17  C   UNL     1      -2.933   2.428   2.658  0.00  0.00    +0.000 A 
ATOM     18  N   UNL     1      -1.716   2.282   2.061  0.00  0.00    +0.000 NA
ENDBRANCH  10  17
ENDBRANCH   8  10
ENDBRANCH   7   8
ENDBRANCH   1   7
BRANCH   4  19
ATOM     19  C   UNL     1      -9.543   3.044   0.087  0.00  0.00    +0.000 C 
BRANCH  19  20
ATOM     20  N   UNL     1     -10.059   2.959  -1.260  0.00  0.00    +0.000 N 
ATOM     21  C   UNL     1     -11.313   3.399  -1.586  0.00  0.00    +0.000 C 
ATOM     22  O   UNL     1     -12.046   3.949  -0.767  0.00  0.00    +0.000 OA
ATOM     23  H   UNL     1      -9.570   2.316  -1.876  0.00  0.00    +0.000 HD
BRANCH  21  24
ATOM     24  C   UNL     1     -11.717   3.253  -2.990  0.00  0.00    +0.000 A 
ATOM     25  C   UNL     1     -12.697   4.086  -3.512  0.00  0.00    +0.000 A 
ATOM     26  S   UNL     1     -13.017   3.816  -5.165  0.00  0.00    +0.000 S 
ATOM     27  C   UNL     1     -11.891   2.542  -5.230  0.00  0.00    +0.000 A 
ATOM     28  N   UNL     1     -11.691   1.845  -6.381  0.00  0.00    +0.000 NA
ATOM     29  C   UNL     1     -10.832   0.886  -6.279  0.00  0.00    +0.000 A 
ATOM     30  N   UNL     1     -10.152   0.566  -5.134  0.00  0.00    +0.000 N 
ATOM     31  C   UNL     1     -10.300   1.260  -3.957  0.00  0.00    +0.000 A 
ATOM     32  O   UNL     1      -9.644   0.974  -2.961  0.00  0.00    +0.000 OA
ATOM     33  C   UNL     1     -11.266   2.340  -4.013  0.00  0.00    +0.000 A 
ATOM     34  H   UNL     1      -9.485  -0.194  -5.121  0.00  0.00    +0.000 HD
ENDBRANCH  21  24
ENDBRANCH  19  20
ENDBRANCH   4  19
TORSDOF 7
