REMARK  Name = 
REMARK  8 active torsions:
REMARK  status: ('A' for Active; 'I' for Inactive)
REMARK    1  A    between atoms: C_1  and  C_2
REMARK    2  A    between atoms: C_2  and  C_3
REMARK    3  A    between atoms: C_3  and  N_4
REMARK    4  A    between atoms: C_3  and  C_17
REMARK    5  A    between atoms: C_5  and  C_7
REMARK    6  A    between atoms: C_20  and  C_21
REMARK    7  A    between atoms: C_21  and  C_22
REMARK    8  A    between atoms: C_21  and  C_23
REMARK                            x       y       z     vdW  Elec       q    Type
REMARK                         _______ _______ _______ _____ _____    ______ ____
ROOT
ATOM      1  C   UNL     1      10.660   1.245   5.807  0.00  0.00    +0.000 C 
ENDROOT
BRANCH   1   2
ATOM      2  C   UNL     1      10.214   1.373   4.352  0.00  0.00    +0.000 A 
ATOM      3  C   UNL     1      10.293   0.262   3.496  0.00  0.00    +0.000 A 
ATOM      4  C   UNL     1       9.837   0.337   2.171  0.00  0.00    +0.000 A 
ATOM      5  C   UNL     1       9.292   1.525   1.658  0.00  0.00    +0.000 A 
ATOM      6  C   UNL     1       9.227   2.636   2.506  0.00  0.00    +0.000 A 
ATOM      7  C   UNL     1       9.695   2.565   3.824  0.00  0.00    +0.000 A 
BRANCH   5   8
ATOM      8  C   UNL     1       8.806   1.598   0.214  0.00  0.00    +0.000 C 
ATOM      9  C   UNL     1       9.674   2.546  -0.630  0.00  0.00    +0.000 C 
BRANCH   8  10
ATOM     10  C   UNL     1       7.324   1.947   0.079  0.00  0.00    +0.000 A 
ATOM     11  C   UNL     1       6.357   0.949   0.197  0.00  0.00    +0.000 A 
ATOM     12  C   UNL     1       5.017   1.281   0.011  0.00  0.00    +0.000 A 
ATOM     13  C   UNL     1       4.671   2.596  -0.276  0.00  0.00    +0.000 A 
ATOM     14  C   UNL     1       5.685   3.532  -0.355  0.00  0.00    +0.000 A 
ATOM     15  N   UNL     1       6.991   3.239  -0.181  0.00  0.00    +0.000 NA
ENDBRANCH   8  10
ENDBRANCH   5   8
ENDBRANCH   1   2
BRANCH   1  16
ATOM     16  N   UNL     1      12.069   1.577   5.934  0.00  0.00    +0.000 N 
ATOM     17  C   UNL     1      12.860   1.029   6.919  0.00  0.00    +0.000 C 
ATOM     18  O   UNL     1      12.418   0.232   7.743  0.00  0.00    +0.000 OA
ATOM     19  H   UNL     1      12.404   2.386   5.420  0.00  0.00    +0.000 HD
BRANCH  17  20
ATOM     20  C   UNL     1      14.283   1.382   6.898  0.00  0.00    +0.000 A 
ATOM     21  C   UNL     1      15.215   0.510   7.447  0.00  0.00    +0.000 A 
ATOM     22  S   UNL     1      16.826   1.053   7.312  0.00  0.00    +0.000 S 
ATOM     23  C   UNL     1      16.329   2.498   6.562  0.00  0.00    +0.000 A 
ATOM     24  N   UNL     1      17.237   3.449   6.211  0.00  0.00    +0.000 NA
ATOM     25  C   UNL     1      16.721   4.506   5.676  0.00  0.00    +0.000 A 
ATOM     26  N   UNL     1      15.379   4.687   5.451  0.00  0.00    +0.000 N 
ATOM     27  C   UNL     1      14.433   3.740   5.752  0.00  0.00    +0.000 A 
ATOM     28  O   UNL     1      13.248   3.908   5.474  0.00  0.00    +0.000 OA
ATOM     29  C   UNL     1      14.960   2.547   6.384  0.00  0.00    +0.000 A 
ATOM     30  H   UNL     1      15.048   5.533   5.005  0.00  0.00    +0.000 HD
ENDBRANCH  17  20
ENDBRANCH   1  16
BRANCH   1  32
ATOM     31  C   UNL     1       8.362   1.601   6.842  0.00  0.00    +0.000 C 
ATOM     32  C   UNL     1       9.814   2.066   6.804  0.00  0.00    +0.000 C 
ENDBRANCH   1  32
TORSDOF 6
