REMARK  Name = 
REMARK  5 active torsions:
REMARK  status: ('A' for Active; 'I' for Inactive)
REMARK    1  A    between atoms: N_1  and  C_2
REMARK    2  A    between atoms: C_2  and  C_3
REMARK    3  A    between atoms: C_3  and  C_4
REMARK    4  A    between atoms: C_7  and  C_8
REMARK    5  A    between atoms: C_8  and  N_9
REMARK                            x       y       z     vdW  Elec       q    Type
REMARK                         _______ _______ _______ _____ _____    ______ ____
ROOT
ATOM      1  C   UNL     1       4.375   0.409  -1.294  0.00  0.00    +0.000 A 
ATOM      2  C   UNL     1       5.027   0.867  -2.446  0.00  0.00    +0.000 A 
ATOM      3  C   UNL     1       6.421   0.980  -2.478  0.00  0.00    +0.000 A 
ATOM      4  C   UNL     1       7.191   0.627  -1.361  0.00  0.00    +0.000 A 
ATOM      5  C   UNL     1       6.536   0.143  -0.220  0.00  0.00    +0.000 A 
ATOM      6  C   UNL     1       5.144   0.030  -0.188  0.00  0.00    +0.000 A 
ENDROOT
BRANCH   1   7
ATOM      7  C   UNL     1       2.867   0.356  -1.233  0.00  0.00    +0.000 C 
BRANCH   7   8
ATOM      8  C   UNL     1       2.291  -0.969  -1.740  0.00  0.00    +0.000 C 
BRANCH   8   9
ATOM      9  N   UNL     1       0.828  -0.950  -1.692  0.00  0.00    +0.000 NA
ATOM     10  H   UNL     1       0.465  -1.827  -2.065  0.00  0.00    +0.000 HD
ATOM     11  H   UNL     1       0.474  -0.213  -2.302  0.00  0.00    +0.000 HD
ENDBRANCH   8   9
ENDBRANCH   7   8
ENDBRANCH   1   7
BRANCH   4  12
ATOM     12  C   UNL     1       8.691   0.792  -1.365  0.00  0.00    +0.000 C 
BRANCH  12  13
ATOM     13  N   UNL     1       9.094   2.104  -0.876  0.00  0.00    +0.000 N 
ATOM     14  C   UNL     1       9.345   3.203  -1.665  0.00  0.00    +0.000 A 
ATOM     15  C   UNL     1       9.719   4.243  -0.841  0.00  0.00    +0.000 A 
ATOM     16  C   UNL     1       9.711   3.760   0.494  0.00  0.00    +0.000 A 
ATOM     17  C   UNL     1       9.984   4.316   1.755  0.00  0.00    +0.000 A 
ATOM     18  C   UNL     1       9.862   3.476   2.856  0.00  0.00    +0.000 A 
ATOM     19  F   UNL     1      10.098   3.951   4.086  0.00  0.00    +0.000 F 
ATOM     20  C   UNL     1       9.497   2.152   2.675  0.00  0.00    +0.000 A 
ATOM     21  N   UNL     1       9.228   1.563   1.484  0.00  0.00    +0.000 NA
ATOM     22  C   UNL     1       9.340   2.414   0.442  0.00  0.00    +0.000 A 
ENDBRANCH  12  13
ENDBRANCH   4  12
TORSDOF 5
