REMARK  Name = 
REMARK  6 active torsions:
REMARK  status: ('A' for Active; 'I' for Inactive)
REMARK    1  A    between atoms: C_2  and  C_4
REMARK    2  A    between atoms: N_8  and  C_9
REMARK    3  A    between atoms: C_9  and  C_10
REMARK    4  A    between atoms: C_15  and  C_16
REMARK    5  A    between atoms: C_20  and  O_21
REMARK    6  A    between atoms: O_21  and  C_22
REMARK                            x       y       z     vdW  Elec       q    Type
REMARK                         _______ _______ _______ _____ _____    ______ ____
ROOT
ATOM      1  C   UNL     1       6.899  -4.803  -4.385  0.00  0.00    +0.000 A 
ATOM      2  C   UNL     1       7.561  -4.195  -5.454  0.00  0.00    +0.000 A 
ATOM      3  C   UNL     1       7.976  -4.962  -6.540  0.00  0.00    +0.000 A 
ATOM      4  C   UNL     1       7.745  -6.341  -6.551  0.00  0.00    +0.000 A 
ATOM      5  F   UNL     1       8.193  -7.026  -7.615  0.00  0.00    +0.000 F 
ATOM      6  C   UNL     1       7.089  -6.999  -5.497  0.00  0.00    +0.000 A 
ATOM      7  C   UNL     1       6.672  -6.191  -4.418  0.00  0.00    +0.000 A 
ENDROOT
BRANCH   6   8
ATOM      8  C   UNL     1       6.838  -8.461  -5.493  0.00  0.00    +0.000 A 
ATOM      9  C   UNL     1       6.871  -9.206  -4.299  0.00  0.00    +0.000 A 
ATOM     10  C   UNL     1       6.629 -10.583  -4.290  0.00  0.00    +0.000 A 
ATOM     11  C   UNL     1       6.348 -11.257  -5.476  0.00  0.00    +0.000 A 
ATOM     12  C   UNL     1       6.269 -10.544  -6.669  0.00  0.00    +0.000 A 
ATOM     13  C   UNL     1       6.538  -9.169  -6.670  0.00  0.00    +0.000 A 
BRANCH  12  14
ATOM     14  O   UNL     1       5.997 -11.071  -7.895  0.00  0.00    +0.000 OA
BRANCH  14  15
ATOM     15  C   UNL     1       5.126 -12.187  -7.997  0.00  0.00    +0.000 C 
ATOM     16  F   UNL     1       4.454 -12.471  -6.861  0.00  0.00    +0.000 F 
ATOM     17  F   UNL     1       4.211 -11.926  -8.959  0.00  0.00    +0.000 F 
ATOM     18  F   UNL     1       5.830 -13.277  -8.372  0.00  0.00    +0.000 F 
ENDBRANCH  14  15
ENDBRANCH  12  14
ENDBRANCH   6   8
BRANCH   1  19
ATOM     19  C   UNL     1       6.460  -3.992  -3.187  0.00  0.00    +0.000 C 
BRANCH  19  24
ATOM     20  C   UNL     1       6.928  -1.742   1.176  0.00  0.00    +0.000 A 
ATOM     21  C   UNL     1       5.921  -1.946   0.263  0.00  0.00    +0.000 A 
ATOM     22  N   UNL     1       6.055  -2.726  -0.830  0.00  0.00    +0.000 NA
ATOM     23  C   UNL     1       7.255  -3.288  -1.043  0.00  0.00    +0.000 A 
ATOM     24  N   UNL     1       7.449  -4.111  -2.137  0.00  0.00    +0.000 N 
ATOM     25  N   UNL     1       8.310  -3.107  -0.240  0.00  0.00    +0.000 NA
ATOM     26  C   UNL     1       8.123  -2.343   0.862  0.00  0.00    +0.000 A 
ATOM     27  H   UNL     1       8.422  -4.060  -2.409  0.00  0.00    +0.000 HD
BRANCH  20  29
ATOM     28  N   UNL     1       5.524  -0.732   2.885  0.00  0.00    +0.000 N 
ATOM     29  C   UNL     1       6.788  -0.925   2.388  0.00  0.00    +0.000 C 
ATOM     30  O   UNL     1       7.766  -0.452   2.948  0.00  0.00    +0.000 OA
ATOM     31  H   UNL     1       5.465  -0.243   3.770  0.00  0.00    +0.000 HD
ATOM     32  H   UNL     1       4.728  -1.288   2.617  0.00  0.00    +0.000 HD
ENDBRANCH  20  29
ENDBRANCH  19  24
ENDBRANCH   1  19
TORSDOF 6
