REMARK  Name = 
REMARK  3 active torsions:
REMARK  status: ('A' for Active; 'I' for Inactive)
REMARK    1  A    between atoms: C_2  and  C_4
REMARK    2  A    between atoms: N_8  and  C_9
REMARK    3  A    between atoms: C_9  and  C_10
REMARK                            x       y       z     vdW  Elec       q    Type
REMARK                         _______ _______ _______ _____ _____    ______ ____
ROOT
ATOM      1  C   UNL     1       3.004   0.286   2.153  0.00  0.00    +0.000 A 
ATOM      2  C   UNL     1       4.302   0.285   1.655  0.00  0.00    +0.000 A 
ATOM      3  C   UNL     1       5.190  -0.698   2.088  0.00  0.00    +0.000 A 
ATOM      4  C   UNL     1       4.778  -1.658   3.019  0.00  0.00    +0.000 A 
ATOM      5  N   UNL     1       5.712  -2.673   3.344  0.00  0.00    +0.000 N 
ATOM      6  N   UNL     1       3.525  -1.655   3.511  0.00  0.00    +0.000 NA
ATOM      7  C   UNL     1       2.669  -0.691   3.078  0.00  0.00    +0.000 A 
ATOM      8  H   UNL     1       6.625  -2.242   3.454  0.00  0.00    +0.000 HD
ENDROOT
BRANCH   1  10
ATOM      9  N   UNL     1       2.141   1.888   0.537  0.00  0.00    +0.000 N 
ATOM     10  C   UNL     1       1.992   1.288   1.760  0.00  0.00    +0.000 C 
ATOM     11  O   UNL     1       1.050   1.565   2.489  0.00  0.00    +0.000 OA
ATOM     12  H   UNL     1       1.395   2.508   0.249  0.00  0.00    +0.000 HD
ATOM     13  H   UNL     1       2.738   1.512  -0.185  0.00  0.00    +0.000 HD
ENDBRANCH   1  10
BRANCH   5  14
ATOM     14  C   UNL     1       5.426  -3.743   4.340  0.00  0.00    +0.000 C 
ATOM     15  C   UNL     1       5.260  -5.133   3.739  0.00  0.00    +0.000 C 
ATOM     16  C   UNL     1       4.097  -4.473   4.400  0.00  0.00    +0.000 C 
BRANCH  14  17
ATOM     17  C   UNL     1       6.213  -3.650   5.654  0.00  0.00    +0.000 C 
ATOM     18  C   UNL     1       5.940  -2.333   6.391  0.00  0.00    +0.000 C 
ATOM     19  C   UNL     1       6.797  -2.239   7.645  0.00  0.00    +0.000 C 
ATOM     20  O   UNL     1       8.180  -2.378   7.330  0.00  0.00    +0.000 OA
ATOM     21  C   UNL     1       8.473  -3.651   6.757  0.00  0.00    +0.000 C 
ATOM     22  C   UNL     1       7.726  -3.831   5.442  0.00  0.00    +0.000 C 
ENDBRANCH  14  17
ENDBRANCH   5  14
TORSDOF 3
