REMARK  Name = 
REMARK  6 active torsions:
REMARK  status: ('A' for Active; 'I' for Inactive)
REMARK    1  A    between atoms: C_2  and  C_3
REMARK    2  A    between atoms: N_10  and  C_11
REMARK    3  A    between atoms: C_11  and  C_12
REMARK    4  A    between atoms: C_15  and  C_16
REMARK    5  A    between atoms: C_16  and  N_17
REMARK    6  A    between atoms: C_18  and  C_20
REMARK                            x       y       z     vdW  Elec       q    Type
REMARK                         _______ _______ _______ _____ _____    ______ ____
ROOT
ATOM      1  C   UNL     1       0.733  -4.116  -0.122  0.00  0.00    +0.000 A 
ATOM      2  C   UNL     1       0.120  -5.378  -0.072  0.00  0.00    +0.000 A 
ATOM      3  C   UNL     1      -1.275  -5.494  -0.025  0.00  0.00    +0.000 A 
ATOM      4  C   UNL     1      -2.088  -4.356  -0.049  0.00  0.00    +0.000 A 
ATOM      5  C   UNL     1      -1.474  -3.095  -0.077  0.00  0.00    +0.000 A 
ATOM      6  C   UNL     1      -0.082  -2.977  -0.126  0.00  0.00    +0.000 A 
ENDROOT
BRANCH   1   7
ATOM      7  C   UNL     1       2.233  -3.983  -0.150  0.00  0.00    +0.000 C 
BRANCH   7  15
ATOM      8  C   UNL     1       4.124  -3.208  -4.061  0.00  0.00    +0.000 A 
ATOM      9  C   UNL     1       4.768  -3.612  -5.219  0.00  0.00    +0.000 A 
ATOM     10  C   UNL     1       5.578  -4.722  -4.894  0.00  0.00    +0.000 A 
ATOM     11  C   UNL     1       5.440  -4.939  -3.546  0.00  0.00    +0.000 A 
ATOM     12  N   UNL     1       4.505  -4.051  -3.028  0.00  0.00    +0.000 N 
ATOM     13  C   UNL     1       4.118  -4.035  -1.672  0.00  0.00    +0.000 C 
ATOM     14  O   UNL     1       4.942  -4.311  -0.812  0.00  0.00    +0.000 OA
ATOM     15  N   UNL     1       2.769  -3.829  -1.485  0.00  0.00    +0.000 N 
ATOM     16  H   UNL     1       2.117  -3.826  -2.260  0.00  0.00    +0.000 HD
BRANCH   8  18
ATOM     17  N   UNL     1       2.634  -1.119  -3.790  0.00  0.00    +0.000 NA
ATOM     18  C   UNL     1       3.303  -2.057  -3.913  0.00  0.00    +0.000 C 
ENDBRANCH   8  18
ENDBRANCH   7  15
ENDBRANCH   1   7
BRANCH   4  19
ATOM     19  C   UNL     1      -3.591  -4.465  -0.021  0.00  0.00    +0.000 C 
BRANCH  19  20
ATOM     20  N   UNL     1      -4.111  -4.376   1.321  0.00  0.00    +0.000 N 
ATOM     21  C   UNL     1      -5.462  -4.356   1.555  0.00  0.00    +0.000 C 
ATOM     22  O   UNL     1      -6.284  -4.275   0.645  0.00  0.00    +0.000 OA
ATOM     23  H   UNL     1      -3.475  -4.609   2.078  0.00  0.00    +0.000 HD
BRANCH  21  24
ATOM     24  C   UNL     1      -5.892  -4.429   2.958  0.00  0.00    +0.000 A 
ATOM     25  C   UNL     1      -7.117  -3.897   3.341  0.00  0.00    +0.000 A 
ATOM     26  S   UNL     1      -7.493  -4.163   4.984  0.00  0.00    +0.000 S 
ATOM     27  C   UNL     1      -6.066  -5.061   5.219  0.00  0.00    +0.000 A 
ATOM     28  N   UNL     1      -5.822  -5.698   6.396  0.00  0.00    +0.000 NA
ATOM     29  C   UNL     1      -4.712  -6.358   6.424  0.00  0.00    +0.000 A 
ATOM     30  N   UNL     1      -3.802  -6.400   5.399  0.00  0.00    +0.000 N 
ATOM     31  C   UNL     1      -3.981  -5.727   4.215  0.00  0.00    +0.000 A 
ATOM     32  O   UNL     1      -3.103  -5.693   3.360  0.00  0.00    +0.000 OA
ATOM     33  C   UNL     1      -5.259  -5.053   4.095  0.00  0.00    +0.000 A 
ATOM     34  H   UNL     1      -2.922  -6.882   5.508  0.00  0.00    +0.000 HD
ENDBRANCH  21  24
ENDBRANCH  19  20
ENDBRANCH   4  19
TORSDOF 6
