REMARK  Name = 
REMARK  4 active torsions:
REMARK  status: ('A' for Active; 'I' for Inactive)
REMARK    1  A    between atoms: C_2  and  C_4
REMARK    2  A    between atoms: N_9  and  C_10
REMARK    3  A    between atoms: C_10  and  C_11
REMARK    4  A    between atoms: C_14  and  C_15
REMARK                            x       y       z     vdW  Elec       q    Type
REMARK                         _______ _______ _______ _____ _____    ______ ____
ROOT
ATOM      1  C   UNL     1       3.403  -2.294  -2.592  0.00  0.00    +0.000 A 
ATOM      2  C   UNL     1       2.791  -1.320  -1.812  0.00  0.00    +0.000 A 
ATOM      3  C   UNL     1       3.336  -1.073  -0.570  0.00  0.00    +0.000 A 
ATOM      4  N   UNL     1       4.421  -1.715  -0.081  0.00  0.00    +0.000 NA
ATOM      5  C   UNL     1       5.016  -2.656  -0.843  0.00  0.00    +0.000 A 
ATOM      6  N   UNL     1       6.104  -3.382  -0.347  0.00  0.00    +0.000 N 
ATOM      7  C   UNL     1       4.513  -2.984  -2.096  0.00  0.00    +0.000 A 
ATOM      8  H   UNL     1       6.811  -3.514  -1.062  0.00  0.00    +0.000 HD
ENDROOT
BRANCH   1  10
ATOM      9  N   UNL     1       2.193  -1.697  -4.622  0.00  0.00    +0.000 N 
ATOM     10  C   UNL     1       2.891  -2.655  -3.936  0.00  0.00    +0.000 C 
ATOM     11  O   UNL     1       3.112  -3.749  -4.435  0.00  0.00    +0.000 OA
ATOM     12  H   UNL     1       1.943  -1.927  -5.576  0.00  0.00    +0.000 HD
ATOM     13  H   UNL     1       2.212  -0.720  -4.371  0.00  0.00    +0.000 HD
ENDBRANCH   1  10
BRANCH   6  14
ATOM     14  C   UNL     1       6.665  -2.955   0.929  0.00  0.00    +0.000 C 
BRANCH  14  15
ATOM     15  C   UNL     1       7.688  -1.860   0.768  0.00  0.00    +0.000 A 
ATOM     16  C   UNL     1       9.040  -2.135   0.554  0.00  0.00    +0.000 A 
ATOM     17  C   UNL     1       9.953  -1.087   0.429  0.00  0.00    +0.000 A 
ATOM     18  C   UNL     1       9.498   0.231   0.508  0.00  0.00    +0.000 A 
ATOM     19  N   UNL     1       8.180   0.516   0.710  0.00  0.00    +0.000 NA
ATOM     20  C   UNL     1       7.318  -0.522   0.832  0.00  0.00    +0.000 A 
BRANCH  18  21
ATOM     21  C   UNL     1      10.482   1.387   0.362  0.00  0.00    +0.000 C 
ATOM     22  F   UNL     1      11.769   0.975   0.149  0.00  0.00    +0.000 F 
ATOM     23  F   UNL     1      10.192   2.209  -0.687  0.00  0.00    +0.000 F 
ATOM     24  F   UNL     1      10.540   2.187   1.465  0.00  0.00    +0.000 F 
ENDBRANCH  18  21
ENDBRANCH  14  15
ENDBRANCH   6  14
TORSDOF 4
