REMARK  Name = 
REMARK  7 active torsions:
REMARK  status: ('A' for Active; 'I' for Inactive)
REMARK    1  A    between atoms: C_1  and  C_2
REMARK    2  A    between atoms: C_2  and  N_3
REMARK    3  A    between atoms: C_2  and  C_17
REMARK    4  A    between atoms: C_4  and  C_6
REMARK    5  A    between atoms: C_20  and  O_21
REMARK    6  A    between atoms: O_21  and  C_22
REMARK    7  A    between atoms: C_22  and  C_23
REMARK                            x       y       z     vdW  Elec       q    Type
REMARK                         _______ _______ _______ _____ _____    ______ ____
ROOT
ATOM      1  N   UNL     1       1.010  -0.293   0.055  0.00  0.00    +0.000 N 
ATOM      2  C   UNL     1       0.251   0.635  -0.619  0.00  0.00    +0.000 C 
ATOM      3  O   UNL     1       0.735   1.578  -1.229  0.00  0.00    +0.000 OA
ATOM      4  H   UNL     1       0.561  -0.946   0.679  0.00  0.00    +0.000 HD
ENDROOT
BRANCH   2   5
ATOM      5  C   UNL     1      -1.188   0.371  -0.597  0.00  0.00    +0.000 A 
ATOM      6  C   UNL     1      -1.724  -0.906  -0.603  0.00  0.00    +0.000 A 
ATOM      7  S   UNL     1      -3.431  -0.917  -0.703  0.00  0.00    +0.000 S 
ATOM      8  C   UNL     1      -3.491   0.785  -0.773  0.00  0.00    +0.000 A 
ATOM      9  N   UNL     1      -4.674   1.439  -0.930  0.00  0.00    +0.000 NA
ATOM     10  C   UNL     1      -4.578   2.731  -1.019  0.00  0.00    +0.000 A 
ATOM     11  N   UNL     1      -5.682   3.488  -1.226  0.00  0.00    +0.000 N 
ATOM     12  N   UNL     1      -3.391   3.406  -0.906  0.00  0.00    +0.000 N 
ATOM     13  C   UNL     1      -2.181   2.799  -0.645  0.00  0.00    +0.000 A 
ATOM     14  O   UNL     1      -1.191   3.465  -0.364  0.00  0.00    +0.000 OA
ATOM     15  C   UNL     1      -2.240   1.351  -0.661  0.00  0.00    +0.000 A 
ATOM     16  H   UNL     1      -6.554   2.988  -1.072  0.00  0.00    +0.000 HD
ATOM     17  H   UNL     1      -5.690   4.447  -0.911  0.00  0.00    +0.000 HD
ATOM     18  H   UNL     1      -3.369   4.411  -0.938  0.00  0.00    +0.000 HD
ENDBRANCH   2   5
BRANCH   1  20
ATOM     19  C   UNL     1       2.900   0.692   1.271  0.00  0.00    +0.000 C 
ATOM     20  C   UNL     1       2.455  -0.190   0.099  0.00  0.00    +0.000 C 
BRANCH  20  21
ATOM     21  C   UNL     1       3.077  -1.574   0.140  0.00  0.00    +0.000 A 
ATOM     22  C   UNL     1       3.445  -2.226  -1.047  0.00  0.00    +0.000 A 
ATOM     23  C   UNL     1       4.181  -3.415  -1.006  0.00  0.00    +0.000 A 
ATOM     24  C   UNL     1       4.543  -3.968   0.222  0.00  0.00    +0.000 A 
ATOM     25  C   UNL     1       4.057  -3.403   1.397  0.00  0.00    +0.000 A 
ATOM     26  C   UNL     1       3.335  -2.214   1.360  0.00  0.00    +0.000 A 
BRANCH  24  27
ATOM     27  O   UNL     1       5.394  -5.040   0.194  0.00  0.00    +0.000 OA
BRANCH  27  28
ATOM     28  C   UNL     1       6.178  -5.180   1.388  0.00  0.00    +0.000 C 
BRANCH  28  29
ATOM     29  C   UNL     1       7.422  -5.966   1.101  0.00  0.00    +0.000 A 
ATOM     30  C   UNL     1       8.328  -5.511   0.149  0.00  0.00    +0.000 A 
ATOM     31  N   UNL     1       9.485  -6.153  -0.127  0.00  0.00    +0.000 NA
ATOM     32  C   UNL     1       9.699  -7.280   0.590  0.00  0.00    +0.000 A 
ATOM     33  C   UNL     1       8.810  -7.733   1.548  0.00  0.00    +0.000 A 
ATOM     34  N   UNL     1       7.659  -7.087   1.833  0.00  0.00    +0.000 NA
ENDBRANCH  28  29
ENDBRANCH  27  28
ENDBRANCH  24  27
ENDBRANCH  20  21
ENDBRANCH   1  20
TORSDOF 6
