REMARK  Name = 
REMARK  5 active torsions:
REMARK  status: ('A' for Active; 'I' for Inactive)
REMARK    1  A    between atoms: C_2  and  C_18
REMARK    2  A    between atoms: N_3  and  C_4
REMARK    3  A    between atoms: C_4  and  C_5
REMARK    4  A    between atoms: C_8  and  C_9
REMARK    5  A    between atoms: C_9  and  C_10
REMARK                            x       y       z     vdW  Elec       q    Type
REMARK                         _______ _______ _______ _____ _____    ______ ____
ROOT
ATOM      1  O   UNL     1       1.042   3.095  -1.313  0.00  0.00    +0.000 OA
ATOM      2  C   UNL     1       1.945   2.262  -1.334  0.00  0.00    +0.000 C 
ATOM      3  N   UNL     1       2.525   1.773  -0.195  0.00  0.00    +0.000 N 
ATOM      4  H   UNL     1       3.375   1.222  -0.261  0.00  0.00    +0.000 HD
ENDROOT
BRANCH   2   5
ATOM      5  C   UNL     1       2.423   1.693  -2.604  0.00  0.00    +0.000 A 
ATOM      6  C   UNL     1       1.607   1.733  -3.724  0.00  0.00    +0.000 A 
ATOM      7  S   UNL     1       2.309   1.031  -5.108  0.00  0.00    +0.000 S 
ATOM      8  C   UNL     1       3.746   0.683  -4.268  0.00  0.00    +0.000 A 
ATOM      9  N   UNL     1       4.804   0.102  -4.901  0.00  0.00    +0.000 NA
ATOM     10  C   UNL     1       5.842  -0.063  -4.156  0.00  0.00    +0.000 A 
ATOM     11  N   UNL     1       5.920   0.280  -2.831  0.00  0.00    +0.000 N 
ATOM     12  C   UNL     1       4.853   0.789  -2.132  0.00  0.00    +0.000 A 
ATOM     13  O   UNL     1       4.907   0.947  -0.916  0.00  0.00    +0.000 OA
ATOM     14  C   UNL     1       3.678   1.059  -2.940  0.00  0.00    +0.000 A 
ATOM     15  H   UNL     1       6.750   0.086  -2.295  0.00  0.00    +0.000 HD
ENDBRANCH   2   5
BRANCH   3  16
ATOM     16  C   UNL     1       2.164   2.235   1.119  0.00  0.00    +0.000 C 
BRANCH  16  17
ATOM     17  C   UNL     1       3.089   3.321   1.604  0.00  0.00    +0.000 A 
ATOM     18  C   UNL     1       2.832   4.659   1.280  0.00  0.00    +0.000 A 
ATOM     19  C   UNL     1       3.653   5.678   1.766  0.00  0.00    +0.000 A 
ATOM     20  C   UNL     1       4.758   5.380   2.574  0.00  0.00    +0.000 A 
ATOM     21  C   UNL     1       5.036   4.038   2.868  0.00  0.00    +0.000 A 
ATOM     22  C   UNL     1       4.215   3.018   2.380  0.00  0.00    +0.000 A 
BRANCH  20  23
ATOM     23  C   UNL     1       5.611   6.489   3.147  0.00  0.00    +0.000 C 
BRANCH  23  24
ATOM     24  C   UNL     1       5.134   6.976   4.495  0.00  0.00    +0.000 A 
ATOM     25  C   UNL     1       5.598   6.388   5.676  0.00  0.00    +0.000 A 
ATOM     26  C   UNL     1       5.104   6.845   6.888  0.00  0.00    +0.000 A 
ATOM     27  N   UNL     1       4.195   7.835   7.005  0.00  0.00    +0.000 NA
ATOM     28  C   UNL     1       3.756   8.390   5.856  0.00  0.00    +0.000 A 
ATOM     29  C   UNL     1       4.189   8.002   4.596  0.00  0.00    +0.000 A 
ENDBRANCH  23  24
ENDBRANCH  20  23
ENDBRANCH  16  17
ENDBRANCH   3  16
TORSDOF 5
