REMARK  Name = 
REMARK  10 active torsions:
REMARK  status: ('A' for Active; 'I' for Inactive)
REMARK    1  A    between atoms: N_1  and  C_2
REMARK    2  A    between atoms: C_2  and  C_3
REMARK    3  A    between atoms: C_3  and  N_4
REMARK    4  A    between atoms: C_3  and  C_22
REMARK    5  A    between atoms: N_4  and  C_5
REMARK    6  A    between atoms: C_5  and  C_6
REMARK    7  A    between atoms: C_9  and  C_10
REMARK    8  A    between atoms: C_10  and  O_11
REMARK    9  A    between atoms: C_10  and  C_12
REMARK   10  A    between atoms: C_12  and  N_13
REMARK                            x       y       z     vdW  Elec       q    Type
REMARK                         _______ _______ _______ _____ _____    ______ ____
ROOT
ATOM      1  C   UNL     1       3.267  -1.243  -0.221  0.00  0.00    +0.000 C 
ENDROOT
BRANCH   1   2
ATOM      2  C   UNL     1       2.942  -2.174   0.920  0.00  0.00    +0.000 A 
ATOM      3  C   UNL     1       3.952  -2.888   1.577  0.00  0.00    +0.000 A 
ATOM      4  C   UNL     1       3.658  -3.684   2.689  0.00  0.00    +0.000 A 
ATOM      5  C   UNL     1       2.345  -3.781   3.177  0.00  0.00    +0.000 A 
ATOM      6  C   UNL     1       1.342  -3.053   2.517  0.00  0.00    +0.000 A 
ATOM      7  C   UNL     1       1.635  -2.261   1.405  0.00  0.00    +0.000 A 
BRANCH   5   8
ATOM      8  C   UNL     1       2.068  -4.667   4.388  0.00  0.00    +0.000 C 
BRANCH   8   9
ATOM      9  O   UNL     1       2.784  -4.157   5.523  0.00  0.00    +0.000 OA
ATOM     10  H   UNL     1       2.896  -3.201   5.388  0.00  0.00    +0.000 HD
ENDBRANCH   8   9
BRANCH   8  11
ATOM     11  C   UNL     1       0.573  -4.780   4.753  0.00  0.00    +0.000 C 
BRANCH  11  12
ATOM     12  N   UNL     1       0.331  -5.694   5.865  0.00  0.00    +0.000 N 
ATOM     13  C   UNL     1      -1.018  -5.732   6.211  0.00  0.00    +0.000 A 
ATOM     14  N   UNL     1      -1.947  -5.589   5.251  0.00  0.00    +0.000 NA
ATOM     15  C   UNL     1      -3.236  -5.613   5.623  0.00  0.00    +0.000 A 
ATOM     16  C   UNL     1      -3.635  -5.778   6.924  0.00  0.00    +0.000 A 
ATOM     17  C   UNL     1      -2.608  -5.916   7.830  0.00  0.00    +0.000 A 
ATOM     18  N   UNL     1      -1.306  -5.887   7.500  0.00  0.00    +0.000 NA
ATOM     19  H   UNL     1       0.852  -5.462   6.709  0.00  0.00    +0.000 HD
ENDBRANCH  11  12
ENDBRANCH   8  11
ENDBRANCH   5   8
ENDBRANCH   1   2
BRANCH   1  20
ATOM     20  N   UNL     1       3.909  -1.922  -1.355  0.00  0.00    +0.000 NA
ATOM     21  H   UNL     1       3.256  -2.620  -1.712  0.00  0.00    +0.000 HD
BRANCH  20  22
ATOM     22  C   UNL     1       4.209  -0.969  -2.438  0.00  0.00    +0.000 C 
BRANCH  22  23
ATOM     23  C   UNL     1       4.851  -1.702  -3.606  0.00  0.00    +0.000 A 
ATOM     24  C   UNL     1       6.032  -2.426  -3.525  0.00  0.00    +0.000 A 
ATOM     25  S   UNL     1       6.810  -2.569  -5.044  0.00  0.00    +0.000 S 
ATOM     26  C   UNL     1       5.514  -1.806  -5.844  0.00  0.00    +0.000 A 
ATOM     27  N   UNL     1       5.576  -1.485  -7.164  0.00  0.00    +0.000 NA
ATOM     28  C   UNL     1       4.482  -0.988  -7.640  0.00  0.00    +0.000 A 
ATOM     29  N   UNL     1       3.322  -0.817  -6.925  0.00  0.00    +0.000 N 
ATOM     30  C   UNL     1       3.222  -1.098  -5.580  0.00  0.00    +0.000 A 
ATOM     31  O   UNL     1       2.166  -0.973  -4.969  0.00  0.00    +0.000 OA
ATOM     32  C   UNL     1       4.457  -1.572  -4.987  0.00  0.00    +0.000 A 
ATOM     33  H   UNL     1       2.478  -0.505  -7.381  0.00  0.00    +0.000 HD
ENDBRANCH  22  23
BRANCH  22  34
ATOM     34  C   UNL     1       5.195   0.179  -1.987  0.00  0.00    +0.000 C 
BRANCH  34  35
ATOM     35  N   UNL     1       5.579   1.132  -3.040  0.00  0.00    +0.000 NA
ATOM     36  H   UNL     1       6.122   0.637  -3.750  0.00  0.00    +0.000 HD
ATOM     37  H   UNL     1       4.742   1.472  -3.511  0.00  0.00    +0.000 HD
ENDBRANCH  34  35
ENDBRANCH  22  34
ENDBRANCH  20  22
ENDBRANCH   1  20
TORSDOF 10
