REMARK  Name = 
REMARK  5 active torsions:
REMARK  status: ('A' for Active; 'I' for Inactive)
REMARK    1  A    between atoms: N_1  and  C_2
REMARK    2  A    between atoms: C_2  and  C_3
REMARK    3  A    between atoms: C_5  and  C_6
REMARK    4  A    between atoms: C_6  and  C_7
REMARK    5  A    between atoms: C_13  and  C_14
REMARK                            x       y       z     vdW  Elec       q    Type
REMARK                         _______ _______ _______ _____ _____    ______ ____
ROOT
ATOM      1  C   UNL     1       5.622   3.344   3.115  0.00  0.00    +0.000 A 
ATOM      2  C   UNL     1       5.330   4.382   2.254  0.00  0.00    +0.000 A 
ATOM      3  N   UNL     1       5.130   5.521   2.992  0.00  0.00    +0.000 N 
ATOM      4  C   UNL     1       5.205   5.230   4.332  0.00  0.00    +0.000 A 
ATOM      5  C   UNL     1       5.022   6.060   5.438  0.00  0.00    +0.000 A 
ATOM      6  C   UNL     1       5.146   5.476   6.702  0.00  0.00    +0.000 A 
ATOM      7  C   UNL     1       5.459   4.118   6.856  0.00  0.00    +0.000 A 
ATOM      8  C   UNL     1       5.655   3.312   5.724  0.00  0.00    +0.000 A 
ATOM      9  C   UNL     1       5.518   3.876   4.440  0.00  0.00    +0.000 A 
ATOM     10  H   UNL     1       4.933   6.437   2.613  0.00  0.00    +0.000 HD
ENDROOT
BRANCH   7  11
ATOM     11  C   UNL     1       5.564   3.591   8.245  0.00  0.00    +0.000 C 
ATOM     12  N   UNL     1       5.869   2.267   8.427  0.00  0.00    +0.000 N 
ATOM     13  O   UNL     1       5.383   4.305   9.220  0.00  0.00    +0.000 OA
ATOM     14  H   UNL     1       6.028   1.594   7.695  0.00  0.00    +0.000 HD
ATOM     15  H   UNL     1       5.925   1.947   9.385  0.00  0.00    +0.000 HD
ENDBRANCH   7  11
BRANCH   1  16
ATOM     16  C   UNL     1       5.995   1.935   2.759  0.00  0.00    +0.000 C 
BRANCH  16  19
ATOM     17  C   UNL     1       3.035   0.098   1.386  0.00  0.00    +0.000 C 
ATOM     18  C   UNL     1       3.786   1.393   1.617  0.00  0.00    +0.000 C 
ATOM     19  C   UNL     1       4.797   0.989   2.667  0.00  0.00    +0.000 C 
ATOM     20  C   UNL     1       5.162  -0.417   2.197  0.00  0.00    +0.000 C 
ATOM     21  O   UNL     1       4.007  -0.959   1.528  0.00  0.00    +0.000 OA
BRANCH  17  22
ATOM     22  C   UNL     1       2.349   0.062   0.008  0.00  0.00    +0.000 C 
BRANCH  22  23
ATOM     23  N   UNL     1       3.313   0.204  -1.097  0.00  0.00    +0.000 NA
ATOM     24  H   UNL     1       2.809   0.106  -1.976  0.00  0.00    +0.000 HD
ATOM     25  H   UNL     1       3.974  -0.570  -1.048  0.00  0.00    +0.000 HD
ENDBRANCH  22  23
ENDBRANCH  17  22
ENDBRANCH  16  19
ENDBRANCH   1  16
TORSDOF 5
