REMARK  Name = 
REMARK  5 active torsions:
REMARK  status: ('A' for Active; 'I' for Inactive)
REMARK    1  A    between atoms: C_2  and  C_4
REMARK    2  A    between atoms: C_7  and  N_8
REMARK    3  A    between atoms: N_8  and  C_9
REMARK    4  A    between atoms: C_9  and  C_10
REMARK    5  A    between atoms: C_14  and  C_15
REMARK                            x       y       z     vdW  Elec       q    Type
REMARK                         _______ _______ _______ _____ _____    ______ ____
ROOT
ATOM      1  C   UNL     1       5.037   5.637   2.023  0.00  0.00    +0.000 C 
ATOM      2  C   UNL     1       4.895   5.453   3.532  0.00  0.00    +0.000 C 
ATOM      3  C   UNL     1       3.690   5.765   2.714  0.00  0.00    +0.000 C 
ENDROOT
BRANCH   1   4
ATOM      4  C   UNL     1       5.679   6.932   1.519  0.00  0.00    +0.000 A 
ATOM      5  C   UNL     1       5.108   7.672   0.473  0.00  0.00    +0.000 A 
ATOM      6  C   UNL     1       5.641   8.891   0.065  0.00  0.00    +0.000 A 
ATOM      7  C   UNL     1       6.758   9.411   0.713  0.00  0.00    +0.000 A 
ATOM      8  C   UNL     1       7.368   8.724   1.775  0.00  0.00    +0.000 A 
ATOM      9  C   UNL     1       6.829   7.471   2.131  0.00  0.00    +0.000 A 
BRANCH   8  10
ATOM     10  C   UNL     1       8.486   9.328   2.535  0.00  0.00    +0.000 A 
ATOM     11  C   UNL     1       8.510  10.711   2.802  0.00  0.00    +0.000 A 
ATOM     12  C   UNL     1       9.543  11.298   3.539  0.00  0.00    +0.000 A 
ATOM     13  C   UNL     1      10.568  10.505   4.038  0.00  0.00    +0.000 A 
ATOM     14 CL   UNL     1      11.835  11.222   4.954  0.00  0.00    +0.000 Cl
ATOM     15  C   UNL     1      10.571   9.134   3.800  0.00  0.00    +0.000 A 
ATOM     16  C   UNL     1       9.541   8.553   3.051  0.00  0.00    +0.000 A 
ENDBRANCH   8  10
ENDBRANCH   1   4
BRANCH   1  17
ATOM     17  N   UNL     1       5.431   4.415   1.298  0.00  0.00    +0.000 N 
ATOM     18  H   UNL     1       6.422   4.190   1.334  0.00  0.00    +0.000 HD
BRANCH  17  22
ATOM     19  C   UNL     1       3.630   2.756  -2.158  0.00  0.00    +0.000 A 
ATOM     20  C   UNL     1       3.090   3.912  -1.589  0.00  0.00    +0.000 A 
ATOM     21  C   UNL     1       3.667   4.465  -0.439  0.00  0.00    +0.000 A 
ATOM     22  C   UNL     1       4.819   3.917   0.130  0.00  0.00    +0.000 A 
ATOM     23  C   UNL     1       5.316   2.724  -0.421  0.00  0.00    +0.000 A 
ATOM     24  C   UNL     1       4.730   2.146  -1.553  0.00  0.00    +0.000 A 
BRANCH  19  26
ATOM     25  N   UNL     1       2.396   2.959  -4.247  0.00  0.00    +0.000 N 
ATOM     26  C   UNL     1       3.042   2.132  -3.369  0.00  0.00    +0.000 C 
ATOM     27  O   UNL     1       3.162   0.936  -3.604  0.00  0.00    +0.000 OA
ATOM     28  H   UNL     1       2.103   2.540  -5.120  0.00  0.00    +0.000 HD
ATOM     29  H   UNL     1       2.516   3.960  -4.227  0.00  0.00    +0.000 HD
ENDBRANCH  19  26
ENDBRANCH  17  22
ENDBRANCH   1  17
TORSDOF 5
