REMARK  Name = 
REMARK  3 active torsions:
REMARK  status: ('A' for Active; 'I' for Inactive)
REMARK    1  A    between atoms: C_2  and  C_4
REMARK    2  A    between atoms: N_8  and  C_9
REMARK    3  A    between atoms: C_9  and  C_10
REMARK                            x       y       z     vdW  Elec       q    Type
REMARK                         _______ _______ _______ _____ _____    ______ ____
ROOT
ATOM      1  C   UNL     1       2.661  -1.955  -0.579  0.00  0.00    +0.000 A 
ATOM      2  C   UNL     1       3.949  -1.433  -0.564  0.00  0.00    +0.000 A 
ATOM      3  C   UNL     1       4.873  -1.901  -1.496  0.00  0.00    +0.000 A 
ATOM      4  C   UNL     1       4.494  -2.862  -2.440  0.00  0.00    +0.000 A 
ATOM      5  N   UNL     1       5.464  -3.212  -3.403  0.00  0.00    +0.000 N 
ATOM      6  N   UNL     1       3.250  -3.381  -2.454  0.00  0.00    +0.000 NA
ATOM      7  C   UNL     1       2.371  -2.939  -1.515  0.00  0.00    +0.000 A 
ATOM      8  H   UNL     1       6.309  -3.538  -2.947  0.00  0.00    +0.000 HD
ENDROOT
BRANCH   1  10
ATOM      9  N   UNL     1       1.688  -0.222   0.818  0.00  0.00    +0.000 N 
ATOM     10  C   UNL     1       1.607  -1.508   0.357  0.00  0.00    +0.000 C 
ATOM     11  O   UNL     1       0.683  -2.241   0.679  0.00  0.00    +0.000 OA
ATOM     12  H   UNL     1       0.903   0.108   1.366  0.00  0.00    +0.000 HD
ATOM     13  H   UNL     1       2.275   0.475   0.383  0.00  0.00    +0.000 HD
ENDBRANCH   1  10
BRANCH   5  14
ATOM     14  C   UNL     1       5.131  -3.814  -4.713  0.00  0.00    +0.000 C 
ATOM     15  C   UNL     1       5.323  -2.850  -5.879  0.00  0.00    +0.000 C 
ATOM     16  C   UNL     1       3.953  -3.341  -5.545  0.00  0.00    +0.000 C 
BRANCH  14  17
ATOM     17  C   UNL     1       5.555  -5.271  -4.929  0.00  0.00    +0.000 C 
ATOM     18  C   UNL     1       4.857  -6.220  -3.944  0.00  0.00    +0.000 C 
ATOM     19  C   UNL     1       5.247  -7.674  -4.205  0.00  0.00    +0.000 C 
ATOM     20  C   UNL     1       6.761  -7.867  -4.177  0.00  0.00    +0.000 C 
ATOM     21  C   UNL     1       7.473  -6.909  -5.129  0.00  0.00    +0.000 C 
ATOM     22  C   UNL     1       7.081  -5.455  -4.868  0.00  0.00    +0.000 C 
ENDBRANCH  14  17
ENDBRANCH   5  14
TORSDOF 3
