REMARK  Name = 
REMARK  6 active torsions:
REMARK  status: ('A' for Active; 'I' for Inactive)
REMARK    1  A    between atoms: C_2  and  C_4
REMARK    2  A    between atoms: C_7  and  N_8
REMARK    3  A    between atoms: N_8  and  C_9
REMARK    4  A    between atoms: C_9  and  C_10
REMARK    5  A    between atoms: C_10  and  C_11
REMARK    6  A    between atoms: C_14  and  C_15
REMARK                            x       y       z     vdW  Elec       q    Type
REMARK                         _______ _______ _______ _____ _____    ______ ____
ROOT
ATOM      1  C   UNL     1       5.160   3.560   4.791  0.00  0.00    +0.000 C 
ATOM      2  C   UNL     1       4.779   2.654   5.953  0.00  0.00    +0.000 C 
ATOM      3  C   UNL     1       3.734   3.502   5.309  0.00  0.00    +0.000 C 
ENDROOT
BRANCH   1   4
ATOM      4  N   UNL     1       5.487   2.903   3.510  0.00  0.00    +0.000 N 
ATOM      5  H   UNL     1       4.815   2.944   2.750  0.00  0.00    +0.000 HD
BRANCH   4   9
ATOM      6  C   UNL     1       8.724   0.256   2.836  0.00  0.00    +0.000 A 
ATOM      7  C   UNL     1       8.460   0.709   4.129  0.00  0.00    +0.000 A 
ATOM      8  C   UNL     1       7.402   1.596   4.358  0.00  0.00    +0.000 A 
ATOM      9  C   UNL     1       6.561   2.014   3.319  0.00  0.00    +0.000 A 
ATOM     10  C   UNL     1       6.866   1.584   2.020  0.00  0.00    +0.000 A 
ATOM     11  C   UNL     1       7.939   0.718   1.776  0.00  0.00    +0.000 A 
BRANCH   6  13
ATOM     12  N   UNL     1      10.244  -1.508   3.557  0.00  0.00    +0.000 N 
ATOM     13  C   UNL     1       9.853  -0.673   2.551  0.00  0.00    +0.000 C 
ATOM     14  O   UNL     1      10.386  -0.708   1.451  0.00  0.00    +0.000 OA
ATOM     15  H   UNL     1      10.948  -2.194   3.316  0.00  0.00    +0.000 HD
ATOM     16  H   UNL     1       9.664  -1.694   4.360  0.00  0.00    +0.000 HD
ENDBRANCH   6  13
ENDBRANCH   4   9
ENDBRANCH   1   4
BRANCH   1  17
ATOM     17  C   UNL     1       5.926   4.852   5.082  0.00  0.00    +0.000 C 
BRANCH  17  18
ATOM     18  C   UNL     1       5.713   5.902   4.014  0.00  0.00    +0.000 A 
ATOM     19  C   UNL     1       6.583   6.010   2.923  0.00  0.00    +0.000 A 
ATOM     20  C   UNL     1       6.377   6.995   1.960  0.00  0.00    +0.000 A 
ATOM     21  C   UNL     1       5.291   7.846   2.111  0.00  0.00    +0.000 A 
ATOM     22  N   UNL     1       4.413   7.772   3.152  0.00  0.00    +0.000 NA
ATOM     23  C   UNL     1       4.651   6.804   4.070  0.00  0.00    +0.000 A 
BRANCH  21  24
ATOM     24  C   UNL     1       5.036   8.907   1.086  0.00  0.00    +0.000 C 
ATOM     25  N   UNL     1       3.937   9.694   1.309  0.00  0.00    +0.000 N 
ATOM     26  O   UNL     1       5.749   9.069   0.102  0.00  0.00    +0.000 OA
ATOM     27  H   UNL     1       3.360   9.524   2.124  0.00  0.00    +0.000 HD
ATOM     28  H   UNL     1       3.693  10.411   0.643  0.00  0.00    +0.000 HD
ENDBRANCH  21  24
ENDBRANCH  17  18
ENDBRANCH   1  17
TORSDOF 6
