REMARK  Name = 
REMARK  7 active torsions:
REMARK  status: ('A' for Active; 'I' for Inactive)
REMARK    1  A    between atoms: C_1  and  O_2
REMARK    2  A    between atoms: O_2  and  C_3
REMARK    3  A    between atoms: N_10  and  C_11
REMARK    4  A    between atoms: C_11  and  C_12
REMARK    5  A    between atoms: C_15  and  C_16
REMARK    6  A    between atoms: C_16  and  C_17
REMARK    7  A    between atoms: C_17  and  N_18
REMARK                            x       y       z     vdW  Elec       q    Type
REMARK                         _______ _______ _______ _____ _____    ______ ____
ROOT
ATOM      1  C   UNL     1       5.365  -4.513  -3.980  0.00  0.00    +0.000 C 
ENDROOT
BRANCH   1   9
ATOM      2  C   UNL     1       7.167  -1.108  -0.341  0.00  0.00    +0.000 A 
ATOM      3  C   UNL     1       7.527  -1.176  -1.686  0.00  0.00    +0.000 A 
ATOM      4  C   UNL     1       6.922  -2.097  -2.556  0.00  0.00    +0.000 A 
ATOM      5  C   UNL     1       5.949  -2.970  -2.039  0.00  0.00    +0.000 A 
ATOM      6  C   UNL     1       5.574  -2.909  -0.690  0.00  0.00    +0.000 A 
ATOM      7  C   UNL     1       4.562  -3.885  -0.490  0.00  0.00    +0.000 A 
ATOM      8  C   UNL     1       4.358  -4.528  -1.688  0.00  0.00    +0.000 A 
ATOM      9  N   UNL     1       5.216  -3.987  -2.618  0.00  0.00    +0.000 N 
ATOM     10  C   UNL     1       6.203  -1.977   0.164  0.00  0.00    +0.000 A 
BRANCH   2  12
ATOM     11  C   UNL     1       8.204   0.982   0.037  0.00  0.00    +0.000 C 
ATOM     12  O   UNL     1       7.721  -0.245   0.573  0.00  0.00    +0.000 OA
ENDBRANCH   2  12
ENDBRANCH   1   9
BRANCH   1  13
ATOM     13  C   UNL     1       4.402  -3.863  -4.931  0.00  0.00    +0.000 A 
ATOM     14  C   UNL     1       4.763  -2.753  -5.695  0.00  0.00    +0.000 A 
ATOM     15  C   UNL     1       3.787  -2.046  -6.394  0.00  0.00    +0.000 A 
ATOM     16  C   UNL     1       2.467  -2.481  -6.325  0.00  0.00    +0.000 A 
ATOM     17  N   UNL     1       2.116  -3.623  -5.690  0.00  0.00    +0.000 NA
ATOM     18  C   UNL     1       3.081  -4.286  -5.016  0.00  0.00    +0.000 A 
BRANCH  16  19
ATOM     19  C   UNL     1       1.341  -1.620  -6.844  0.00  0.00    +0.000 C 
BRANCH  19  20
ATOM     20  C   UNL     1       0.793  -0.721  -5.725  0.00  0.00    +0.000 C 
BRANCH  20  21
ATOM     21  N   UNL     1      -0.310   0.121  -6.195  0.00  0.00    +0.000 NA
ATOM     22  H   UNL     1       0.020   0.753  -6.924  0.00  0.00    +0.000 HD
ATOM     23  H   UNL     1      -0.630   0.707  -5.427  0.00  0.00    +0.000 HD
ENDBRANCH  20  21
ENDBRANCH  19  20
ENDBRANCH  16  19
ENDBRANCH   1  13
TORSDOF 6
