REMARK  Name = 
REMARK  8 active torsions:
REMARK  status: ('A' for Active; 'I' for Inactive)
REMARK    1  A    between atoms: C_1  and  N_2
REMARK    2  A    between atoms: N_2  and  C_3
REMARK    3  A    between atoms: C_4  and  C_6
REMARK    4  A    between atoms: C_6  and  C_7
REMARK    5  A    between atoms: C_7  and  C_8
REMARK    6  A    between atoms: C_11  and  O_12
REMARK    7  A    between atoms: O_12  and  C_13
REMARK    8  A    between atoms: C_13  and  C_14
REMARK                            x       y       z     vdW  Elec       q    Type
REMARK                         _______ _______ _______ _____ _____    ______ ____
ROOT
ATOM      1  C   UNL     1       6.783   1.997  -2.006  0.00  0.00    +0.000 A 
ATOM      2  C   UNL     1       7.546   2.038  -3.178  0.00  0.00    +0.000 A 
ATOM      3  C   UNL     1       8.937   2.043  -3.106  0.00  0.00    +0.000 A 
ATOM      4  C   UNL     1       9.528   1.980  -1.859  0.00  0.00    +0.000 A 
ATOM      5  N   UNL     1       8.834   1.949  -0.704  0.00  0.00    +0.000 NA
ATOM      6  C   UNL     1       7.485   1.965  -0.803  0.00  0.00    +0.000 A 
ENDROOT
BRANCH   1   7
ATOM      7  C   UNL     1       5.271   1.983  -1.976  0.00  0.00    +0.000 C 
BRANCH   7   8
ATOM      8  C   UNL     1       4.601   2.008  -3.349  0.00  0.00    +0.000 C 
BRANCH   8  12
ATOM      9  C   UNL     1       0.968   2.003  -4.470  0.00  0.00    +0.000 C 
ATOM     10  N   UNL     1       2.419   2.030  -4.492  0.00  0.00    +0.000 N 
ATOM     11  C   UNL     1       3.094   2.067  -5.782  0.00  0.00    +0.000 C 
ATOM     12  C   UNL     1       3.087   1.993  -3.269  0.00  0.00    +0.000 C 
ATOM     13  O   UNL     1       2.492   1.949  -2.193  0.00  0.00    +0.000 OA
ENDBRANCH   8  12
ENDBRANCH   7   8
ENDBRANCH   1   7
BRANCH   4  14
ATOM     14  O   UNL     1      10.907   1.984  -1.829  0.00  0.00    +0.000 OA
BRANCH  14  15
ATOM     15  C   UNL     1      11.409   1.423  -0.618  0.00  0.00    +0.000 C 
BRANCH  15  16
ATOM     16  C   UNL     1      12.916   1.532  -0.634  0.00  0.00    +0.000 A 
ATOM     17  C   UNL     1      13.546   2.631  -0.031  0.00  0.00    +0.000 A 
ATOM     18  C   UNL     1      14.938   2.738  -0.032  0.00  0.00    +0.000 A 
ATOM     19  C   UNL     1      15.706   1.753  -0.647  0.00  0.00    +0.000 A 
ATOM     20 CL   UNL     1      17.421   1.881  -0.644  0.00  0.00    +0.000 Cl
ATOM     21  C   UNL     1      15.094   0.665  -1.267  0.00  0.00    +0.000 A 
ATOM     22  C   UNL     1      13.701   0.556  -1.265  0.00  0.00    +0.000 A 
ENDBRANCH  15  16
ENDBRANCH  14  15
ENDBRANCH   4  14
TORSDOF 6
