REMARK  Name = 
REMARK  6 active torsions:
REMARK  status: ('A' for Active; 'I' for Inactive)
REMARK    1  A    between atoms: C_1  and  C_2
REMARK    2  A    between atoms: C_2  and  C_3
REMARK    3  A    between atoms: C_5  and  C_6
REMARK    4  A    between atoms: C_16  and  C_17
REMARK    5  A    between atoms: C_17  and  C_18
REMARK    6  A    between atoms: C_18  and  N_19
REMARK                            x       y       z     vdW  Elec       q    Type
REMARK                         _______ _______ _______ _____ _____    ______ ____
ROOT
ATOM      1  C   UNL     1       1.012   0.336  -0.049  0.00  0.00    +0.000 C 
ATOM      2  C   UNL     1       2.550   0.188   0.008  0.00  0.00    +0.000 C 
ATOM      3  C   UNL     1       3.150   1.337  -0.791  0.00  0.00    +0.000 C 
ATOM      4  C   UNL     1       3.804   0.878  -1.868  0.00  0.00    +0.000 C 
ATOM      5  C   UNL     1       3.726  -0.560  -1.903  0.00  0.00    +0.000 C 
ATOM      6  C   UNL     1       3.002  -1.008  -0.862  0.00  0.00    +0.000 C 
ENDROOT
BRANCH   2   7
ATOM      7  C   UNL     1       3.131   0.163   1.433  0.00  0.00    +0.000 A 
ATOM      8  C   UNL     1       4.379  -0.448   1.705  0.00  0.00    +0.000 A 
ATOM      9  C   UNL     1       4.880  -0.552   3.013  0.00  0.00    +0.000 A 
ATOM     10  C   UNL     1       4.172   0.035   4.069  0.00  0.00    +0.000 A 
ATOM     11  C   UNL     1       2.981   0.700   3.816  0.00  0.00    +0.000 A 
ATOM     12  C   UNL     1       2.471   0.761   2.518  0.00  0.00    +0.000 A 
ATOM     13  F   UNL     1       1.320   1.422   2.346  0.00  0.00    +0.000 F 
BRANCH   9  14
ATOM     14  C   UNL     1       6.136  -1.280   3.328  0.00  0.00    +0.000 C 
ATOM     15  N   UNL     1       6.497  -2.297   2.487  0.00  0.00    +0.000 N 
ATOM     16  O   UNL     1       6.798  -1.027   4.326  0.00  0.00    +0.000 OA
ATOM     17  H   UNL     1       5.881  -2.679   1.784  0.00  0.00    +0.000 HD
ATOM     18  H   UNL     1       7.287  -2.859   2.778  0.00  0.00    +0.000 HD
ENDBRANCH   9  14
ENDBRANCH   2   7
BRANCH   6  19
ATOM     19  C   UNL     1       2.762  -2.455  -0.524  0.00  0.00    +0.000 C 
BRANCH  19  20
ATOM     20  C   UNL     1       1.279  -2.862  -0.484  0.00  0.00    +0.000 C 
BRANCH  20  21
ATOM     21  N   UNL     1       0.997  -4.244  -0.043  0.00  0.00    +0.000 NA
ATOM     22  C   UNL     1      -0.461  -4.489   0.012  0.00  0.00    +0.000 C 
ATOM     23  C   UNL     1      -1.176  -3.756   1.150  0.00  0.00    +0.000 C 
ATOM     24  C   UNL     1      -0.468  -3.972   2.473  0.00  0.00    +0.000 C 
ATOM     25  F   UNL     1      -0.991  -3.135   3.406  0.00  0.00    +0.000 F 
ATOM     26  F   UNL     1      -0.723  -5.234   2.912  0.00  0.00    +0.000 F 
ATOM     27  C   UNL     1       1.032  -3.773   2.407  0.00  0.00    +0.000 C 
ATOM     28  C   UNL     1       1.596  -4.595   1.256  0.00  0.00    +0.000 C 
ENDBRANCH  20  21
ENDBRANCH  19  20
ENDBRANCH   6  19
TORSDOF 5
