REMARK  Name = 
REMARK  4 active torsions:
REMARK  status: ('A' for Active; 'I' for Inactive)
REMARK    1  A    between atoms: C_1  and  C_2
REMARK    2  A    between atoms: C_2  and  N_3
REMARK    3  A    between atoms: C_2  and  C_13
REMARK    4  A    between atoms: C_7  and  C_8
REMARK                            x       y       z     vdW  Elec       q    Type
REMARK                         _______ _______ _______ _____ _____    ______ ____
ROOT
ATOM      1  N   UNL     1       2.836   1.203   0.903  0.00  0.00    +0.000 N 
ATOM      2  C   UNL     1       2.482   2.487   0.441  0.00  0.00    +0.000 A 
ATOM      3  C   UNL     1       2.256   3.516   1.372  0.00  0.00    +0.000 A 
ATOM      4  N   UNL     1       1.930   4.801   1.049  0.00  0.00    +0.000 NA
ATOM      5  C   UNL     1       1.875   5.043  -0.286  0.00  0.00    +0.000 A 
ATOM      6  C   UNL     1       2.140   4.052  -1.222  0.00  0.00    +0.000 A 
ATOM      7  N   UNL     1       2.439   2.764  -0.879  0.00  0.00    +0.000 NA
ATOM      8  H   UNL     1       3.840   1.229   1.079  0.00  0.00    +0.000 HD
ENDROOT
BRANCH   5   9
ATOM      9  C   UNL     1       1.506   6.415  -0.738  0.00  0.00    +0.000 C 
ATOM     10  N   UNL     1       1.192   7.325   0.237  0.00  0.00    +0.000 N 
ATOM     11  O   UNL     1       1.475   6.719  -1.926  0.00  0.00    +0.000 OA
ATOM     12  H   UNL     1       1.196   7.052   1.214  0.00  0.00    +0.000 HD
ATOM     13  H   UNL     1       0.916   8.257  -0.025  0.00  0.00    +0.000 HD
ENDBRANCH   5   9
BRANCH   1  15
ATOM     14  C   UNL     1       0.997  -0.076  -0.147  0.00  0.00    +0.000 C 
ATOM     15  C   UNL     1       2.518   0.078   0.010  0.00  0.00    +0.000 C 
BRANCH  15  16
ATOM     16  C   UNL     1       3.102  -1.222   0.577  0.00  0.00    +0.000 A 
ATOM     17  C   UNL     1       2.692  -1.757   1.815  0.00  0.00    +0.000 A 
ATOM     18  C   UNL     1       3.148  -3.010   2.250  0.00  0.00    +0.000 A 
ATOM     19  C   UNL     1       4.024  -3.748   1.458  0.00  0.00    +0.000 A 
ATOM     20  C   UNL     1       4.454  -3.217   0.250  0.00  0.00    +0.000 A 
ATOM     21  F   UNL     1       5.293  -3.926  -0.517  0.00  0.00    +0.000 F 
ATOM     22  C   UNL     1       4.011  -1.970  -0.191  0.00  0.00    +0.000 A 
ENDBRANCH  15  16
ENDBRANCH   1  15
TORSDOF 3
