REMARK  Name = 
REMARK  6 active torsions:
REMARK  status: ('A' for Active; 'I' for Inactive)
REMARK    1  A    between atoms: C_2  and  C_4
REMARK    2  A    between atoms: C_7  and  N_8
REMARK    3  A    between atoms: N_8  and  C_9
REMARK    4  A    between atoms: C_9  and  C_10
REMARK    5  A    between atoms: C_13  and  O_14
REMARK    6  A    between atoms: O_14  and  C_15
REMARK                            x       y       z     vdW  Elec       q    Type
REMARK                         _______ _______ _______ _____ _____    ______ ____
ROOT
ATOM      1  C   UNL     1       6.387  -3.591  -3.550  0.00  0.00    +0.000 C 
ATOM      2  C   UNL     1       6.448  -4.846  -2.677  0.00  0.00    +0.000 C 
ATOM      3  C   UNL     1       7.239  -3.649  -2.294  0.00  0.00    +0.000 C 
ATOM      4  F   UNL     1       8.615  -3.759  -2.427  0.00  0.00    +0.000 F 
ENDROOT
BRANCH   1   5
ATOM      5  C   UNL     1       7.135  -3.590  -4.882  0.00  0.00    +0.000 A 
ATOM      6  C   UNL     1       7.940  -2.501  -5.257  0.00  0.00    +0.000 A 
ATOM      7  C   UNL     1       8.718  -2.517  -6.420  0.00  0.00    +0.000 A 
ATOM      8  C   UNL     1       8.745  -3.652  -7.221  0.00  0.00    +0.000 A 
ATOM      9  C   UNL     1       7.891  -4.711  -6.916  0.00  0.00    +0.000 A 
ATOM     10  C   UNL     1       7.092  -4.680  -5.766  0.00  0.00    +0.000 A 
BRANCH   8  11
ATOM     11  O   UNL     1       9.513  -3.822  -8.330  0.00  0.00    +0.000 OA
BRANCH  11  12
ATOM     12  C   UNL     1      10.798  -3.213  -8.387  0.00  0.00    +0.000 C 
ATOM     13  F   UNL     1      11.193  -2.623  -7.239  0.00  0.00    +0.000 F 
ATOM     14  F   UNL     1      11.711  -4.162  -8.693  0.00  0.00    +0.000 F 
ATOM     15  F   UNL     1      10.807  -2.289  -9.372  0.00  0.00    +0.000 F 
ENDBRANCH  11  12
ENDBRANCH   8  11
ENDBRANCH   1   5
BRANCH   1  16
ATOM     16  N   UNL     1       5.040  -2.980  -3.602  0.00  0.00    +0.000 N 
ATOM     17  H   UNL     1       4.398  -3.431  -4.253  0.00  0.00    +0.000 HD
BRANCH  16  21
ATOM     18  C   UNL     1       4.006   0.975  -3.010  0.00  0.00    +0.000 A 
ATOM     19  N   UNL     1       5.318   0.673  -2.862  0.00  0.00    +0.000 NA
ATOM     20  C   UNL     1       5.643  -0.629  -3.061  0.00  0.00    +0.000 A 
ATOM     21  C   UNL     1       4.752  -1.617  -3.438  0.00  0.00    +0.000 A 
ATOM     22  C   UNL     1       3.439  -1.171  -3.509  0.00  0.00    +0.000 A 
ATOM     23  N   UNL     1       3.033   0.101  -3.317  0.00  0.00    +0.000 NA
BRANCH  18  25
ATOM     24  N   UNL     1       4.646   3.290  -2.550  0.00  0.00    +0.000 N 
ATOM     25  C   UNL     1       3.616   2.423  -2.815  0.00  0.00    +0.000 C 
ATOM     26  O   UNL     1       2.461   2.836  -2.889  0.00  0.00    +0.000 OA
ATOM     27  H   UNL     1       4.444   4.272  -2.423  0.00  0.00    +0.000 HD
ATOM     28  H   UNL     1       5.600   2.947  -2.502  0.00  0.00    +0.000 HD
ENDBRANCH  18  25
ENDBRANCH  16  21
ENDBRANCH   1  16
TORSDOF 6
