REMARK  Name = 
REMARK  7 active torsions:
REMARK  status: ('A' for Active; 'I' for Inactive)
REMARK    1  A    between atoms: C_2  and  C_19
REMARK    2  A    between atoms: N_3  and  C_4
REMARK    3  A    between atoms: C_4  and  C_5
REMARK    4  A    between atoms: C_8  and  C_9
REMARK    5  A    between atoms: C_9  and  O_10
REMARK    6  A    between atoms: O_10  and  C_11
REMARK    7  A    between atoms: C_11  and  C_12
REMARK                            x       y       z     vdW  Elec       q    Type
REMARK                         _______ _______ _______ _____ _____    ______ ____
ROOT
ATOM      1  C   UNL     1       2.328  -1.860  -1.657  0.00  0.00    +0.000 C 
ENDROOT
BRANCH   1   2
ATOM      2  C   UNL     1       3.281  -2.781  -2.361  0.00  0.00    +0.000 A 
ATOM      3  C   UNL     1       4.377  -2.297  -3.075  0.00  0.00    +0.000 A 
ATOM      4  C   UNL     1       5.223  -3.189  -3.735  0.00  0.00    +0.000 A 
ATOM      5  C   UNL     1       4.976  -4.558  -3.647  0.00  0.00    +0.000 A 
ATOM      6  N   UNL     1       3.923  -5.051  -2.946  0.00  0.00    +0.000 NA
ATOM      7  C   UNL     1       3.116  -4.161  -2.316  0.00  0.00    +0.000 A 
BRANCH   5   8
ATOM      8  C   UNL     1       5.841  -5.555  -4.392  0.00  0.00    +0.000 C 
BRANCH   8   9
ATOM      9  O   UNL     1       7.195  -5.096  -4.481  0.00  0.00    +0.000 OA
BRANCH   9  10
ATOM     10  C   UNL     1       8.028  -6.002  -5.205  0.00  0.00    +0.000 C 
BRANCH  10  11
ATOM     11  C   UNL     1       9.446  -5.421  -5.261  0.00  0.00    +0.000 C 
ATOM     12  C   UNL     1       9.506  -4.089  -6.007  0.00  0.00    +0.000 C 
ATOM     13  C   UNL     1       9.892  -4.490  -7.414  0.00  0.00    +0.000 C 
ATOM     14  N   UNL     1      10.860  -5.572  -7.219  0.00  0.00    +0.000 NA
ATOM     15  C   UNL     1      10.403  -6.326  -6.040  0.00  0.00    +0.000 C 
ATOM     16  H   UNL     1      11.766  -5.154  -7.000  0.00  0.00    +0.000 HD
ENDBRANCH  10  11
ENDBRANCH   9  10
ENDBRANCH   8   9
ENDBRANCH   5   8
ENDBRANCH   1   2
BRANCH   1  19
ATOM     17  O   UNL     1       1.087  -0.061   0.057  0.00  0.00    +0.000 OA
ATOM     18  C   UNL     1       2.062  -0.681   0.473  0.00  0.00    +0.000 C 
ATOM     19  N   UNL     1       2.782  -1.532  -0.330  0.00  0.00    +0.000 N 
ATOM     20  H   UNL     1       3.431  -2.181   0.104  0.00  0.00    +0.000 HD
BRANCH  18  21
ATOM     21  C   UNL     1       2.545  -0.520   1.849  0.00  0.00    +0.000 A 
ATOM     22  C   UNL     1       2.263   0.640   2.558  0.00  0.00    +0.000 A 
ATOM     23  S   UNL     1       2.931   0.659   4.128  0.00  0.00    +0.000 S 
ATOM     24  C   UNL     1       3.576  -0.904   3.933  0.00  0.00    +0.000 A 
ATOM     25  N   UNL     1       4.265  -1.512   4.936  0.00  0.00    +0.000 NA
ATOM     26  C   UNL     1       4.666  -2.709   4.657  0.00  0.00    +0.000 A 
ATOM     27  N   UNL     1       4.447  -3.350   3.469  0.00  0.00    +0.000 N 
ATOM     28  C   UNL     1       3.783  -2.766   2.419  0.00  0.00    +0.000 A 
ATOM     29  O   UNL     1       3.642  -3.350   1.349  0.00  0.00    +0.000 OA
ATOM     30  C   UNL     1       3.301  -1.424   2.682  0.00  0.00    +0.000 A 
ATOM     31  H   UNL     1       4.796  -4.285   3.310  0.00  0.00    +0.000 HD
ENDBRANCH  18  21
ENDBRANCH   1  19
TORSDOF 7
