REMARK  Name = 
REMARK  8 active torsions:
REMARK  status: ('A' for Active; 'I' for Inactive)
REMARK    1  A    between atoms: C_2  and  C_4
REMARK    2  A    between atoms: N_8  and  C_9
REMARK    3  A    between atoms: C_9  and  C_10
REMARK    4  A    between atoms: C_10  and  C_11
REMARK    5  A    between atoms: C_10  and  C_13
REMARK    6  A    between atoms: C_11  and  O_12
REMARK    7  A    between atoms: C_17  and  N_18
REMARK    8  A    between atoms: N_18  and  C_19
REMARK                            x       y       z     vdW  Elec       q    Type
REMARK                         _______ _______ _______ _____ _____    ______ ____
ROOT
ATOM      1  C   UNL     1       6.668  -5.524   3.803  0.00  0.00    +0.000 C 
ENDROOT
BRANCH   1   2
ATOM      2  C   UNL     1       6.483  -7.032   3.890  0.00  0.00    +0.000 A 
ATOM      3  C   UNL     1       7.446  -7.895   3.353  0.00  0.00    +0.000 A 
ATOM      4  C   UNL     1       7.275  -9.278   3.424  0.00  0.00    +0.000 A 
ATOM      5  C   UNL     1       6.132  -9.819   4.021  0.00  0.00    +0.000 A 
ATOM      6  C   UNL     1       5.161  -8.983   4.568  0.00  0.00    +0.000 A 
ATOM      7  C   UNL     1       5.354  -7.595   4.510  0.00  0.00    +0.000 A 
BRANCH   6   8
ATOM      8  N   UNL     1       3.995  -9.462   5.201  0.00  0.00    +0.000 N 
ATOM      9  H   UNL     1       4.016  -9.202   6.188  0.00  0.00    +0.000 HD
BRANCH   8  10
ATOM     10  C   UNL     1       3.379 -10.745   4.983  0.00  0.00    +0.000 C 
ATOM     11  C   UNL     1       2.152 -10.965   5.892  0.00  0.00    +0.000 C 
ATOM     12  N   UNL     1       2.668 -12.298   6.254  0.00  0.00    +0.000 NA
ATOM     13  C   UNL     1       4.001 -11.930   5.739  0.00  0.00    +0.000 C 
ATOM     14  H   UNL     1       2.225 -13.056   5.734  0.00  0.00    +0.000 HD
ENDBRANCH   8  10
ENDBRANCH   6   8
ENDBRANCH   1   2
BRANCH   1  15
ATOM     15  C   UNL     1       5.523  -4.863   2.993  0.00  0.00    +0.000 C 
BRANCH  15  20
ATOM     16  C   UNL     1       3.317  -0.867   0.687  0.00  0.00    +0.000 A 
ATOM     17  C   UNL     1       3.298  -2.212   0.323  0.00  0.00    +0.000 A 
ATOM     18  C   UNL     1       4.117  -3.114   1.007  0.00  0.00    +0.000 A 
ATOM     19  C   UNL     1       4.921  -2.664   2.049  0.00  0.00    +0.000 A 
ATOM     20  N   UNL     1       5.829  -3.467   2.713  0.00  0.00    +0.000 N 
ATOM     21  N   UNL     1       4.934  -1.368   2.417  0.00  0.00    +0.000 NA
ATOM     22  C   UNL     1       4.152  -0.498   1.727  0.00  0.00    +0.000 A 
ATOM     23  H   UNL     1       6.139  -2.937   3.534  0.00  0.00    +0.000 HD
BRANCH  16  25
ATOM     24  N   UNL     1       1.399  -0.218  -0.660  0.00  0.00    +0.000 N 
ATOM     25  C   UNL     1       2.538   0.175  -0.014  0.00  0.00    +0.000 C 
ATOM     26  O   UNL     1       2.882   1.348  -0.001  0.00  0.00    +0.000 OA
ATOM     27  H   UNL     1       0.834   0.521  -1.062  0.00  0.00    +0.000 HD
ATOM     28  H   UNL     1       0.956  -1.110  -0.495  0.00  0.00    +0.000 HD
ENDBRANCH  16  25
ENDBRANCH  15  20
ENDBRANCH   1  15
BRANCH   1  29
ATOM     29  C   UNL     1       6.819  -4.925   5.214  0.00  0.00    +0.000 C 
BRANCH  29  30
ATOM     30  O   UNL     1       7.164  -3.543   5.175  0.00  0.00    +0.000 OA
ATOM     31  H   UNL     1       8.027  -3.466   4.731  0.00  0.00    +0.000 HD
ENDBRANCH  29  30
ENDBRANCH   1  29
TORSDOF 8
