REMARK  Name = 
REMARK  5 active torsions:
REMARK  status: ('A' for Active; 'I' for Inactive)
REMARK    1  A    between atoms: C_2  and  C_18
REMARK    2  A    between atoms: N_3  and  C_4
REMARK    3  A    between atoms: C_4  and  C_5
REMARK    4  A    between atoms: C_8  and  C_9
REMARK    5  A    between atoms: C_9  and  N_10
REMARK                            x       y       z     vdW  Elec       q    Type
REMARK                         _______ _______ _______ _____ _____    ______ ____
ROOT
ATOM      1  O   UNL     1       0.950  -0.889   0.485  0.00  0.00    +0.000 OA
ATOM      2  C   UNL     1       2.145  -1.149   0.457  0.00  0.00    +0.000 C 
ATOM      3  N   UNL     1       2.796  -1.689  -0.642  0.00  0.00    +0.000 N 
ATOM      4  H   UNL     1       3.770  -1.460  -0.720  0.00  0.00    +0.000 HD
ENDROOT
BRANCH   2   5
ATOM      5  C   UNL     1       3.121  -0.645   1.402  0.00  0.00    +0.000 A 
ATOM      6  C   UNL     1       2.994   0.611   1.960  0.00  0.00    +0.000 A 
ATOM      7  S   UNL     1       4.544   1.288   2.263  0.00  0.00    +0.000 S 
ATOM      8  C   UNL     1       5.321  -0.190   1.909  0.00  0.00    +0.000 A 
ATOM      9  N   UNL     1       6.672  -0.296   1.836  0.00  0.00    +0.000 NA
ATOM     10  C   UNL     1       7.103  -1.502   1.647  0.00  0.00    +0.000 A 
ATOM     11  N   UNL     1       6.300  -2.624   1.552  0.00  0.00    +0.000 N 
ATOM     12  C   UNL     1       4.930  -2.558   1.582  0.00  0.00    +0.000 A 
ATOM     13  O   UNL     1       4.222  -3.559   1.541  0.00  0.00    +0.000 OA
ATOM     14  C   UNL     1       4.410  -1.200   1.704  0.00  0.00    +0.000 A 
ATOM     15  H   UNL     1       6.709  -3.542   1.494  0.00  0.00    +0.000 HD
ENDBRANCH   2   5
BRANCH   3  16
ATOM     16  C   UNL     1       2.093  -1.862  -1.888  0.00  0.00    +0.000 C 
BRANCH  16  17
ATOM     17  C   UNL     1       3.003  -2.495  -2.889  0.00  0.00    +0.000 A 
ATOM     18  C   UNL     1       3.084  -3.858  -3.064  0.00  0.00    +0.000 A 
ATOM     19  N   UNL     1       3.954  -4.452  -3.911  0.00  0.00    +0.000 NA
ATOM     20  C   UNL     1       4.769  -3.637  -4.612  0.00  0.00    +0.000 A 
ATOM     21  N   UNL     1       4.781  -2.285  -4.501  0.00  0.00    +0.000 NA
ATOM     22  C   UNL     1       3.890  -1.755  -3.640  0.00  0.00    +0.000 A 
BRANCH  20  23
ATOM     23  C   UNL     1       5.760  -4.274  -5.591  0.00  0.00    +0.000 C 
BRANCH  23  24
ATOM     24  N   UNL     1       5.320  -4.472  -7.002  0.00  0.00    +0.000 NA
ATOM     25  C   UNL     1       4.156  -5.364  -7.070  0.00  0.00    +0.000 C 
ATOM     26  C   UNL     1       3.621  -5.539  -8.491  0.00  0.00    +0.000 C 
ATOM     27  C   UNL     1       3.341  -4.191  -9.139  0.00  0.00    +0.000 C 
ATOM     28  C   UNL     1       4.603  -3.341  -9.111  0.00  0.00    +0.000 C 
ATOM     29  C   UNL     1       5.125  -3.186  -7.681  0.00  0.00    +0.000 C 
ENDBRANCH  23  24
ENDBRANCH  20  23
ENDBRANCH  16  17
ENDBRANCH   3  16
TORSDOF 5
