REMARK  Name = 
REMARK  5 active torsions:
REMARK  status: ('A' for Active; 'I' for Inactive)
REMARK    1  A    between atoms: N_1  and  C_2
REMARK    2  A    between atoms: C_2  and  C_3
REMARK    3  A    between atoms: C_3  and  C_4
REMARK    4  A    between atoms: C_7  and  C_8
REMARK    5  A    between atoms: C_8  and  N_9
REMARK                            x       y       z     vdW  Elec       q    Type
REMARK                         _______ _______ _______ _____ _____    ______ ____
ROOT
ATOM      1  C   UNL     1       4.427   0.711  -1.252  0.00  0.00    +0.000 A 
ATOM      2  C   UNL     1       5.079   1.409  -2.276  0.00  0.00    +0.000 A 
ATOM      3  C   UNL     1       6.473   1.526  -2.283  0.00  0.00    +0.000 A 
ATOM      4  C   UNL     1       7.243   0.938  -1.270  0.00  0.00    +0.000 A 
ATOM      5  C   UNL     1       6.589   0.218  -0.261  0.00  0.00    +0.000 A 
ATOM      6  C   UNL     1       5.197   0.101  -0.255  0.00  0.00    +0.000 A 
ENDROOT
BRANCH   1   7
ATOM      7  C   UNL     1       2.919   0.643  -1.205  0.00  0.00    +0.000 C 
BRANCH   7   8
ATOM      8  C   UNL     1       2.348  -0.546  -1.983  0.00  0.00    +0.000 C 
BRANCH   8   9
ATOM      9  N   UNL     1       0.884  -0.543  -1.934  0.00  0.00    +0.000 NA
ATOM     10  H   UNL     1       0.526  -1.322  -2.484  0.00  0.00    +0.000 HD
ATOM     11  H   UNL     1       0.529   0.304  -2.375  0.00  0.00    +0.000 HD
ENDBRANCH   8   9
ENDBRANCH   7   8
ENDBRANCH   1   7
BRANCH   4  12
ATOM     12  C   UNL     1       8.744   1.094  -1.243  0.00  0.00    +0.000 C 
BRANCH  12  13
ATOM     13  N   UNL     1       9.158   2.261  -0.478  0.00  0.00    +0.000 N 
ATOM     14  C   UNL     1       9.407   3.508  -1.005  0.00  0.00    +0.000 A 
ATOM     15  C   UNL     1       9.821   4.329   0.023  0.00  0.00    +0.000 A 
ATOM     16  C   UNL     1       9.838   3.554   1.213  0.00  0.00    +0.000 A 
ATOM     17  C   UNL     1      10.158   3.799   2.558  0.00  0.00    +0.000 A 
ATOM     18  C   UNL     1      10.051   2.735   3.452  0.00  0.00    +0.000 A 
ATOM     19  C   UNL     1       9.647   1.495   2.977  0.00  0.00    +0.000 A 
ATOM     20  N   UNL     1       9.333   1.202   1.695  0.00  0.00    +0.000 NA
ATOM     21  C   UNL     1       9.437   2.265   0.868  0.00  0.00    +0.000 A 
ENDBRANCH  12  13
ENDBRANCH   4  12
TORSDOF 5
