REMARK  Name = 
REMARK  6 active torsions:
REMARK  status: ('A' for Active; 'I' for Inactive)
REMARK    1  A    between atoms: C_2  and  C_19
REMARK    2  A    between atoms: N_3  and  C_4
REMARK    3  A    between atoms: C_4  and  C_5
REMARK    4  A    between atoms: C_8  and  O_9
REMARK    5  A    between atoms: O_9  and  C_10
REMARK    6  A    between atoms: C_10  and  C_11
REMARK                            x       y       z     vdW  Elec       q    Type
REMARK                         _______ _______ _______ _____ _____    ______ ____
ROOT
ATOM      1  O   UNL     1       0.296   3.245  -1.488  0.00  0.00    +0.000 OA
ATOM      2  C   UNL     1       1.194   2.492  -1.852  0.00  0.00    +0.000 C 
ATOM      3  N   UNL     1       2.199   2.092  -1.012  0.00  0.00    +0.000 N 
ATOM      4  H   UNL     1       3.003   1.604  -1.396  0.00  0.00    +0.000 HD
ENDROOT
BRANCH   2   5
ATOM      5  C   UNL     1       1.221   1.925  -3.207  0.00  0.00    +0.000 A 
ATOM      6  C   UNL     1       0.052   1.864  -3.956  0.00  0.00    +0.000 A 
ATOM      7  S   UNL     1       0.263   1.154  -5.493  0.00  0.00    +0.000 S 
ATOM      8  C   UNL     1       1.932   0.946  -5.231  0.00  0.00    +0.000 A 
ATOM      9  N   UNL     1       2.730   0.404  -6.189  0.00  0.00    +0.000 NA
ATOM     10  C   UNL     1       3.980   0.342  -5.872  0.00  0.00    +0.000 A 
ATOM     11  N   UNL     1       4.504   0.762  -4.678  0.00  0.00    +0.000 N 
ATOM     12  C   UNL     1       3.726   1.244  -3.653  0.00  0.00    +0.000 A 
ATOM     13  O   UNL     1       4.208   1.481  -2.549  0.00  0.00    +0.000 OA
ATOM     14  C   UNL     1       2.318   1.387  -3.977  0.00  0.00    +0.000 A 
ATOM     15  H   UNL     1       5.488   0.658  -4.478  0.00  0.00    +0.000 HD
ENDBRANCH   2   5
BRANCH   3  16
ATOM     16  C   UNL     1       2.316   2.545   0.350  0.00  0.00    +0.000 C 
BRANCH  16  17
ATOM     17  C   UNL     1       3.269   3.695   0.478  0.00  0.00    +0.000 A 
ATOM     18  C   UNL     1       2.841   5.018   0.321  0.00  0.00    +0.000 A 
ATOM     19  C   UNL     1       3.749   6.061   0.481  0.00  0.00    +0.000 A 
ATOM     20  C   UNL     1       5.058   5.749   0.805  0.00  0.00    +0.000 A 
ATOM     21  N   UNL     1       5.517   4.485   0.930  0.00  0.00    +0.000 NA
ATOM     22  C   UNL     1       4.617   3.491   0.751  0.00  0.00    +0.000 A 
BRANCH  20  23
ATOM     23  O   UNL     1       5.930   6.807   0.966  0.00  0.00    +0.000 OA
BRANCH  23  24
ATOM     24  C   UNL     1       7.070   6.444   1.749  0.00  0.00    +0.000 C 
BRANCH  24  25
ATOM     25  C   UNL     1       8.029   7.602   1.858  0.00  0.00    +0.000 A 
ATOM     26  C   UNL     1       8.795   7.795   3.013  0.00  0.00    +0.000 A 
ATOM     27  C   UNL     1       9.720   8.833   3.068  0.00  0.00    +0.000 A 
ATOM     28  C   UNL     1       9.863   9.643   1.955  0.00  0.00    +0.000 A 
ATOM     29  N   UNL     1       9.159   9.479   0.814  0.00  0.00    +0.000 NA
ATOM     30  C   UNL     1       8.265   8.462   0.791  0.00  0.00    +0.000 A 
ENDBRANCH  24  25
ENDBRANCH  23  24
ENDBRANCH  20  23
ENDBRANCH  16  17
ENDBRANCH   3  16
TORSDOF 6
