REMARK  Name = 
REMARK  7 active torsions:
REMARK  status: ('A' for Active; 'I' for Inactive)
REMARK    1  A    between atoms: C_1  and  O_2
REMARK    2  A    between atoms: O_2  and  C_3
REMARK    3  A    between atoms: C_5  and  C_6
REMARK    4  A    between atoms: C_11  and  O_12
REMARK    5  A    between atoms: O_12  and  C_13
REMARK    6  A    between atoms: C_13  and  C_14
REMARK    7  A    between atoms: C_18  and  C_19
REMARK                            x       y       z     vdW  Elec       q    Type
REMARK                         _______ _______ _______ _____ _____    ______ ____
ROOT
ATOM      1  O   UNL     1       4.714   1.326   0.795  0.00  0.00    +0.000 OA
ENDROOT
BRANCH   1   7
ATOM      2  C   UNL     1       3.170  -0.646   0.752  0.00  0.00    +0.000 A 
ATOM      3  C   UNL     1       2.995  -1.971   1.174  0.00  0.00    +0.000 A 
ATOM      4  C   UNL     1       3.970  -2.636   1.936  0.00  0.00    +0.000 A 
ATOM      5  C   UNL     1       5.142  -1.958   2.276  0.00  0.00    +0.000 A 
ATOM      6  C   UNL     1       5.323  -0.634   1.861  0.00  0.00    +0.000 A 
ATOM      7  C   UNL     1       4.352   0.034   1.101  0.00  0.00    +0.000 A 
BRANCH   4   8
ATOM      8  C   UNL     1       3.684  -4.047   2.330  0.00  0.00    +0.000 C 
ATOM      9  N   UNL     1       4.624  -4.740   3.035  0.00  0.00    +0.000 N 
ATOM     10  O   UNL     1       2.624  -4.589   2.031  0.00  0.00    +0.000 OA
ATOM     11  H   UNL     1       5.530  -4.393   3.305  0.00  0.00    +0.000 HD
ATOM     12  H   UNL     1       4.395  -5.699   3.272  0.00  0.00    +0.000 HD
ENDBRANCH   4   8
BRANCH   2  14
ATOM     13  C   UNL     1       0.911  -0.478  -0.018  0.00  0.00    +0.000 C 
ATOM     14  O   UNL     1       2.253  -0.010  -0.042  0.00  0.00    +0.000 OA
ENDBRANCH   2  14
ENDBRANCH   1   7
BRANCH   1  15
ATOM     15  C   UNL     1       3.767   2.134   0.103  0.00  0.00    +0.000 C 
BRANCH  15  16
ATOM     16  C   UNL     1       4.305   3.523  -0.106  0.00  0.00    +0.000 A 
ATOM     17  C   UNL     1       5.488   3.734  -0.798  0.00  0.00    +0.000 A 
ATOM     18  N   UNL     1       5.963   4.956  -1.115  0.00  0.00    +0.000 NA
ATOM     19  C   UNL     1       5.222   6.021  -0.717  0.00  0.00    +0.000 A 
ATOM     20  C   UNL     1       4.028   5.952   0.006  0.00  0.00    +0.000 A 
ATOM     21  C   UNL     1       3.583   4.654   0.303  0.00  0.00    +0.000 A 
BRANCH  20  22
ATOM     22  C   UNL     1       3.285   7.158   0.438  0.00  0.00    +0.000 A 
ATOM     23  C   UNL     1       1.878   7.163   0.542  0.00  0.00    +0.000 A 
ATOM     24  C   UNL     1       1.182   8.289   0.994  0.00  0.00    +0.000 A 
ATOM     25  C   UNL     1       1.883   9.436   1.334  0.00  0.00    +0.000 A 
ATOM     26  F   UNL     1       1.219  10.512   1.774  0.00  0.00    +0.000 F 
ATOM     27  C   UNL     1       3.264   9.479   1.226  0.00  0.00    +0.000 A 
ATOM     28  C   UNL     1       3.959   8.347   0.785  0.00  0.00    +0.000 A 
ENDBRANCH  20  22
ENDBRANCH  15  16
ENDBRANCH   1  15
TORSDOF 6
