REMARK  Name = 
REMARK  5 active torsions:
REMARK  status: ('A' for Active; 'I' for Inactive)
REMARK    1  A    between atoms: C_2  and  C_3
REMARK    2  A    between atoms: C_6  and  N_7
REMARK    3  A    between atoms: N_7  and  C_8
REMARK    4  A    between atoms: C_8  and  C_9
REMARK    5  A    between atoms: C_13  and  C_14
REMARK                            x       y       z     vdW  Elec       q    Type
REMARK                         _______ _______ _______ _____ _____    ______ ____
ROOT
ATOM      1  C   UNL     1       8.651  -0.848   0.114  0.00  0.00    +0.000 C 
ATOM      2  C   UNL     1       8.852  -1.449  -1.271  0.00  0.00    +0.000 C 
ATOM      3  C   UNL     1       8.912  -2.325  -0.064  0.00  0.00    +0.000 C 
ENDROOT
BRANCH   1   4
ATOM      4  C   UNL     1       9.738   0.030   0.714  0.00  0.00    +0.000 A 
ATOM      5  C   UNL     1      10.316  -0.240   1.962  0.00  0.00    +0.000 A 
ATOM      6  C   UNL     1      11.141   0.694   2.588  0.00  0.00    +0.000 A 
ATOM      7  C   UNL     1      11.390   1.924   1.977  0.00  0.00    +0.000 A 
ATOM      8  C   UNL     1      10.848   2.236   0.720  0.00  0.00    +0.000 A 
ATOM      9  C   UNL     1      10.066   1.251   0.095  0.00  0.00    +0.000 A 
BRANCH   8  10
ATOM     10  C   UNL     1      10.984   3.582   0.122  0.00  0.00    +0.000 A 
ATOM     11  C   UNL     1      10.898   4.732   0.931  0.00  0.00    +0.000 A 
ATOM     12  C   UNL     1      10.965   6.018   0.385  0.00  0.00    +0.000 A 
ATOM     13  C   UNL     1      11.107   6.186  -0.989  0.00  0.00    +0.000 A 
ATOM     14  C   UNL     1      11.183   5.069  -1.814  0.00  0.00    +0.000 A 
ATOM     15  C   UNL     1      11.126   3.789  -1.261  0.00  0.00    +0.000 A 
ATOM     16  F   UNL     1      11.200   2.746  -2.104  0.00  0.00    +0.000 F 
ENDBRANCH   8  10
ENDBRANCH   1   4
BRANCH   1  17
ATOM     17  N   UNL     1       7.310  -0.247   0.265  0.00  0.00    +0.000 N 
ATOM     18  H   UNL     1       7.248   0.679  -0.159  0.00  0.00    +0.000 HD
BRANCH  17  22
ATOM     19  C   UNL     1       4.689  -0.552   3.435  0.00  0.00    +0.000 A 
ATOM     20  N   UNL     1       5.803  -1.307   3.508  0.00  0.00    +0.000 NA
ATOM     21  C   UNL     1       6.678  -1.178   2.480  0.00  0.00    +0.000 A 
ATOM     22  C   UNL     1       6.507  -0.324   1.411  0.00  0.00    +0.000 A 
ATOM     23  C   UNL     1       5.312   0.387   1.458  0.00  0.00    +0.000 A 
ATOM     24  N   UNL     1       4.394   0.310   2.443  0.00  0.00    +0.000 NA
BRANCH  19  26
ATOM     25  N   UNL     1       2.895  -0.827   5.307  0.00  0.00    +0.000 NA
ATOM     26  C   UNL     1       3.702  -0.708   4.474  0.00  0.00    +0.000 C 
ENDBRANCH  19  26
ENDBRANCH  17  22
ENDBRANCH   1  17
TORSDOF 5
