REMARK  Name = 
REMARK  8 active torsions:
REMARK  status: ('A' for Active; 'I' for Inactive)
REMARK    1  A    between atoms: C_1  and  O_2
REMARK    2  A    between atoms: O_2  and  C_3
REMARK    3  A    between atoms: C_6  and  C_7
REMARK    4  A    between atoms: C_7  and  N_8
REMARK    5  A    between atoms: C_9  and  C_11
REMARK    6  A    between atoms: C_22  and  C_23
REMARK    7  A    between atoms: C_23  and  N_24
REMARK    8  A    between atoms: C_25  and  C_27
REMARK                            x       y       z     vdW  Elec       q    Type
REMARK                         _______ _______ _______ _____ _____    ______ ____
ROOT
ATOM      1  C   UNL     1       2.967  -0.532  -0.988  0.00  0.00    +0.000 A 
ATOM      2  C   UNL     1       2.689  -0.212  -2.323  0.00  0.00    +0.000 A 
ATOM      3  C   UNL     1       3.400  -0.806  -3.364  0.00  0.00    +0.000 A 
ATOM      4  C   UNL     1       4.431  -1.706  -3.093  0.00  0.00    +0.000 A 
ATOM      5  C   UNL     1       4.722  -2.019  -1.757  0.00  0.00    +0.000 A 
ATOM      6  C   UNL     1       3.993  -1.449  -0.695  0.00  0.00    +0.000 A 
ENDROOT
BRANCH   1   8
ATOM      7  C   UNL     1       0.990   0.522  -0.220  0.00  0.00    +0.000 C 
ATOM      8  O   UNL     1       2.293   0.019   0.074  0.00  0.00    +0.000 OA
ENDBRANCH   1   8
BRANCH   4   9
ATOM      9  C   UNL     1       5.185  -2.349  -4.223  0.00  0.00    +0.000 C 
BRANCH   9  10
ATOM     10  N   UNL     1       4.588  -3.602  -4.610  0.00  0.00    +0.000 N 
ATOM     11  C   UNL     1       3.729  -3.726  -5.669  0.00  0.00    +0.000 C 
ATOM     12  O   UNL     1       3.385  -2.771  -6.361  0.00  0.00    +0.000 OA
ATOM     13  H   UNL     1       4.670  -4.361  -3.943  0.00  0.00    +0.000 HD
BRANCH  11  14
ATOM     14  C   UNL     1       3.297  -5.095  -5.991  0.00  0.00    +0.000 A 
ATOM     15  C   UNL     1       2.878  -5.399  -7.279  0.00  0.00    +0.000 A 
ATOM     16  S   UNL     1       2.465  -7.039  -7.497  0.00  0.00    +0.000 S 
ATOM     17  C   UNL     1       2.780  -7.393  -5.862  0.00  0.00    +0.000 A 
ATOM     18  N   UNL     1       2.597  -8.645  -5.371  0.00  0.00    +0.000 NA
ATOM     19  C   UNL     1       2.842  -8.766  -4.109  0.00  0.00    +0.000 A 
ATOM     20  N   UNL     1       3.263  -7.745  -3.296  0.00  0.00    +0.000 N 
ATOM     21  C   UNL     1       3.522  -6.477  -3.761  0.00  0.00    +0.000 A 
ATOM     22  O   UNL     1       3.996  -5.618  -3.027  0.00  0.00    +0.000 OA
ATOM     23  C   UNL     1       3.225  -6.281  -5.168  0.00  0.00    +0.000 A 
ATOM     24  H   UNL     1       3.463  -7.910  -2.321  0.00  0.00    +0.000 HD
ENDBRANCH  11  14
ENDBRANCH   9  10
ENDBRANCH   4   9
BRANCH   6  25
ATOM     25  C   UNL     1       4.322  -1.883   0.713  0.00  0.00    +0.000 C 
BRANCH  25  26
ATOM     26  N   UNL     1       5.330  -1.055   1.343  0.00  0.00    +0.000 N 
ATOM     27  C   UNL     1       6.672  -1.370   1.340  0.00  0.00    +0.000 C 
ATOM     28  O   UNL     1       7.129  -2.362   0.785  0.00  0.00    +0.000 OA
ATOM     29  H   UNL     1       5.019  -0.174   1.724  0.00  0.00    +0.000 HD
BRANCH  27  30
ATOM     30  C   UNL     1       7.520  -0.431   2.195  0.00  0.00    +0.000 C 
ATOM     31  C   UNL     1       7.411   1.037   1.792  0.00  0.00    +0.000 C 
ATOM     32  C   UNL     1       8.661   1.703   2.362  0.00  0.00    +0.000 C 
ATOM     33  C   UNL     1       9.654   0.580   2.652  0.00  0.00    +0.000 C 
ATOM     34  C   UNL     1       9.022  -0.689   2.093  0.00  0.00    +0.000 C 
ENDBRANCH  27  30
ENDBRANCH  25  26
ENDBRANCH   6  25
TORSDOF 7
