REMARK  Name = 
REMARK  7 active torsions:
REMARK  status: ('A' for Active; 'I' for Inactive)
REMARK    1  A    between atoms: N_1  and  C_2
REMARK    2  A    between atoms: C_2  and  C_3
REMARK    3  A    between atoms: C_3  and  N_4
REMARK    4  A    between atoms: C_3  and  C_17
REMARK    5  A    between atoms: C_5  and  C_7
REMARK    6  A    between atoms: C_20  and  O_21
REMARK    7  A    between atoms: O_21  and  C_22
REMARK                            x       y       z     vdW  Elec       q    Type
REMARK                         _______ _______ _______ _____ _____    ______ ____
ROOT
ATOM      1  C   UNL     1       2.853  -0.029  -1.174  0.00  0.00    +0.000 C 
ENDROOT
BRANCH   1   2
ATOM      2  C   UNL     1       4.380  -0.034  -1.263  0.00  0.00    +0.000 A 
ATOM      3  C   UNL     1       5.042  -1.133  -1.829  0.00  0.00    +0.000 A 
ATOM      4  C   UNL     1       6.436  -1.153  -1.929  0.00  0.00    +0.000 A 
ATOM      5  C   UNL     1       7.190  -0.057  -1.507  0.00  0.00    +0.000 A 
ATOM      6  C   UNL     1       6.546   1.033  -0.920  0.00  0.00    +0.000 A 
ATOM      7  C   UNL     1       5.151   1.048  -0.804  0.00  0.00    +0.000 A 
BRANCH   5   8
ATOM      8  O   UNL     1       8.567  -0.006  -1.556  0.00  0.00    +0.000 OA
BRANCH   8   9
ATOM      9  C   UNL     1       9.217  -0.561  -2.652  0.00  0.00    +0.000 A 
ATOM     10  C   UNL     1      10.537  -0.944  -2.462  0.00  0.00    +0.000 A 
ATOM     11  C   UNL     1      11.220  -1.518  -3.531  0.00  0.00    +0.000 A 
ATOM     12  C   UNL     1      10.567  -1.683  -4.748  0.00  0.00    +0.000 A 
ATOM     13  C   UNL     1       9.257  -1.245  -4.852  0.00  0.00    +0.000 A 
ATOM     14  N   UNL     1       8.574  -0.673  -3.839  0.00  0.00    +0.000 NA
ENDBRANCH   8   9
ENDBRANCH   5   8
ENDBRANCH   1   2
BRANCH   1  15
ATOM     15  N   UNL     1       2.346   1.065  -1.993  0.00  0.00    +0.000 N 
ATOM     16  C   UNL     1       1.014   1.230  -2.273  0.00  0.00    +0.000 C 
ATOM     17  O   UNL     1       0.131   0.557  -1.753  0.00  0.00    +0.000 OA
ATOM     18  H   UNL     1       3.017   1.463  -2.641  0.00  0.00    +0.000 HD
BRANCH  16  19
ATOM     19  C   UNL     1       0.691   2.320  -3.199  0.00  0.00    +0.000 A 
ATOM     20  C   UNL     1      -0.516   2.995  -3.091  0.00  0.00    +0.000 A 
ATOM     21  S   UNL     1      -0.701   4.241  -4.242  0.00  0.00    +0.000 S 
ATOM     22  C   UNL     1       0.801   3.877  -4.959  0.00  0.00    +0.000 A 
ATOM     23  N   UNL     1       1.245   4.560  -6.049  0.00  0.00    +0.000 NA
ATOM     24  C   UNL     1       2.379   4.147  -6.508  0.00  0.00    +0.000 A 
ATOM     25  N   UNL     1       3.117   3.124  -5.971  0.00  0.00    +0.000 N 
ATOM     26  C   UNL     1       2.732   2.446  -4.841  0.00  0.00    +0.000 A 
ATOM     27  O   UNL     1       3.456   1.595  -4.333  0.00  0.00    +0.000 OA
ATOM     28  C   UNL     1       1.447   2.845  -4.307  0.00  0.00    +0.000 A 
ATOM     29  H   UNL     1       4.010   2.864  -6.361  0.00  0.00    +0.000 HD
ENDBRANCH  16  19
ENDBRANCH   1  15
BRANCH   1  30
ATOM     30  C   UNL     1       2.355   0.056   0.299  0.00  0.00    +0.000 C 
BRANCH  30  31
ATOM     31  N   UNL     1       2.857  -1.007   1.181  0.00  0.00    +0.000 NA
ATOM     32  H   UNL     1       2.656  -0.751   2.146  0.00  0.00    +0.000 HD
ATOM     33  H   UNL     1       3.873  -1.060   1.103  0.00  0.00    +0.000 HD
ENDBRANCH  30  31
ENDBRANCH   1  30
TORSDOF 7
