REMARK  Name = 
REMARK  5 active torsions:
REMARK  status: ('A' for Active; 'I' for Inactive)
REMARK    1  A    between atoms: C_2  and  C_4
REMARK    2  A    between atoms: C_8  and  C_9
REMARK    3  A    between atoms: C_9  and  O_10
REMARK    4  A    between atoms: O_10  and  C_11
REMARK    5  A    between atoms: C_16  and  C_17
REMARK                            x       y       z     vdW  Elec       q    Type
REMARK                         _______ _______ _______ _____ _____    ______ ____
ROOT
ATOM      1  C   UNL     1       1.442  -0.349   6.313  0.00  0.00    +0.000 A 
ATOM      2  C   UNL     1       1.363   0.655   7.270  0.00  0.00    +0.000 A 
ATOM      3  C   UNL     1       0.733   0.389   8.477  0.00  0.00    +0.000 A 
ATOM      4  F   UNL     1       0.668   1.348   9.410  0.00  0.00    +0.000 F 
ATOM      5  C   UNL     1       0.177  -0.862   8.747  0.00  0.00    +0.000 A 
ATOM      6  C   UNL     1       0.212  -1.883   7.785  0.00  0.00    +0.000 A 
ATOM      7  C   UNL     1       0.836  -1.587   6.558  0.00  0.00    +0.000 A 
ENDROOT
BRANCH   6   8
ATOM      8  C   UNL     1      -0.376  -3.218   8.022  0.00  0.00    +0.000 A 
ATOM      9  C   UNL     1      -1.523  -3.407   8.786  0.00  0.00    +0.000 A 
ATOM     10  N   UNL     1      -2.102  -4.614   8.991  0.00  0.00    +0.000 NA
ATOM     11  N   UNL     1      -1.556  -5.722   8.421  0.00  0.00    +0.000 NA
ATOM     12  C   UNL     1      -0.443  -5.594   7.677  0.00  0.00    +0.000 A 
ATOM     13  F   UNL     1       0.076  -6.692   7.109  0.00  0.00    +0.000 F 
ATOM     14  C   UNL     1       0.175  -4.379   7.463  0.00  0.00    +0.000 A 
ENDBRANCH   6   8
BRANCH   1  15
ATOM     15  O   UNL     1       2.120  -0.038   5.166  0.00  0.00    +0.000 OA
BRANCH  15  16
ATOM     16  C   UNL     1       2.670  -1.159   4.469  0.00  0.00    +0.000 C 
BRANCH  16  21
ATOM     17  C   UNL     1       4.841  -0.571   1.404  0.00  0.00    +0.000 A 
ATOM     18  C   UNL     1       5.884   0.110   2.017  0.00  0.00    +0.000 A 
ATOM     19  N   UNL     1       5.909   0.421   3.336  0.00  0.00    +0.000 NA
ATOM     20  C   UNL     1       4.851   0.018   4.074  0.00  0.00    +0.000 A 
ATOM     21  C   UNL     1       3.764  -0.686   3.560  0.00  0.00    +0.000 A 
ATOM     22  C   UNL     1       3.769  -0.988   2.194  0.00  0.00    +0.000 A 
BRANCH  17  24
ATOM     23  N   UNL     1       3.753  -0.998  -0.726  0.00  0.00    +0.000 N 
ATOM     24  C   UNL     1       4.929  -0.852  -0.042  0.00  0.00    +0.000 C 
ATOM     25  O   UNL     1       6.007  -0.928  -0.614  0.00  0.00    +0.000 OA
ATOM     26  H   UNL     1       3.835  -1.075  -1.732  0.00  0.00    +0.000 HD
ATOM     27  H   UNL     1       2.869  -0.678  -0.357  0.00  0.00    +0.000 HD
ENDBRANCH  17  24
ENDBRANCH  16  21
ENDBRANCH  15  16
ENDBRANCH   1  15
TORSDOF 5
