REMARK  Name = 
REMARK  11 active torsions:
REMARK  status: ('A' for Active; 'I' for Inactive)
REMARK    1  A    between atoms: C_1  and  C_2
REMARK    2  A    between atoms: C_2  and  C_3
REMARK    3  A    between atoms: C_2  and  N_5
REMARK    4  A    between atoms: C_6  and  C_8
REMARK    5  A    between atoms: C_8  and  O_9
REMARK    6  A    between atoms: C_8  and  C_10
REMARK    7  A    between atoms: C_13  and  O_14
REMARK    8  A    between atoms: O_14  and  C_15
REMARK    9  A    between atoms: C_15  and  C_16
REMARK   10  A    between atoms: C_16  and  C_19
REMARK   11  A    between atoms: C_23  and  C_24
REMARK                            x       y       z     vdW  Elec       q    Type
REMARK                         _______ _______ _______ _____ _____    ______ ____
ROOT
ATOM      1  C   UNL     1       6.478  -1.977  -2.224  0.00  0.00    +0.000 A 
ATOM      2  C   UNL     1       7.258  -1.147  -1.410  0.00  0.00    +0.000 A 
ATOM      3  C   UNL     1       8.648  -1.271  -1.363  0.00  0.00    +0.000 A 
ATOM      4  C   UNL     1       9.316  -2.195  -2.162  0.00  0.00    +0.000 A 
ATOM      5  C   UNL     1       8.562  -2.995  -3.022  0.00  0.00    +0.000 A 
ATOM      6  C   UNL     1       7.158  -2.893  -3.049  0.00  0.00    +0.000 A 
ENDROOT
BRANCH   1   7
ATOM      7  C   UNL     1       4.949  -1.962  -2.179  0.00  0.00    +0.000 C 
BRANCH   7   9
ATOM      8  N   UNL     1       3.454  -0.062  -1.585  0.00  0.00    +0.000 N 
ATOM      9  C   UNL     1       4.346  -1.005  -1.121  0.00  0.00    +0.000 C 
ATOM     10  O   UNL     1       4.645  -1.081   0.072  0.00  0.00    +0.000 OA
ATOM     11  H   UNL     1       3.217  -0.036  -2.569  0.00  0.00    +0.000 HD
BRANCH   8  13
ATOM     12  C   UNL     1       3.798   1.814  -0.034  0.00  0.00    +0.000 C 
ATOM     13  C   UNL     1       2.799   0.871  -0.698  0.00  0.00    +0.000 C 
ATOM     14  C   UNL     1       1.911   0.178   0.337  0.00  0.00    +0.000 C 
ATOM     15  F   UNL     1       1.984   1.636  -1.482  0.00  0.00    +0.000 F 
ENDBRANCH   8  13
ENDBRANCH   7   9
BRANCH   7  16
ATOM     16  O   UNL     1       4.415  -1.711  -3.476  0.00  0.00    +0.000 OA
ATOM     17  H   UNL     1       5.019  -1.081  -3.909  0.00  0.00    +0.000 HD
ENDBRANCH   7  16
ENDBRANCH   1   7
BRANCH   4  18
ATOM     18  O   UNL     1      10.678  -2.380  -2.161  0.00  0.00    +0.000 OA
BRANCH  18  19
ATOM     19  C   UNL     1      11.399  -1.538  -1.240  0.00  0.00    +0.000 C 
BRANCH  19  20
ATOM     20  C   UNL     1      12.908  -1.782  -1.253  0.00  0.00    +0.000 C 
ATOM     21  F   UNL     1      13.382  -1.507  -2.510  0.00  0.00    +0.000 F 
ATOM     22  F   UNL     1      13.487  -0.826  -0.457  0.00  0.00    +0.000 F 
BRANCH  20  23
ATOM     23  C   UNL     1      13.257  -3.181  -0.780  0.00  0.00    +0.000 A 
ATOM     24  C   UNL     1      13.945  -4.036  -1.621  0.00  0.00    +0.000 A 
ATOM     25  C   UNL     1      14.244  -5.285  -1.123  0.00  0.00    +0.000 A 
ATOM     26  N   UNL     1      13.901  -5.701   0.105  0.00  0.00    +0.000 NA
ATOM     27  C   UNL     1      13.223  -4.792   0.859  0.00  0.00    +0.000 A 
ATOM     28  N   UNL     1      12.894  -3.548   0.471  0.00  0.00    +0.000 NA
BRANCH  27  29
ATOM     29  C   UNL     1      12.800  -5.246   2.231  0.00  0.00    +0.000 C 
ATOM     30  N   UNL     1      13.153  -6.530   2.581  0.00  0.00    +0.000 N 
ATOM     31  O   UNL     1      12.173  -4.539   3.013  0.00  0.00    +0.000 OA
ATOM     32  H   UNL     1      13.678  -7.110   1.936  0.00  0.00    +0.000 HD
ATOM     33  H   UNL     1      12.892  -6.879   3.491  0.00  0.00    +0.000 HD
ENDBRANCH  27  29
ENDBRANCH  20  23
ENDBRANCH  19  20
ENDBRANCH  18  19
ENDBRANCH   4  18
TORSDOF 9
