REMARK  Name = 
REMARK  6 active torsions:
REMARK  status: ('A' for Active; 'I' for Inactive)
REMARK    1  A    between atoms: C_1  and  C_2
REMARK    2  A    between atoms: C_2  and  C_3
REMARK    3  A    between atoms: C_2  and  C_14
REMARK    4  A    between atoms: C_3  and  N_4
REMARK    5  A    between atoms: N_4  and  C_5
REMARK    6  A    between atoms: C_8  and  C_9
REMARK                            x       y       z     vdW  Elec       q    Type
REMARK                         _______ _______ _______ _____ _____    ______ ____
ROOT
ATOM      1  N   UNL     1       2.756   2.282  -1.160  0.00  0.00    +0.000 N 
ATOM      2  H   UNL     1       1.754   2.295  -1.344  0.00  0.00    +0.000 HD
ENDROOT
BRANCH   1   3
ATOM      3  C   UNL     1       3.313   3.564  -1.275  0.00  0.00    +0.000 A 
ATOM      4  C   UNL     1       2.667   4.531  -2.052  0.00  0.00    +0.000 A 
ATOM      5  C   UNL     1       3.216   5.806  -2.199  0.00  0.00    +0.000 A 
ATOM      6  C   UNL     1       4.431   6.069  -1.583  0.00  0.00    +0.000 A 
ATOM      7  N   UNL     1       5.133   5.147  -0.872  0.00  0.00    +0.000 NA
ATOM      8  C   UNL     1       4.564   3.924  -0.763  0.00  0.00    +0.000 A 
BRANCH   6   9
ATOM      9  C   UNL     1       5.039   7.434  -1.666  0.00  0.00    +0.000 C 
ATOM     10  N   UNL     1       6.229   7.577  -1.004  0.00  0.00    +0.000 N 
ATOM     11  O   UNL     1       4.514   8.362  -2.268  0.00  0.00    +0.000 OA
ATOM     12  H   UNL     1       6.621   6.780  -0.514  0.00  0.00    +0.000 HD
ATOM     13  H   UNL     1       6.698   8.470  -0.997  0.00  0.00    +0.000 HD
ENDBRANCH   6   9
ENDBRANCH   1   3
BRANCH   1  14
ATOM     14  C   UNL     1       3.063   1.534   0.055  0.00  0.00    +0.000 C 
BRANCH  14  16
ATOM     15  C   UNL     1       2.807  -0.810  -0.958  0.00  0.00    +0.000 C 
ATOM     16  C   UNL     1       2.314   0.242  -0.013  0.00  0.00    +0.000 C 
BRANCH  16  17
ATOM     17  C   UNL     1       1.013   0.071   0.653  0.00  0.00    +0.000 A 
ATOM     18  C   UNL     1       0.792   0.507   1.966  0.00  0.00    +0.000 A 
ATOM     19  C   UNL     1      -0.444   0.300   2.589  0.00  0.00    +0.000 A 
ATOM     20  C   UNL     1      -1.476  -0.337   1.901  0.00  0.00    +0.000 A 
ATOM     21  C   UNL     1      -1.266  -0.759   0.593  0.00  0.00    +0.000 A 
ATOM     22 CL   UNL     1      -2.537  -1.535  -0.273  0.00  0.00    +0.000 Cl
ATOM     23  C   UNL     1      -0.036  -0.561  -0.029  0.00  0.00    +0.000 A 
ENDBRANCH  16  17
ENDBRANCH  14  16
ENDBRANCH   1  14
TORSDOF 5
