REMARK  Name = 
REMARK  5 active torsions:
REMARK  status: ('A' for Active; 'I' for Inactive)
REMARK    1  A    between atoms: C_2  and  C_4
REMARK    2  A    between atoms: C_7  and  O_8
REMARK    3  A    between atoms: O_8  and  C_9
REMARK    4  A    between atoms: C_9  and  C_10
REMARK    5  A    between atoms: C_14  and  C_15
REMARK                            x       y       z     vdW  Elec       q    Type
REMARK                         _______ _______ _______ _____ _____    ______ ____
ROOT
ATOM      1  C   UNL     1       4.761   4.042  -4.587  0.00  0.00    +0.000 C 
ENDROOT
BRANCH   1   2
ATOM      2  C   UNL     1       5.571   4.583  -5.734  0.00  0.00    +0.000 A 
ATOM      3  C   UNL     1       6.303   3.721  -6.540  0.00  0.00    +0.000 A 
ATOM      4  N   UNL     1       7.022   4.117  -7.610  0.00  0.00    +0.000 NA
ATOM      5  C   UNL     1       7.005   5.443  -7.896  0.00  0.00    +0.000 A 
ATOM      6  C   UNL     1       6.293   6.412  -7.187  0.00  0.00    +0.000 A 
ATOM      7  C   UNL     1       5.557   5.938  -6.090  0.00  0.00    +0.000 A 
BRANCH   6   8
ATOM      8  C   UNL     1       6.304   7.839  -7.563  0.00  0.00    +0.000 A 
ATOM      9  C   UNL     1       6.419   8.268  -8.893  0.00  0.00    +0.000 A 
ATOM     10  C   UNL     1       6.415   9.628  -9.207  0.00  0.00    +0.000 A 
ATOM     11  C   UNL     1       6.287  10.541  -8.177  0.00  0.00    +0.000 A 
ATOM     12  N   UNL     1       6.176  10.189  -6.882  0.00  0.00    +0.000 NA
ATOM     13  C   UNL     1       6.193   8.859  -6.612  0.00  0.00    +0.000 A 
ENDBRANCH   6   8
ENDBRANCH   1   2
BRANCH   1  14
ATOM     14  O   UNL     1       4.696   4.998  -3.522  0.00  0.00    +0.000 OA
BRANCH  14  18
ATOM     15  C   UNL     1       2.398   3.711  -0.359  0.00  0.00    +0.000 A 
ATOM     16  C   UNL     1       2.981   4.979  -0.316  0.00  0.00    +0.000 A 
ATOM     17  C   UNL     1       3.763   5.404  -1.392  0.00  0.00    +0.000 A 
ATOM     18  C   UNL     1       3.931   4.544  -2.468  0.00  0.00    +0.000 A 
ATOM     19  N   UNL     1       3.389   3.308  -2.527  0.00  0.00    +0.000 NA
ATOM     20  C   UNL     1       2.644   2.914  -1.467  0.00  0.00    +0.000 A 
BRANCH  15  22
ATOM     21  N   UNL     1       0.858   4.060   1.489  0.00  0.00    +0.000 N 
ATOM     22  C   UNL     1       1.545   3.165   0.716  0.00  0.00    +0.000 C 
ATOM     23  O   UNL     1       1.422   1.960   0.880  0.00  0.00    +0.000 OA
ATOM     24  H   UNL     1       0.187   3.663   2.134  0.00  0.00    +0.000 HD
ATOM     25  H   UNL     1       0.729   5.025   1.219  0.00  0.00    +0.000 HD
ENDBRANCH  15  22
ENDBRANCH  14  18
ENDBRANCH   1  14
TORSDOF 5
