REMARK  Name = 
REMARK  4 active torsions:
REMARK  status: ('A' for Active; 'I' for Inactive)
REMARK    1  A    between atoms: C_2  and  C_4
REMARK    2  A    between atoms: N_8  and  C_9
REMARK    3  A    between atoms: C_9  and  C_10
REMARK    4  A    between atoms: C_14  and  C_15
REMARK                            x       y       z     vdW  Elec       q    Type
REMARK                         _______ _______ _______ _____ _____    ______ ____
ROOT
ATOM      1  C   UNL     1       5.623  -5.369   1.828  0.00  0.00    +0.000 C 
ATOM      2  C   UNL     1       5.798  -6.343   0.675  0.00  0.00    +0.000 C 
ATOM      3  C   UNL     1       4.548  -6.381   1.490  0.00  0.00    +0.000 C 
ENDROOT
BRANCH   1   8
ATOM      4  C   UNL     1       3.410  -0.744   2.796  0.00  0.00    +0.000 A 
ATOM      5  C   UNL     1       2.778  -1.983   2.754  0.00  0.00    +0.000 A 
ATOM      6  C   UNL     1       3.509  -3.109   2.359  0.00  0.00    +0.000 A 
ATOM      7  C   UNL     1       4.842  -2.959   2.003  0.00  0.00    +0.000 A 
ATOM      8  N   UNL     1       5.591  -3.962   1.387  0.00  0.00    +0.000 N 
ATOM      9  N   UNL     1       5.476  -1.769   2.086  0.00  0.00    +0.000 NA
ATOM     10  C   UNL     1       4.754  -0.691   2.478  0.00  0.00    +0.000 A 
ATOM     11  H   UNL     1       6.514  -3.540   1.287  0.00  0.00    +0.000 HD
BRANCH   4  13
ATOM     12  N   UNL     1       1.540   0.466   3.785  0.00  0.00    +0.000 N 
ATOM     13  C   UNL     1       2.716   0.527   3.102  0.00  0.00    +0.000 C 
ATOM     14  O   UNL     1       3.183   1.610   2.764  0.00  0.00    +0.000 OA
ATOM     15  H   UNL     1       1.114   1.353   4.038  0.00  0.00    +0.000 HD
ATOM     16  H   UNL     1       1.221  -0.360   4.262  0.00  0.00    +0.000 HD
ENDBRANCH   4  13
ENDBRANCH   1   8
BRANCH   1  17
ATOM     17  C   UNL     1       6.405  -5.544   3.124  0.00  0.00    +0.000 A 
ATOM     18  C   UNL     1       7.785  -5.290   3.176  0.00  0.00    +0.000 A 
ATOM     19  C   UNL     1       8.449  -5.163   4.394  0.00  0.00    +0.000 A 
ATOM     20  C   UNL     1       7.746  -5.311   5.591  0.00  0.00    +0.000 A 
ATOM     21  C   UNL     1       6.378  -5.622   5.595  0.00  0.00    +0.000 A 
ATOM     22  C   UNL     1       5.740  -5.760   4.348  0.00  0.00    +0.000 A 
BRANCH  21  23
ATOM     23  C   UNL     1       5.603  -5.698   6.849  0.00  0.00    +0.000 A 
ATOM     24  C   UNL     1       5.778  -4.765   7.881  0.00  0.00    +0.000 A 
ATOM     25  C   UNL     1       4.992  -4.821   9.027  0.00  0.00    +0.000 A 
ATOM     26  C   UNL     1       4.038  -5.816   9.125  0.00  0.00    +0.000 A 
ATOM     27  N   UNL     1       3.829  -6.742   8.167  0.00  0.00    +0.000 NA
ATOM     28  C   UNL     1       4.615  -6.662   7.063  0.00  0.00    +0.000 A 
ENDBRANCH  21  23
ENDBRANCH   1  17
TORSDOF 4
