REMARK  Name = 
REMARK  3 active torsions:
REMARK  status: ('A' for Active; 'I' for Inactive)
REMARK    1  A    between atoms: C_2  and  C_4
REMARK    2  A    between atoms: N_8  and  C_9
REMARK    3  A    between atoms: C_9  and  C_10
REMARK                            x       y       z     vdW  Elec       q    Type
REMARK                         _______ _______ _______ _____ _____    ______ ____
ROOT
ATOM      1  C   UNL     1       3.318  -1.079   3.153  0.00  0.00    +0.000 A 
ATOM      2  C   UNL     1       2.638  -2.259   2.860  0.00  0.00    +0.000 A 
ATOM      3  C   UNL     1       3.345  -3.348   2.331  0.00  0.00    +0.000 A 
ATOM      4  C   UNL     1       4.712  -3.221   2.096  0.00  0.00    +0.000 A 
ATOM      5  N   UNL     1       5.484  -4.170   1.439  0.00  0.00    +0.000 N 
ATOM      6  N   UNL     1       5.375  -2.074   2.386  0.00  0.00    +0.000 NA
ATOM      7  C   UNL     1       4.676  -1.033   2.898  0.00  0.00    +0.000 A 
ATOM      8  H   UNL     1       6.425  -3.778   1.397  0.00  0.00    +0.000 HD
ENDROOT
BRANCH   1  10
ATOM      9  N   UNL     1       1.510  -0.090   4.421  0.00  0.00    +0.000 N 
ATOM     10  C   UNL     1       2.637   0.121   3.676  0.00  0.00    +0.000 C 
ATOM     11  O   UNL     1       3.070   1.248   3.472  0.00  0.00    +0.000 OA
ATOM     12  H   UNL     1       1.088   0.725   4.849  0.00  0.00    +0.000 HD
ATOM     13  H   UNL     1       1.271  -0.996   4.796  0.00  0.00    +0.000 HD
ENDBRANCH   1  10
BRANCH   5  14
ATOM     14  C   UNL     1       5.413  -5.630   1.549  0.00  0.00    +0.000 C 
ATOM     15  C   UNL     1       5.506  -6.299   0.176  0.00  0.00    +0.000 C 
ATOM     16  C   UNL     1       4.301  -6.522   1.021  0.00  0.00    +0.000 C 
BRANCH  14  17
ATOM     17  C   UNL     1       6.170  -6.235   2.729  0.00  0.00    +0.000 A 
ATOM     18  C   UNL     1       5.518  -6.431   3.964  0.00  0.00    +0.000 A 
ATOM     19  C   UNL     1       6.100  -7.193   4.978  0.00  0.00    +0.000 A 
ATOM     20  C   UNL     1       7.363  -7.735   4.782  0.00  0.00    +0.000 A 
ATOM     21  F   UNL     1       7.892  -8.529   5.721  0.00  0.00    +0.000 F 
ATOM     22  C   UNL     1       8.069  -7.493   3.611  0.00  0.00    +0.000 A 
ATOM     23  C   UNL     1       7.478  -6.738   2.596  0.00  0.00    +0.000 A 
ENDBRANCH  14  17
ENDBRANCH   5  14
TORSDOF 3
