REMARK  Name = 
REMARK  8 active torsions:
REMARK  status: ('A' for Active; 'I' for Inactive)
REMARK    1  A    between atoms: C_1  and  C_2
REMARK    2  A    between atoms: C_2  and  N_3
REMARK    3  A    between atoms: C_2  and  C_25
REMARK    4  A    between atoms: N_3  and  C_4
REMARK    5  A    between atoms: C_4  and  C_5
REMARK    6  A    between atoms: C_8  and  C_9
REMARK    7  A    between atoms: C_9  and  N_10
REMARK    8  A    between atoms: C_11  and  C_13
REMARK                            x       y       z     vdW  Elec       q    Type
REMARK                         _______ _______ _______ _____ _____    ______ ____
ROOT
ATOM      1  C   UNL     1      -1.047   0.739   1.236  0.00  0.00    +0.000 A 
ATOM      2  C   UNL     1      -1.768  -0.444   1.015  0.00  0.00    +0.000 A 
ATOM      3  C   UNL     1      -3.165  -0.444   1.046  0.00  0.00    +0.000 A 
ATOM      4  C   UNL     1      -3.867   0.742   1.291  0.00  0.00    +0.000 A 
ATOM      5  C   UNL     1      -3.147   1.918   1.541  0.00  0.00    +0.000 A 
ATOM      6  C   UNL     1      -1.751   1.918   1.509  0.00  0.00    +0.000 A 
ENDROOT
BRANCH   1   7
ATOM      7  C   UNL     1       0.464   0.721   1.255  0.00  0.00    +0.000 C 
BRANCH   7   8
ATOM      8  N   UNL     1       1.020   0.191   0.009  0.00  0.00    +0.000 NA
ATOM      9  H   UNL     1       0.687   0.771  -0.762  0.00  0.00    +0.000 HD
BRANCH   8  11
ATOM     10  C   UNL     1       3.087  -0.700   1.093  0.00  0.00    +0.000 C 
ATOM     11  C   UNL     1       2.490   0.186  -0.009  0.00  0.00    +0.000 C 
BRANCH  11  12
ATOM     12  C   UNL     1       2.991  -0.271  -1.377  0.00  0.00    +0.000 A 
ATOM     13  C   UNL     1       3.799   0.574  -2.155  0.00  0.00    +0.000 A 
ATOM     14  C   UNL     1       4.267   0.161  -3.406  0.00  0.00    +0.000 A 
ATOM     15  C   UNL     1       3.933  -1.101  -3.891  0.00  0.00    +0.000 A 
ATOM     16 CL   UNL     1       4.507  -1.606  -5.433  0.00  0.00    +0.000 Cl
ATOM     17  C   UNL     1       3.133  -1.954  -3.136  0.00  0.00    +0.000 A 
ATOM     18  C   UNL     1       2.663  -1.540  -1.887  0.00  0.00    +0.000 A 
ENDBRANCH  11  12
ENDBRANCH   8  11
ENDBRANCH   7   8
ENDBRANCH   1   7
BRANCH   4  19
ATOM     19  C   UNL     1      -5.371   0.751   1.338  0.00  0.00    +0.000 C 
BRANCH  19  20
ATOM     20  N   UNL     1      -5.846   0.510   2.677  0.00  0.00    +0.000 N 
ATOM     21  C   UNL     1      -7.184   0.380   2.941  0.00  0.00    +0.000 C 
ATOM     22  O   UNL     1      -8.029   0.424   2.051  0.00  0.00    +0.000 OA
ATOM     23  H   UNL     1      -5.195   0.683   3.437  0.00  0.00    +0.000 HD
BRANCH  21  24
ATOM     24  C   UNL     1      -7.555   0.122   4.337  0.00  0.00    +0.000 A 
ATOM     25  C   UNL     1      -8.775  -0.477   4.620  0.00  0.00    +0.000 A 
ATOM     26  S   UNL     1      -9.030  -0.760   6.281  0.00  0.00    +0.000 S 
ATOM     27  C   UNL     1      -7.541  -0.045   6.687  0.00  0.00    +0.000 A 
ATOM     28  N   UNL     1      -7.144   0.055   7.984  0.00  0.00    +0.000 NA
ATOM     29  C   UNL     1      -6.009   0.645   8.152  0.00  0.00    +0.000 A 
ATOM     30  N   UNL     1      -5.231   1.140   7.136  0.00  0.00    +0.000 N 
ATOM     31  C   UNL     1      -5.577   1.037   5.811  0.00  0.00    +0.000 A 
ATOM     32  O   UNL     1      -4.837   1.456   4.927  0.00  0.00    +0.000 OA
ATOM     33  C   UNL     1      -6.850   0.390   5.569  0.00  0.00    +0.000 A 
ATOM     34  H   UNL     1      -4.348   1.582   7.339  0.00  0.00    +0.000 HD
ENDBRANCH  21  24
ENDBRANCH  19  20
ENDBRANCH   4  19
TORSDOF 7
