REMARK  Name = 
REMARK  9 active torsions:
REMARK  status: ('A' for Active; 'I' for Inactive)
REMARK    1  A    between atoms: C_1  and  O_2
REMARK    2  A    between atoms: O_2  and  C_3
REMARK    3  A    between atoms: C_6  and  C_7
REMARK    4  A    between atoms: C_7  and  C_8
REMARK    5  A    between atoms: C_8  and  N_9
REMARK    6  A    between atoms: N_9  and  C_10
REMARK    7  A    between atoms: C_13  and  C_14
REMARK    8  A    between atoms: C_20  and  O_21
REMARK    9  A    between atoms: O_21  and  C_22
REMARK                            x       y       z     vdW  Elec       q    Type
REMARK                         _______ _______ _______ _____ _____    ______ ____
ROOT
ATOM      1  C   UNL     1       5.570  -4.510   1.364  0.00  0.00    +0.000 C 
ENDROOT
BRANCH   1   5
ATOM      2  C   UNL     1       3.008  -1.163   0.274  0.00  0.00    +0.000 A 
ATOM      3  C   UNL     1       2.731  -2.468  -0.166  0.00  0.00    +0.000 A 
ATOM      4  C   UNL     1       3.561  -3.544   0.173  0.00  0.00    +0.000 A 
ATOM      5  C   UNL     1       4.697  -3.343   0.956  0.00  0.00    +0.000 A 
ATOM      6  C   UNL     1       4.972  -2.044   1.402  0.00  0.00    +0.000 A 
ATOM      7  C   UNL     1       4.149  -0.954   1.060  0.00  0.00    +0.000 A 
BRANCH   2   9
ATOM      8  C   UNL     1       0.886  -0.368  -0.467  0.00  0.00    +0.000 C 
ATOM      9  O   UNL     1       2.218  -0.090  -0.042  0.00  0.00    +0.000 OA
ENDBRANCH   2   9
BRANCH   7  10
ATOM     10  O   UNL     1       4.567   0.216   1.651  0.00  0.00    +0.000 OA
BRANCH  10  11
ATOM     11  C   UNL     1       4.221   1.508   1.106  0.00  0.00    +0.000 C 
ATOM     12  C   UNL     1       4.830   1.929  -0.246  0.00  0.00    +0.000 C 
ATOM     13  N   UNL     1       5.373   3.159   0.353  0.00  0.00    +0.000 NA
ATOM     14  C   UNL     1       5.048   2.673   1.699  0.00  0.00    +0.000 C 
ATOM     15  H   UNL     1       4.874   4.008   0.090  0.00  0.00    +0.000 HD
ENDBRANCH  10  11
ENDBRANCH   7  10
ENDBRANCH   1   5
BRANCH   1  16
ATOM     16  C   UNL     1       5.078  -5.129   2.675  0.00  0.00    +0.000 C 
BRANCH  16  17
ATOM     17  N   UNL     1       5.839  -6.326   3.049  0.00  0.00    +0.000 N 
ATOM     18  H   UNL     1       6.832  -6.285   2.830  0.00  0.00    +0.000 HD
BRANCH  17  19
ATOM     19  C   UNL     1       5.589  -6.900   4.306  0.00  0.00    +0.000 A 
ATOM     20  C   UNL     1       4.468  -6.578   5.085  0.00  0.00    +0.000 A 
ATOM     21  C   UNL     1       4.206  -7.226   6.295  0.00  0.00    +0.000 A 
ATOM     22  C   UNL     1       5.037  -8.253   6.742  0.00  0.00    +0.000 A 
ATOM     23  C   UNL     1       6.152  -8.608   5.974  0.00  0.00    +0.000 A 
ATOM     24  C   UNL     1       6.415  -7.937   4.765  0.00  0.00    +0.000 A 
BRANCH  22  25
ATOM     25  C   UNL     1       4.690  -8.917   8.025  0.00  0.00    +0.000 C 
ATOM     26  N   UNL     1       5.122 -10.200   8.215  0.00  0.00    +0.000 N 
ATOM     27  O   UNL     1       3.998  -8.363   8.873  0.00  0.00    +0.000 OA
ATOM     28  H   UNL     1       5.467 -10.771   7.458  0.00  0.00    +0.000 HD
ATOM     29  H   UNL     1       4.758 -10.671   9.035  0.00  0.00    +0.000 HD
ENDBRANCH  22  25
ENDBRANCH  17  19
ENDBRANCH  16  17
ENDBRANCH   1  16
TORSDOF 8
