REMARK  Name = 
REMARK  6 active torsions:
REMARK  status: ('A' for Active; 'I' for Inactive)
REMARK    1  A    between atoms: C_1  and  C_2
REMARK    2  A    between atoms: C_2  and  C_3
REMARK    3  A    between atoms: C_2  and  C_4
REMARK    4  A    between atoms: C_2  and  C_19
REMARK    5  A    between atoms: C_4  and  N_5
REMARK    6  A    between atoms: C_10  and  C_11
REMARK                            x       y       z     vdW  Elec       q    Type
REMARK                         _______ _______ _______ _____ _____    ______ ____
ROOT
ATOM      1  N   UNL     1       2.528  -2.575   0.223  0.00  0.00    +0.000 N 
ATOM      2  C   UNL     1       3.011  -3.762  -0.323  0.00  0.00    +0.000 A 
ATOM      3  N   UNL     1       4.185  -3.768  -0.969  0.00  0.00    +0.000 NA
ATOM      4  C   UNL     1       4.592  -4.931  -1.493  0.00  0.00    +0.000 A 
ATOM      5  C   UNL     1       3.868  -6.090  -1.403  0.00  0.00    +0.000 A 
ATOM      6  C   UNL     1       2.665  -6.005  -0.729  0.00  0.00    +0.000 A 
ATOM      7  N   UNL     1       2.236  -4.844  -0.180  0.00  0.00    +0.000 NA
ATOM      8  H   UNL     1       1.530  -2.702   0.356  0.00  0.00    +0.000 HD
ENDROOT
BRANCH   6   9
ATOM      9  C   UNL     1       1.759  -7.157  -0.582  0.00  0.00    +0.000 A 
ATOM     10  C   UNL     1       1.643  -8.160  -1.559  0.00  0.00    +0.000 A 
ATOM     11  C   UNL     1       0.760  -9.223  -1.381  0.00  0.00    +0.000 A 
ATOM     12  C   UNL     1       0.010  -9.265  -0.221  0.00  0.00    +0.000 A 
ATOM     13  F   UNL     1      -0.845 -10.283  -0.051  0.00  0.00    +0.000 F 
ATOM     14  N   UNL     1       0.082  -8.338   0.750  0.00  0.00    +0.000 NA
ATOM     15  C   UNL     1       0.945  -7.310   0.544  0.00  0.00    +0.000 A 
ENDBRANCH   6   9
BRANCH   1  16
ATOM     16  C   UNL     1       2.911  -1.392  -0.541  0.00  0.00    +0.000 C 
BRANCH  16  18
ATOM     17  C   UNL     1       3.095   0.083   1.495  0.00  0.00    +0.000 C 
ATOM     18  C   UNL     1       2.412  -0.067   0.113  0.00  0.00    +0.000 C 
ATOM     19  C   UNL     1       2.928   1.104  -0.763  0.00  0.00    +0.000 C 
BRANCH  18  20
ATOM     20  C   UNL     1       0.873   0.008   0.177  0.00  0.00    +0.000 A 
ATOM     21  C   UNL     1       0.178   0.186   1.387  0.00  0.00    +0.000 A 
ATOM     22  C   UNL     1      -1.216   0.299   1.421  0.00  0.00    +0.000 A 
ATOM     23  C   UNL     1      -1.952   0.235   0.243  0.00  0.00    +0.000 A 
ATOM     24  C   UNL     1      -1.289   0.049  -0.964  0.00  0.00    +0.000 A 
ATOM     25 CL   UNL     1      -2.192  -0.025  -2.428  0.00  0.00    +0.000 Cl
ATOM     26  C   UNL     1       0.103  -0.068  -1.002  0.00  0.00    +0.000 A 
ENDBRANCH  18  20
ENDBRANCH  16  18
ENDBRANCH   1  16
TORSDOF 4
