REMARK  Name = 
REMARK  5 active torsions:
REMARK  status: ('A' for Active; 'I' for Inactive)
REMARK    1  A    between atoms: C_1  and  N_2
REMARK    2  A    between atoms: C_3  and  C_5
REMARK    3  A    between atoms: N_9  and  C_10
REMARK    4  A    between atoms: C_10  and  C_11
REMARK    5  A    between atoms: C_10  and  C_12
REMARK                            x       y       z     vdW  Elec       q    Type
REMARK                         _______ _______ _______ _____ _____    ______ ____
ROOT
ATOM      1  C   UNL     1      11.340   5.215   0.160  0.00  0.00    +0.000 A 
ATOM      2  C   UNL     1      10.003   5.297   0.544  0.00  0.00    +0.000 A 
ATOM      3  C   UNL     1       9.368   4.160   1.057  0.00  0.00    +0.000 A 
ATOM      4  C   UNL     1      10.063   2.954   1.128  0.00  0.00    +0.000 A 
ATOM      5  N   UNL     1       9.365   1.807   1.500  0.00  0.00    +0.000 N 
ATOM      6  N   UNL     1      11.363   2.876   0.794  0.00  0.00    +0.000 NA
ATOM      7  C   UNL     1      11.974   3.994   0.322  0.00  0.00    +0.000 A 
ATOM      8  H   UNL     1       9.049   1.823   2.462  0.00  0.00    +0.000 HD
ENDROOT
BRANCH   1  11
ATOM      9  C   UNL     1      12.285   8.734  -0.852  0.00  0.00    +0.000 C 
ATOM     10  N   UNL     1      11.635   7.602  -0.240  0.00  0.00    +0.000 N 
ATOM     11  C   UNL     1      12.085   6.322  -0.483  0.00  0.00    +0.000 C 
ATOM     12  O   UNL     1      13.053   6.074  -1.192  0.00  0.00    +0.000 OA
ATOM     13  H   UNL     1      10.941   7.773   0.473  0.00  0.00    +0.000 HD
ENDBRANCH   1  11
BRANCH   5  14
ATOM     14  C   UNL     1       9.883   0.520   1.029  0.00  0.00    +0.000 C 
ATOM     15  C   UNL     1       8.898   0.046  -0.053  0.00  0.00    +0.000 C 
BRANCH  14  16
ATOM     16  C   UNL     1      10.067  -0.453   2.191  0.00  0.00    +0.000 A 
ATOM     17  C   UNL     1       9.499  -1.738   2.208  0.00  0.00    +0.000 A 
ATOM     18  C   UNL     1       9.696  -2.602   3.288  0.00  0.00    +0.000 A 
ATOM     19  C   UNL     1      10.479  -2.204   4.367  0.00  0.00    +0.000 A 
ATOM     20  C   UNL     1      11.085  -0.950   4.355  0.00  0.00    +0.000 A 
ATOM     21  C   UNL     1      10.888  -0.086   3.274  0.00  0.00    +0.000 A 
ENDBRANCH  14  16
ENDBRANCH   5  14
TORSDOF 3
