REMARK  Name = 
REMARK  9 active torsions:
REMARK  status: ('A' for Active; 'I' for Inactive)
REMARK    1  A    between atoms: C_1  and  O_2
REMARK    2  A    between atoms: O_2  and  C_3
REMARK    3  A    between atoms: C_8  and  C_9
REMARK    4  A    between atoms: N_11  and  C_12
REMARK    5  A    between atoms: C_12  and  C_13
REMARK    6  A    between atoms: C_16  and  C_17
REMARK    7  A    between atoms: C_17  and  N_18
REMARK    8  A    between atoms: C_19  and  C_21
REMARK    9  A    between atoms: N_27  and  C_28
REMARK                            x       y       z     vdW  Elec       q    Type
REMARK                         _______ _______ _______ _____ _____    ______ ____
ROOT
ATOM      1  C   UNL     1       3.154  -1.168  -4.134  0.00  0.00    +0.000 A 
ATOM      2  C   UNL     1       3.495  -2.527  -4.116  0.00  0.00    +0.000 A 
ATOM      3  C   UNL     1       2.582  -3.500  -4.544  0.00  0.00    +0.000 A 
ATOM      4  C   UNL     1       1.318  -3.133  -5.028  0.00  0.00    +0.000 A 
ATOM      5  C   UNL     1       0.970  -1.776  -5.020  0.00  0.00    +0.000 A 
ATOM      6  C   UNL     1       1.881  -0.804  -4.591  0.00  0.00    +0.000 A 
ENDROOT
BRANCH   1   7
ATOM      7  C   UNL     1       4.145  -0.117  -3.701  0.00  0.00    +0.000 C 
BRANCH   7  10
ATOM      8  C   UNL     1       5.974   1.248  -4.628  0.00  0.00    +0.000 C 
ATOM      9  O   UNL     1       6.181   1.788  -3.543  0.00  0.00    +0.000 OA
ATOM     10  N   UNL     1       4.975   0.319  -4.797  0.00  0.00    +0.000 N 
ATOM     11  H   UNL     1       4.841  -0.090  -5.715  0.00  0.00    +0.000 HD
BRANCH   8  17
ATOM     12  C   UNL     1       6.707   1.000  -7.096  0.00  0.00    +0.000 A 
ATOM     13  C   UNL     1       7.659   1.303  -8.083  0.00  0.00    +0.000 A 
ATOM     14  C   UNL     1       8.712   2.182  -7.823  0.00  0.00    +0.000 A 
ATOM     15  C   UNL     1       8.822   2.785  -6.577  0.00  0.00    +0.000 A 
ATOM     16  C   UNL     1       7.898   2.477  -5.578  0.00  0.00    +0.000 A 
ATOM     17  C   UNL     1       6.847   1.568  -5.812  0.00  0.00    +0.000 A 
BRANCH  12  19
ATOM     18  C   UNL     1       5.443  -0.313  -8.648  0.00  0.00    +0.000 C 
ATOM     19  O   UNL     1       5.638   0.167  -7.322  0.00  0.00    +0.000 OA
ENDBRANCH  12  19
ENDBRANCH   8  17
ENDBRANCH   7  10
ENDBRANCH   1   7
BRANCH   4  20
ATOM     20  C   UNL     1       0.345  -4.171  -5.539  0.00  0.00    +0.000 C 
BRANCH  20  21
ATOM     21  N   UNL     1      -0.542  -4.622  -4.504  0.00  0.00    +0.000 N 
ATOM     22  C   UNL     1      -1.532  -5.549  -4.735  0.00  0.00    +0.000 C 
ATOM     23  O   UNL     1      -1.799  -5.960  -5.862  0.00  0.00    +0.000 OA
ATOM     24  H   UNL     1      -0.204  -4.509  -3.556  0.00  0.00    +0.000 HD
BRANCH  22  25
ATOM     25  C   UNL     1      -2.285  -5.990  -3.555  0.00  0.00    +0.000 A 
ATOM     26  C   UNL     1      -3.592  -6.443  -3.679  0.00  0.00    +0.000 A 
ATOM     27  S   UNL     1      -4.300  -6.898  -2.190  0.00  0.00    +0.000 S 
ATOM     28  C   UNL     1      -2.871  -6.540  -1.342  0.00  0.00    +0.000 A 
ATOM     29  N   UNL     1      -2.783  -6.739   0.003  0.00  0.00    +0.000 NA
ATOM     30  C   UNL     1      -1.631  -6.444   0.513  0.00  0.00    +0.000 A 
ATOM     31  N   UNL     1      -0.550  -5.954  -0.184  0.00  0.00    +0.000 N 
ATOM     32  C   UNL     1       0.694  -5.625   0.483  0.00  0.00    +0.000 C 
ATOM     33  C   UNL     1      -0.611  -5.720  -1.552  0.00  0.00    +0.000 A 
ATOM     34  O   UNL     1       0.328  -5.244  -2.181  0.00  0.00    +0.000 OA
ATOM     35  C   UNL     1      -1.883  -6.056  -2.169  0.00  0.00    +0.000 A 
ENDBRANCH  22  25
ENDBRANCH  20  21
ENDBRANCH   4  20
TORSDOF 7
