REMARK  Name = 
REMARK  9 active torsions:
REMARK  status: ('A' for Active; 'I' for Inactive)
REMARK    1  A    between atoms: C_1  and  C_2
REMARK    2  A    between atoms: N_4  and  C_5
REMARK    3  A    between atoms: C_7  and  C_8
REMARK    4  A    between atoms: C_8  and  C_9
REMARK    5  A    between atoms: C_9  and  N_10
REMARK    6  A    between atoms: C_14  and  C_15
REMARK    7  A    between atoms: C_21  and  C_22
REMARK    8  A    between atoms: C_28  and  C_29
REMARK    9  A    between atoms: C_28  and  C_30
REMARK                            x       y       z     vdW  Elec       q    Type
REMARK                         _______ _______ _______ _____ _____    ______ ____
ROOT
ATOM      1  C   UNL     1       1.707   1.467  -3.310  0.00  0.00    +0.000 A 
ATOM      2  C   UNL     1       2.122   2.747  -3.710  0.00  0.00    +0.000 A 
ATOM      3  C   UNL     1       1.404   3.523  -4.643  0.00  0.00    +0.000 A 
ATOM      4  C   UNL     1       0.211   3.019  -5.168  0.00  0.00    +0.000 A 
ATOM      5  C   UNL     1      -0.245   1.754  -4.788  0.00  0.00    +0.000 A 
ATOM      6  C   UNL     1       0.508   1.003  -3.869  0.00  0.00    +0.000 A 
ENDROOT
BRANCH   1  10
ATOM      7  C   UNL     1       1.804   1.418   0.641  0.00  0.00    +0.000 C 
ATOM      8  C   UNL     1       2.982   0.676   0.002  0.00  0.00    +0.000 C 
ATOM      9  C   UNL     1       3.321   1.263  -1.399  0.00  0.00    +0.000 C 
ATOM     10  N   UNL     1       2.431   0.699  -2.422  0.00  0.00    +0.000 N 
ATOM     11  C   UNL     1       2.420  -0.772  -2.455  0.00  0.00    +0.000 C 
ATOM     12  C   UNL     1       2.007  -1.359  -1.070  0.00  0.00    +0.000 C 
ATOM     13  C   UNL     1       0.500  -1.175  -0.818  0.00  0.00    +0.000 C 
ATOM     14  C   UNL     1       2.271  -2.881  -1.098  0.00  0.00    +0.000 C 
ATOM     15  N   UNL     1       2.814  -0.801   0.053  0.00  0.00    +0.000 NA
ATOM     16  H   UNL     1       3.751  -1.200  -0.025  0.00  0.00    +0.000 HD
ENDBRANCH   1  10
BRANCH   5  17
ATOM     17  C   UNL     1      -1.514   1.166  -5.349  0.00  0.00    +0.000 C 
ATOM     18  F   UNL     1      -2.154   1.984  -6.230  0.00  0.00    +0.000 F 
ATOM     19  F   UNL     1      -1.294  -0.001  -6.018  0.00  0.00    +0.000 F 
ATOM     20  F   UNL     1      -2.427   0.872  -4.382  0.00  0.00    +0.000 F 
ENDBRANCH   5  17
BRANCH   3  21
ATOM     21  C   UNL     1       1.936   4.862  -5.110  0.00  0.00    +0.000 C 
BRANCH  21  22
ATOM     22  C   UNL     1       3.276   4.712  -5.842  0.00  0.00    +0.000 C 
BRANCH  22  23
ATOM     23  N   UNL     1       3.755   6.004  -6.354  0.00  0.00    +0.000 N 
ATOM     24  C   UNL     1       5.001   5.891  -7.008  0.00  0.00    +0.000 A 
ATOM     25  C   UNL     1       5.617   7.024  -7.558  0.00  0.00    +0.000 A 
ATOM     26  N   UNL     1       6.818   7.008  -8.203  0.00  0.00    +0.000 NA
ATOM     27  C   UNL     1       7.387   5.773  -8.294  0.00  0.00    +0.000 A 
ATOM     28  C   UNL     1       6.786   4.642  -7.774  0.00  0.00    +0.000 A 
ATOM     29  N   UNL     1       5.593   4.682  -7.129  0.00  0.00    +0.000 NA
ATOM     30  H   UNL     1       3.830   6.704  -5.620  0.00  0.00    +0.000 HD
BRANCH  27  31
ATOM     31  C   UNL     1       8.706   5.649  -8.972  0.00  0.00    +0.000 C 
ATOM     32  N   UNL     1       9.236   6.810  -9.466  0.00  0.00    +0.000 N 
ATOM     33  O   UNL     1       9.288   4.577  -9.080  0.00  0.00    +0.000 OA
ATOM     34  H   UNL     1       8.733   7.682  -9.369  0.00  0.00    +0.000 HD
ATOM     35  H   UNL     1      10.130   6.780  -9.935  0.00  0.00    +0.000 HD
ENDBRANCH  27  31
ENDBRANCH  22  23
ENDBRANCH  21  22
ENDBRANCH   3  21
TORSDOF 6
