REMARK  Name = 
REMARK  4 active torsions:
REMARK  status: ('A' for Active; 'I' for Inactive)
REMARK    1  A    between atoms: O_1  and  C_2
REMARK    2  A    between atoms: C_9  and  C_10
REMARK    3  A    between atoms: C_10  and  N_11
REMARK    4  A    between atoms: C_16  and  C_17
REMARK                            x       y       z     vdW  Elec       q    Type
REMARK                         _______ _______ _______ _____ _____    ______ ____
ROOT
ATOM      1  C   UNL     1      -2.826   0.230   0.894  0.00  0.00    +0.000 C 
ATOM      2  C   UNL     1      -2.229  -0.196   2.233  0.00  0.00    +0.000 C 
ATOM      3  C   UNL     1      -1.570  -1.568   2.122  0.00  0.00    +0.000 C 
ATOM      4  C   UNL     1      -0.505  -1.582   1.031  0.00  0.00    +0.000 C 
ATOM      5  N   UNL     1      -0.995  -1.069  -0.247  0.00  0.00    +0.000 N 
ATOM      6  C   UNL     1      -1.310  -1.991  -1.244  0.00  0.00    +0.000 A 
ATOM      7  C   UNL     1      -1.248  -1.589  -2.584  0.00  0.00    +0.000 A 
ATOM      8  C   UNL     1      -1.494  -2.497  -3.620  0.00  0.00    +0.000 A 
ATOM      9  C   UNL     1      -1.847  -3.798  -3.275  0.00  0.00    +0.000 A 
ATOM     10  C   UNL     1      -1.870  -4.133  -1.931  0.00  0.00    +0.000 A 
ATOM     11  N   UNL     1      -1.584  -3.273  -0.926  0.00  0.00    +0.000 NA
ATOM     12  C   UNL     1      -1.773   0.184  -0.230  0.00  0.00    +0.000 C 
ENDROOT
BRANCH   1  13
ATOM     13  O   UNL     1      -3.951  -0.586   0.563  0.00  0.00    +0.000 OA
ATOM     14  H   UNL     1      -4.514  -0.660   1.352  0.00  0.00    +0.000 HD
ENDBRANCH   1  13
BRANCH   8  15
ATOM     15  C   UNL     1      -1.371  -2.074  -5.061  0.00  0.00    +0.000 C 
BRANCH  15  16
ATOM     16  N   UNL     1      -2.654  -1.627  -5.560  0.00  0.00    +0.000 N 
ATOM     17  C   UNL     1      -2.774  -1.191  -6.866  0.00  0.00    +0.000 A 
ATOM     18  C   UNL     1      -2.063  -1.717  -7.945  0.00  0.00    +0.000 A 
ATOM     19  N   UNL     1      -2.235  -1.323  -9.233  0.00  0.00    +0.000 NA
ATOM     20  C   UNL     1      -3.187  -0.388  -9.422  0.00  0.00    +0.000 A 
ATOM     21  C   UNL     1      -3.926   0.153  -8.380  0.00  0.00    +0.000 A 
ATOM     22  N   UNL     1      -3.711  -0.244  -7.084  0.00  0.00    +0.000 NA
ATOM     23  H   UNL     1      -3.166  -0.994  -4.950  0.00  0.00    +0.000 HD
BRANCH  21  24
ATOM     24  C   UNL     1      -5.001   1.169  -8.695  0.00  0.00    +0.000 C 
ATOM     25  F   UNL     1      -5.087   1.466 -10.027  0.00  0.00    +0.000 F 
ATOM     26  F   UNL     1      -6.251   0.757  -8.340  0.00  0.00    +0.000 F 
ATOM     27  F   UNL     1      -4.807   2.367  -8.074  0.00  0.00    +0.000 F 
ENDBRANCH  21  24
ENDBRANCH  15  16
ENDBRANCH   8  15
TORSDOF 4
