REMARK  Name = 
REMARK  7 active torsions:
REMARK  status: ('A' for Active; 'I' for Inactive)
REMARK    1  A    between atoms: C_2  and  C_20
REMARK    2  A    between atoms: N_3  and  C_4
REMARK    3  A    between atoms: C_4  and  C_5
REMARK    4  A    between atoms: C_8  and  C_9
REMARK    5  A    between atoms: C_9  and  C_10
REMARK    6  A    between atoms: C_10  and  O_11
REMARK    7  A    between atoms: C_10  and  C_12
REMARK                            x       y       z     vdW  Elec       q    Type
REMARK                         _______ _______ _______ _____ _____    ______ ____
ROOT
ATOM      1  C   UNL     1       2.240   2.344  -0.519  0.00  0.00    +0.000 C 
ENDROOT
BRANCH   1   2
ATOM      2  C   UNL     1       3.153   3.519  -0.698  0.00  0.00    +0.000 A 
ATOM      3  C   UNL     1       2.690   4.831  -0.587  0.00  0.00    +0.000 A 
ATOM      4  C   UNL     1       3.576   5.891  -0.755  0.00  0.00    +0.000 A 
ATOM      5  C   UNL     1       4.920   5.619  -1.009  0.00  0.00    +0.000 A 
ATOM      6  N   UNL     1       5.395   4.356  -1.111  0.00  0.00    +0.000 NA
ATOM      7  C   UNL     1       4.509   3.343  -0.950  0.00  0.00    +0.000 A 
BRANCH   5   8
ATOM      8  C   UNL     1       5.914   6.749  -1.132  0.00  0.00    +0.000 C 
BRANCH   8   9
ATOM      9  C   UNL     1       6.060   7.272  -2.571  0.00  0.00    +0.000 C 
BRANCH   9  10
ATOM     10  C   UNL     1       7.104   8.369  -2.740  0.00  0.00    +0.000 A 
ATOM     11  C   UNL     1       7.797   8.476  -3.958  0.00  0.00    +0.000 A 
ATOM     12  C   UNL     1       8.704   9.515  -4.183  0.00  0.00    +0.000 A 
ATOM     13  C   UNL     1       8.930  10.471  -3.196  0.00  0.00    +0.000 A 
ATOM     14  C   UNL     1       8.253  10.384  -1.983  0.00  0.00    +0.000 A 
ATOM     15  C   UNL     1       7.347   9.344  -1.757  0.00  0.00    +0.000 A 
ENDBRANCH   9  10
BRANCH   9  16
ATOM     16  O   UNL     1       4.809   7.817  -3.011  0.00  0.00    +0.000 OA
ATOM     17  H   UNL     1       4.753   8.725  -2.672  0.00  0.00    +0.000 HD
ENDBRANCH   9  16
ENDBRANCH   8   9
ENDBRANCH   5   8
ENDBRANCH   1   2
BRANCH   1  20
ATOM     18  O   UNL     1       3.662   0.296   0.785  0.00  0.00    +0.000 OA
ATOM     19  C   UNL     1       2.881   0.985   1.439  0.00  0.00    +0.000 C 
ATOM     20  N   UNL     1       2.121   1.971   0.867  0.00  0.00    +0.000 N 
ATOM     21  H   UNL     1       1.625   2.622   1.466  0.00  0.00    +0.000 HD
BRANCH  19  22
ATOM     22  C   UNL     1       2.670   0.754   2.873  0.00  0.00    +0.000 A 
ATOM     23  C   UNL     1       2.972  -0.482   3.428  0.00  0.00    +0.000 A 
ATOM     24  S   UNL     1       2.646  -0.577   5.101  0.00  0.00    +0.000 S 
ATOM     25  C   UNL     1       2.133   1.048   5.152  0.00  0.00    +0.000 A 
ATOM     26  N   UNL     1       1.743   1.622   6.318  0.00  0.00    +0.000 NA
ATOM     27  C   UNL     1       1.426   2.869   6.221  0.00  0.00    +0.000 A 
ATOM     28  N   UNL     1       1.459   3.593   5.057  0.00  0.00    +0.000 N 
ATOM     29  C   UNL     1       1.766   3.031   3.840  0.00  0.00    +0.000 A 
ATOM     30  O   UNL     1       1.640   3.668   2.800  0.00  0.00    +0.000 OA
ATOM     31  C   UNL     1       2.184   1.643   3.905  0.00  0.00    +0.000 A 
ATOM     32  H   UNL     1       1.166   4.558   5.040  0.00  0.00    +0.000 HD
ENDBRANCH  19  22
ENDBRANCH   1  20
TORSDOF 7
