REMARK  Name = 
REMARK  8 active torsions:
REMARK  status: ('A' for Active; 'I' for Inactive)
REMARK    1  A    between atoms: C_1  and  C_2
REMARK    2  A    between atoms: C_2  and  N_3
REMARK    3  A    between atoms: C_2  and  C_25
REMARK    4  A    between atoms: N_3  and  C_4
REMARK    5  A    between atoms: C_4  and  C_5
REMARK    6  A    between atoms: C_8  and  C_9
REMARK    7  A    between atoms: C_9  and  N_10
REMARK    8  A    between atoms: C_11  and  C_13
REMARK                            x       y       z     vdW  Elec       q    Type
REMARK                         _______ _______ _______ _____ _____    ______ ____
ROOT
ATOM      1  C   UNL     1      -1.067   0.823   1.174  0.00  0.00    +0.000 A 
ATOM      2  C   UNL     1      -1.839   0.015   0.335  0.00  0.00    +0.000 A 
ATOM      3  C   UNL     1      -3.221   0.180   0.293  0.00  0.00    +0.000 A 
ATOM      4  C   UNL     1      -3.808   1.160   1.091  0.00  0.00    +0.000 A 
ATOM      5  N   UNL     1      -3.082   1.938   1.933  0.00  0.00    +0.000 NA
ATOM      6  C   UNL     1      -1.741   1.754   1.953  0.00  0.00    +0.000 A 
ENDROOT
BRANCH   1   7
ATOM      7  C   UNL     1       0.420   0.630   1.300  0.00  0.00    +0.000 C 
BRANCH   7   8
ATOM      8  N   UNL     1       1.110   0.763   0.014  0.00  0.00    +0.000 NA
ATOM      9  H   UNL     1       0.937   1.699  -0.355  0.00  0.00    +0.000 HD
BRANCH   8  11
ATOM     10  C   UNL     1       2.933  -0.819   0.657  0.00  0.00    +0.000 C 
ATOM     11  C   UNL     1       2.567   0.573   0.119  0.00  0.00    +0.000 C 
BRANCH  11  12
ATOM     12  C   UNL     1       3.234   0.803  -1.237  0.00  0.00    +0.000 A 
ATOM     13  C   UNL     1       4.183   1.826  -1.402  0.00  0.00    +0.000 A 
ATOM     14  C   UNL     1       4.823   2.018  -2.633  0.00  0.00    +0.000 A 
ATOM     15  C   UNL     1       4.524   1.194  -3.715  0.00  0.00    +0.000 A 
ATOM     16  C   UNL     1       3.578   0.182  -3.572  0.00  0.00    +0.000 A 
ATOM     17  C   UNL     1       2.935  -0.008  -2.344  0.00  0.00    +0.000 A 
ENDBRANCH  11  12
ENDBRANCH   8  11
ENDBRANCH   7   8
ENDBRANCH   1   7
BRANCH   4  18
ATOM     18  C   UNL     1      -5.308   1.346   1.092  0.00  0.00    +0.000 C 
BRANCH  18  19
ATOM     19  N   UNL     1      -5.930   0.536   2.114  0.00  0.00    +0.000 N 
ATOM     20  C   UNL     1      -7.191   0.018   1.971  0.00  0.00    +0.000 C 
ATOM     21  O   UNL     1      -7.848   0.170   0.944  0.00  0.00    +0.000 OA
ATOM     22  H   UNL     1      -5.521   0.613   3.040  0.00  0.00    +0.000 HD
BRANCH  20  23
ATOM     23  C   UNL     1      -7.689  -0.804   3.080  0.00  0.00    +0.000 A 
ATOM     24  C   UNL     1      -8.654  -1.772   2.841  0.00  0.00    +0.000 A 
ATOM     25  S   UNL     1      -9.082  -2.671   4.225  0.00  0.00    +0.000 S 
ATOM     26  C   UNL     1      -8.032  -1.762   5.206  0.00  0.00    +0.000 A 
ATOM     27  N   UNL     1      -7.925  -2.009   6.540  0.00  0.00    +0.000 NA
ATOM     28  C   UNL     1      -7.115  -1.229   7.165  0.00  0.00    +0.000 A 
ATOM     29  N   UNL     1      -6.390  -0.221   6.578  0.00  0.00    +0.000 N 
ATOM     30  C   UNL     1      -6.436   0.040   5.230  0.00  0.00    +0.000 A 
ATOM     31  O   UNL     1      -5.734   0.915   4.727  0.00  0.00    +0.000 OA
ATOM     32  C   UNL     1      -7.345  -0.802   4.481  0.00  0.00    +0.000 A 
ATOM     33  H   UNL     1      -5.762   0.352   7.121  0.00  0.00    +0.000 HD
ENDBRANCH  20  23
ENDBRANCH  18  19
ENDBRANCH   4  18
TORSDOF 7
