REMARK  Name = 
REMARK  4 active torsions:
REMARK  status: ('A' for Active; 'I' for Inactive)
REMARK    1  A    between atoms: C_2  and  C_4
REMARK    2  A    between atoms: N_8  and  C_9
REMARK    3  A    between atoms: C_9  and  C_10
REMARK    4  A    between atoms: C_14  and  N_15
REMARK                            x       y       z     vdW  Elec       q    Type
REMARK                         _______ _______ _______ _____ _____    ______ ____
ROOT
ATOM      1  C   UNL     1       7.819   0.533   1.566  0.00  0.00    +0.000 A 
ATOM      2  C   UNL     1       7.290  -0.181   2.636  0.00  0.00    +0.000 A 
ATOM      3  C   UNL     1       6.446   0.473   3.534  0.00  0.00    +0.000 A 
ATOM      4  C   UNL     1       6.166   1.826   3.367  0.00  0.00    +0.000 A 
ATOM      5  N   UNL     1       5.288   2.522   4.166  0.00  0.00    +0.000 N 
ATOM      6  N   UNL     1       6.683   2.527   2.338  0.00  0.00    +0.000 NA
ATOM      7  C   UNL     1       7.504   1.876   1.469  0.00  0.00    +0.000 A 
ATOM      8  H   UNL     1       5.329   3.505   3.920  0.00  0.00    +0.000 HD
ENDROOT
BRANCH   1  10
ATOM      9  N   UNL     1       8.559  -1.434   0.351  0.00  0.00    +0.000 N 
ATOM     10  C   UNL     1       8.700  -0.088   0.558  0.00  0.00    +0.000 C 
ATOM     11  O   UNL     1       9.502   0.575  -0.091  0.00  0.00    +0.000 OA
ATOM     12  H   UNL     1       9.101  -1.831  -0.406  0.00  0.00    +0.000 HD
ATOM     13  H   UNL     1       7.750  -1.950   0.665  0.00  0.00    +0.000 HD
ENDBRANCH   1  10
BRANCH   5  14
ATOM     14  C   UNL     1       5.085   2.217   5.565  0.00  0.00    +0.000 C 
BRANCH  14  15
ATOM     15  C   UNL     1       6.045   2.930   6.487  0.00  0.00    +0.000 A 
ATOM     16  C   UNL     1       6.073   4.325   6.556  0.00  0.00    +0.000 A 
ATOM     17  C   UNL     1       6.837   4.956   7.532  0.00  0.00    +0.000 A 
ATOM     18  C   UNL     1       7.567   4.197   8.452  0.00  0.00    +0.000 A 
ATOM     19  C   UNL     1       7.581   2.796   8.413  0.00  0.00    +0.000 A 
ATOM     20  C   UNL     1       6.828   2.189   7.395  0.00  0.00    +0.000 A 
BRANCH  19  21
ATOM     21  N   UNL     1       8.256   2.051   9.355  0.00  0.00    +0.000 N 
ATOM     22  C   UNL     1       8.877   0.750   9.072  0.00  0.00    +0.000 C 
ATOM     23  C   UNL     1       8.395  -0.289  10.097  0.00  0.00    +0.000 C 
ATOM     24  O   UNL     1       8.638   0.146  11.446  0.00  0.00    +0.000 OA
ATOM     25  C   UNL     1       7.958   1.387  11.700  0.00  0.00    +0.000 C 
ATOM     26  C   UNL     1       8.423   2.502  10.746  0.00  0.00    +0.000 C 
ENDBRANCH  19  21
ENDBRANCH  14  15
ENDBRANCH   5  14
TORSDOF 4
