REMARK  Name = 
REMARK  5 active torsions:
REMARK  status: ('A' for Active; 'I' for Inactive)
REMARK    1  A    between atoms: C_1  and  C_2
REMARK    2  A    between atoms: C_2  and  C_3
REMARK    3  A    between atoms: C_2  and  C_14
REMARK    4  A    between atoms: C_3  and  N_4
REMARK    5  A    between atoms: C_8  and  C_9
REMARK                            x       y       z     vdW  Elec       q    Type
REMARK                         _______ _______ _______ _____ _____    ______ ____
ROOT
ATOM      1  N   UNL     1       3.008   2.370  -0.352  0.00  0.00    +0.000 N 
ATOM      2  C   UNL     1       3.591   3.594   0.049  0.00  0.00    +0.000 A 
ATOM      3  C   UNL     1       3.549   4.707  -0.805  0.00  0.00    +0.000 A 
ATOM      4  N   UNL     1       4.075   5.928  -0.502  0.00  0.00    +0.000 NA
ATOM      5  C   UNL     1       4.683   5.989   0.715  0.00  0.00    +0.000 A 
ATOM      6  C   UNL     1       4.754   4.897   1.562  0.00  0.00    +0.000 A 
ATOM      7  N   UNL     1       4.216   3.692   1.243  0.00  0.00    +0.000 NA
ATOM      8  H   UNL     1       2.044   2.549  -0.612  0.00  0.00    +0.000 HD
ENDROOT
BRANCH   5   9
ATOM      9  C   UNL     1       5.285   7.283   1.142  0.00  0.00    +0.000 C 
ATOM     10  N   UNL     1       5.175   8.319   0.258  0.00  0.00    +0.000 N 
ATOM     11  O   UNL     1       5.832   7.421   2.228  0.00  0.00    +0.000 OA
ATOM     12  H   UNL     1       4.719   8.183  -0.637  0.00  0.00    +0.000 HD
ATOM     13  H   UNL     1       5.565   9.219   0.503  0.00  0.00    +0.000 HD
ENDBRANCH   5   9
BRANCH   1  14
ATOM     14  C   UNL     1       3.115   1.346   0.680  0.00  0.00    +0.000 C 
BRANCH  14  16
ATOM     15  C   UNL     1       0.969   0.143  -0.115  0.00  0.00    +0.000 C 
ATOM     16  C   UNL     1       2.427   0.072   0.251  0.00  0.00    +0.000 C 
BRANCH  16  17
ATOM     17  C   UNL     1       2.932  -1.194   0.949  0.00  0.00    +0.000 C 
ATOM     18  C   UNL     1       2.712  -2.485   0.136  0.00  0.00    +0.000 C 
ATOM     19  C   UNL     1       3.115  -3.740   0.913  0.00  0.00    +0.000 C 
ATOM     20  C   UNL     1       2.419  -3.804   2.268  0.00  0.00    +0.000 C 
ATOM     21  C   UNL     1       2.736  -2.566   3.095  0.00  0.00    +0.000 C 
ATOM     22  C   UNL     1       2.325  -1.294   2.362  0.00  0.00    +0.000 C 
ENDBRANCH  16  17
ENDBRANCH  14  16
ENDBRANCH   1  14
TORSDOF 4
