REMARK  Name = 
REMARK  7 active torsions:
REMARK  status: ('A' for Active; 'I' for Inactive)
REMARK    1  A    between atoms: C_2  and  C_3
REMARK    2  A    between atoms: N_7  and  C_8
REMARK    3  A    between atoms: C_8  and  C_9
REMARK    4  A    between atoms: C_9  and  C_10
REMARK    5  A    between atoms: C_9  and  C_12
REMARK    6  A    between atoms: C_16  and  O_17
REMARK    7  A    between atoms: O_17  and  C_18
REMARK                            x       y       z     vdW  Elec       q    Type
REMARK                         _______ _______ _______ _____ _____    ______ ____
ROOT
ATOM      1  C   UNL     1      -5.806   1.190  -0.227  0.00  0.00    +0.000 C 
ENDROOT
BRANCH   1   2
ATOM      2  C   UNL     1      -6.629   2.470  -0.328  0.00  0.00    +0.000 A 
ATOM      3  C   UNL     1      -7.885   2.434  -0.953  0.00  0.00    +0.000 A 
ATOM      4  C   UNL     1      -8.735   3.542  -0.906  0.00  0.00    +0.000 A 
ATOM      5  C   UNL     1      -8.346   4.705  -0.237  0.00  0.00    +0.000 A 
ATOM      6  C   UNL     1      -7.087   4.766   0.351  0.00  0.00    +0.000 A 
ATOM      7  C   UNL     1      -6.234   3.661   0.293  0.00  0.00    +0.000 A 
BRANCH   6   8
ATOM      8  O   UNL     1      -6.589   5.818   1.073  0.00  0.00    +0.000 OA
BRANCH   8   9
ATOM      9  C   UNL     1      -7.192   7.120   0.950  0.00  0.00    +0.000 C 
ATOM     10  C   UNL     1      -6.975   7.901  -0.353  0.00  0.00    +0.000 C 
ATOM     11  O   UNL     1      -6.466   9.051   0.368  0.00  0.00    +0.000 OA
ATOM     12  C   UNL     1      -6.371   8.258   1.576  0.00  0.00    +0.000 C 
ENDBRANCH   8   9
ENDBRANCH   6   8
ENDBRANCH   1   2
BRANCH   1  13
ATOM     13  C   UNL     1      -4.286   1.375  -0.146  0.00  0.00    +0.000 C 
ATOM     14  F   UNL     1      -3.840   1.941  -1.302  0.00  0.00    +0.000 F 
ENDBRANCH   1  13
BRANCH   1  15
ATOM     15  C   UNL     1      -6.310   0.322   0.952  0.00  0.00    +0.000 C 
BRANCH  15  20
ATOM     16  C   UNL     1      -7.240  -0.657   5.883  0.00  0.00    +0.000 A 
ATOM     17  C   UNL     1      -6.832  -1.522   4.876  0.00  0.00    +0.000 A 
ATOM     18  C   UNL     1      -6.473  -1.003   3.628  0.00  0.00    +0.000 A 
ATOM     19  C   UNL     1      -6.545   0.367   3.407  0.00  0.00    +0.000 A 
ATOM     20  N   UNL     1      -6.112   0.978   2.241  0.00  0.00    +0.000 N 
ATOM     21  N   UNL     1      -6.963   1.212   4.371  0.00  0.00    +0.000 NA
ATOM     22  C   UNL     1      -7.295   0.691   5.580  0.00  0.00    +0.000 A 
ATOM     23  H   UNL     1      -6.451   1.939   2.296  0.00  0.00    +0.000 HD
BRANCH  16  25
ATOM     24  N   UNL     1      -7.829  -1.525   8.250  0.00  0.00    +0.000 NA
ATOM     25  C   UNL     1      -7.570  -1.134   7.192  0.00  0.00    +0.000 C 
ENDBRANCH  16  25
ENDBRANCH  15  20
ENDBRANCH   1  15
TORSDOF 7
