REMARK  Name = 
REMARK  5 active torsions:
REMARK  status: ('A' for Active; 'I' for Inactive)
REMARK    1  A    between atoms: C_2  and  C_4
REMARK    2  A    between atoms: C_7  and  O_8
REMARK    3  A    between atoms: O_8  and  C_9
REMARK    4  A    between atoms: C_9  and  C_10
REMARK    5  A    between atoms: C_14  and  C_15
REMARK                            x       y       z     vdW  Elec       q    Type
REMARK                         _______ _______ _______ _____ _____    ______ ____
ROOT
ATOM      1  C   UNL     1       5.304  -4.431   3.575  0.00  0.00    +0.000 C 
ENDROOT
BRANCH   1   2
ATOM      2  C   UNL     1       6.274  -5.036   4.562  0.00  0.00    +0.000 A 
ATOM      3  C   UNL     1       7.152  -4.227   5.292  0.00  0.00    +0.000 A 
ATOM      4  C   UNL     1       7.969  -4.786   6.274  0.00  0.00    +0.000 A 
ATOM      5  C   UNL     1       7.909  -6.156   6.542  0.00  0.00    +0.000 A 
ATOM      6  C   UNL     1       7.048  -7.004   5.822  0.00  0.00    +0.000 A 
ATOM      7  C   UNL     1       6.258  -6.420   4.812  0.00  0.00    +0.000 A 
BRANCH   6   8
ATOM      8  C   UNL     1       6.921  -8.434   6.171  0.00  0.00    +0.000 A 
ATOM      9  C   UNL     1       6.631  -9.422   5.227  0.00  0.00    +0.000 A 
ATOM     10  C   UNL     1       6.419 -10.737   5.647  0.00  0.00    +0.000 A 
ATOM     11  C   UNL     1       6.509 -11.038   6.998  0.00  0.00    +0.000 A 
ATOM     12 CL   UNL     1       6.228 -12.633   7.560  0.00  0.00    +0.000 Cl
ATOM     13  C   UNL     1       6.824 -10.015   7.875  0.00  0.00    +0.000 A 
ATOM     14  N   UNL     1       7.035  -8.730   7.493  0.00  0.00    +0.000 NA
ENDBRANCH   6   8
ENDBRANCH   1   2
BRANCH   1  15
ATOM     15  O   UNL     1       5.916  -4.273   2.298  0.00  0.00    +0.000 OA
BRANCH  15  19
ATOM     16  C   UNL     1       3.678  -2.803  -0.917  0.00  0.00    +0.000 A 
ATOM     17  C   UNL     1       3.065  -2.893   0.337  0.00  0.00    +0.000 A 
ATOM     18  C   UNL     1       3.784  -3.373   1.440  0.00  0.00    +0.000 A 
ATOM     19  C   UNL     1       5.118  -3.768   1.302  0.00  0.00    +0.000 A 
ATOM     20  C   UNL     1       5.729  -3.665   0.050  0.00  0.00    +0.000 A 
ATOM     21  C   UNL     1       5.015  -3.191  -1.056  0.00  0.00    +0.000 A 
BRANCH  16  23
ATOM     22  N   UNL     1       1.878  -1.511  -1.940  0.00  0.00    +0.000 N 
ATOM     23  C   UNL     1       2.935  -2.358  -2.124  0.00  0.00    +0.000 C 
ATOM     24  O   UNL     1       3.266  -2.716  -3.250  0.00  0.00    +0.000 OA
ATOM     25  H   UNL     1       1.443  -1.153  -2.781  0.00  0.00    +0.000 HD
ATOM     26  H   UNL     1       1.738  -0.995  -1.084  0.00  0.00    +0.000 HD
ENDBRANCH  16  23
ENDBRANCH  15  19
ENDBRANCH   1  15
TORSDOF 5
