REMARK  Name = 
REMARK  4 active torsions:
REMARK  status: ('A' for Active; 'I' for Inactive)
REMARK    1  A    between atoms: C_2  and  C_4
REMARK    2  A    between atoms: N_8  and  C_9
REMARK    3  A    between atoms: C_9  and  C_10
REMARK    4  A    between atoms: C_14  and  C_15
REMARK                            x       y       z     vdW  Elec       q    Type
REMARK                         _______ _______ _______ _____ _____    ______ ____
ROOT
ATOM      1  C   UNL     1       5.172  -0.366   5.974  0.00  0.00    +0.000 C 
ATOM      2  C   UNL     1       5.465  -1.857   6.056  0.00  0.00    +0.000 C 
ATOM      3  C   UNL     1       4.183  -1.326   6.603  0.00  0.00    +0.000 C 
ENDROOT
BRANCH   1   8
ATOM      4  C   UNL     1       2.268   2.855   3.076  0.00  0.00    +0.000 A 
ATOM      5  C   UNL     1       1.844   1.953   4.050  0.00  0.00    +0.000 A 
ATOM      6  C   UNL     1       2.767   1.066   4.606  0.00  0.00    +0.000 A 
ATOM      7  C   UNL     1       4.091   1.089   4.182  0.00  0.00    +0.000 A 
ATOM      8  N   UNL     1       5.045   0.152   4.595  0.00  0.00    +0.000 N 
ATOM      9  N   UNL     1       4.512   1.963   3.241  0.00  0.00    +0.000 NA
ATOM     10  C   UNL     1       3.603   2.818   2.705  0.00  0.00    +0.000 A 
ATOM     11  H   UNL     1       5.919   0.475   4.182  0.00  0.00    +0.000 HD
BRANCH   4  13
ATOM     12  N   UNL     1       0.223   4.164   3.076  0.00  0.00    +0.000 N 
ATOM     13  C   UNL     1       1.352   3.795   2.398  0.00  0.00    +0.000 C 
ATOM     14  O   UNL     1       1.602   4.245   1.291  0.00  0.00    +0.000 OA
ATOM     15  H   UNL     1      -0.353   4.871   2.636  0.00  0.00    +0.000 HD
ATOM     16  H   UNL     1       0.099   4.014   4.066  0.00  0.00    +0.000 HD
ENDBRANCH   4  13
ENDBRANCH   1   8
BRANCH   1  17
ATOM     17  C   UNL     1       5.934   0.592   6.882  0.00  0.00    +0.000 A 
ATOM     18  C   UNL     1       7.325   0.517   7.052  0.00  0.00    +0.000 A 
ATOM     19  C   UNL     1       8.030   1.522   7.717  0.00  0.00    +0.000 A 
ATOM     20  C   UNL     1       7.358   2.648   8.196  0.00  0.00    +0.000 A 
ATOM     21  C   UNL     1       5.972   2.754   8.055  0.00  0.00    +0.000 A 
ATOM     22  C   UNL     1       5.275   1.693   7.451  0.00  0.00    +0.000 A 
BRANCH  21  23
ATOM     23  C   UNL     1       5.249   4.034   8.435  0.00  0.00    +0.000 C 
ATOM     24  C   UNL     1       4.255   3.826   9.586  0.00  0.00    +0.000 C 
ATOM     25  C   UNL     1       3.437   5.090   9.826  0.00  0.00    +0.000 C 
ATOM     26  O   UNL     1       2.786   5.510   8.627  0.00  0.00    +0.000 OA
ATOM     27  C   UNL     1       3.720   5.859   7.606  0.00  0.00    +0.000 C 
ATOM     28  C   UNL     1       4.546   4.647   7.211  0.00  0.00    +0.000 C 
ENDBRANCH  21  23
ENDBRANCH   1  17
TORSDOF 4
