REMARK  Name = 
REMARK  4 active torsions:
REMARK  status: ('A' for Active; 'I' for Inactive)
REMARK    1  A    between atoms: C_2  and  C_4
REMARK    2  A    between atoms: N_8  and  C_9
REMARK    3  A    between atoms: C_9  and  C_10
REMARK    4  A    between atoms: C_13  and  C_14
REMARK                            x       y       z     vdW  Elec       q    Type
REMARK                         _______ _______ _______ _____ _____    ______ ____
ROOT
ATOM      1  C   UNL     1       5.303  -5.905   0.661  0.00  0.00    +0.000 C 
ATOM      2  C   UNL     1       5.374  -6.518  -0.736  0.00  0.00    +0.000 C 
ATOM      3  C   UNL     1       4.110  -6.602   0.040  0.00  0.00    +0.000 C 
ATOM      4  F   UNL     1       3.758  -7.858   0.504  0.00  0.00    +0.000 F 
ENDROOT
BRANCH   1   9
ATOM      5  C   UNL     1       3.446  -1.553   2.848  0.00  0.00    +0.000 A 
ATOM      6  C   UNL     1       2.733  -2.663   2.401  0.00  0.00    +0.000 A 
ATOM      7  C   UNL     1       3.403  -3.674   1.707  0.00  0.00    +0.000 A 
ATOM      8  C   UNL     1       4.764  -3.547   1.459  0.00  0.00    +0.000 A 
ATOM      9  N   UNL     1       5.492  -4.438   0.667  0.00  0.00    +0.000 N 
ATOM     10  N   UNL     1       5.467  -2.480   1.890  0.00  0.00    +0.000 NA
ATOM     11  C   UNL     1       4.801  -1.509   2.570  0.00  0.00    +0.000 A 
ATOM     12  H   UNL     1       6.458  -4.116   0.730  0.00  0.00    +0.000 HD
BRANCH   5  14
ATOM     13  N   UNL     1       1.655  -0.642   4.219  0.00  0.00    +0.000 N 
ATOM     14  C   UNL     1       2.821  -0.407   3.543  0.00  0.00    +0.000 C 
ATOM     15  O   UNL     1       3.334   0.701   3.534  0.00  0.00    +0.000 OA
ATOM     16  H   UNL     1       1.290   0.130   4.762  0.00  0.00    +0.000 HD
ATOM     17  H   UNL     1       1.328  -1.570   4.447  0.00  0.00    +0.000 HD
ENDBRANCH   5  14
ENDBRANCH   1   9
BRANCH   1  18
ATOM     18  C   UNL     1       6.034  -6.588   1.808  0.00  0.00    +0.000 A 
ATOM     19  C   UNL     1       7.360  -7.025   1.703  0.00  0.00    +0.000 A 
ATOM     20  C   UNL     1       8.056  -7.480   2.824  0.00  0.00    +0.000 A 
ATOM     21  C   UNL     1       7.417  -7.496   4.063  0.00  0.00    +0.000 A 
ATOM     22  N   UNL     1       6.104  -7.151   4.185  0.00  0.00    +0.000 NA
ATOM     23  C   UNL     1       5.461  -6.717   3.073  0.00  0.00    +0.000 A 
BRANCH  21  24
ATOM     24  C   UNL     1       8.208  -7.839   5.319  0.00  0.00    +0.000 C 
ATOM     25  F   UNL     1       9.526  -8.108   5.068  0.00  0.00    +0.000 F 
ATOM     26  F   UNL     1       8.220  -6.824   6.232  0.00  0.00    +0.000 F 
ATOM     27  F   UNL     1       7.735  -8.935   5.978  0.00  0.00    +0.000 F 
ENDBRANCH  21  24
ENDBRANCH   1  18
TORSDOF 4
