REMARK  Name = 
REMARK  7 active torsions:
REMARK  status: ('A' for Active; 'I' for Inactive)
REMARK    1  A    between atoms: C_2  and  C_20
REMARK    2  A    between atoms: N_3  and  C_4
REMARK    3  A    between atoms: C_4  and  C_5
REMARK    4  A    between atoms: C_8  and  C_9
REMARK    5  A    between atoms: C_9  and  C_10
REMARK    6  A    between atoms: C_10  and  O_11
REMARK    7  A    between atoms: C_10  and  C_12
REMARK                            x       y       z     vdW  Elec       q    Type
REMARK                         _______ _______ _______ _____ _____    ______ ____
ROOT
ATOM      1  C   UNL     1       2.213   1.002  -2.172  0.00  0.00    +0.000 C 
ENDROOT
BRANCH   1   2
ATOM      2  C   UNL     1       3.137   1.506  -3.255  0.00  0.00    +0.000 A 
ATOM      3  C   UNL     1       3.147   2.855  -3.595  0.00  0.00    +0.000 A 
ATOM      4  C   UNL     1       3.983   3.284  -4.623  0.00  0.00    +0.000 A 
ATOM      5  C   UNL     1       4.780   2.361  -5.305  0.00  0.00    +0.000 A 
ATOM      6  C   UNL     1       4.694   1.034  -4.900  0.00  0.00    +0.000 A 
ATOM      7  N   UNL     1       3.901   0.589  -3.900  0.00  0.00    +0.000 NA
BRANCH   5   8
ATOM      8  C   UNL     1       5.707   2.799  -6.414  0.00  0.00    +0.000 C 
BRANCH   8   9
ATOM      9  C   UNL     1       5.402   2.148  -7.777  0.00  0.00    +0.000 C 
BRANCH   9  10
ATOM     10  C   UNL     1       6.420   2.562  -8.819  0.00  0.00    +0.000 A 
ATOM     11  C   UNL     1       7.203   1.615  -9.472  0.00  0.00    +0.000 A 
ATOM     12  N   UNL     1       8.095   1.938 -10.440  0.00  0.00    +0.000 NA
ATOM     13  C   UNL     1       8.171   3.251 -10.743  0.00  0.00    +0.000 A 
ATOM     14  C   UNL     1       7.390   4.203 -10.108  0.00  0.00    +0.000 A 
ATOM     15  N   UNL     1       6.497   3.884  -9.140  0.00  0.00    +0.000 NA
ENDBRANCH   9  10
BRANCH   9  16
ATOM     16  O   UNL     1       4.109   2.571  -8.226  0.00  0.00    +0.000 OA
ATOM     17  H   UNL     1       4.239   3.463  -8.602  0.00  0.00    +0.000 HD
ENDBRANCH   9  16
ENDBRANCH   8   9
ENDBRANCH   5   8
ENDBRANCH   1   2
BRANCH   1  20
ATOM     18  O   UNL     1      -0.055   2.649  -2.207  0.00  0.00    +0.000 OA
ATOM     19  C   UNL     1      -0.128   1.538  -2.726  0.00  0.00    +0.000 C 
ATOM     20  N   UNL     1       0.914   0.650  -2.700  0.00  0.00    +0.000 N 
ATOM     21  H   UNL     1       0.912  -0.138  -3.340  0.00  0.00    +0.000 HD
BRANCH  19  22
ATOM     22  C   UNL     1      -1.370   1.068  -3.355  0.00  0.00    +0.000 A 
ATOM     23  C   UNL     1      -2.584   1.636  -2.995  0.00  0.00    +0.000 A 
ATOM     24  S   UNL     1      -3.922   0.953  -3.798  0.00  0.00    +0.000 S 
ATOM     25  C   UNL     1      -2.922  -0.090  -4.696  0.00  0.00    +0.000 A 
ATOM     26  N   UNL     1      -3.448  -0.944  -5.616  0.00  0.00    +0.000 NA
ATOM     27  C   UNL     1      -2.571  -1.644  -6.255  0.00  0.00    +0.000 A 
ATOM     28  N   UNL     1      -1.218  -1.574  -6.052  0.00  0.00    +0.000 N 
ATOM     29  C   UNL     1      -0.649  -0.783  -5.084  0.00  0.00    +0.000 A 
ATOM     30  O   UNL     1       0.552  -0.833  -4.845  0.00  0.00    +0.000 OA
ATOM     31  C   UNL     1      -1.587   0.059  -4.366  0.00  0.00    +0.000 A 
ATOM     32  H   UNL     1      -0.583  -2.166  -6.566  0.00  0.00    +0.000 HD
ENDBRANCH  19  22
ENDBRANCH   1  20
TORSDOF 7
