REMARK  Name = 
REMARK  5 active torsions:
REMARK  status: ('A' for Active; 'I' for Inactive)
REMARK    1  A    between atoms: N_1  and  C_2
REMARK    2  A    between atoms: C_2  and  C_3
REMARK    3  A    between atoms: C_6  and  C_7
REMARK    4  A    between atoms: C_7  and  C_8
REMARK    5  A    between atoms: C_14  and  C_15
REMARK                            x       y       z     vdW  Elec       q    Type
REMARK                         _______ _______ _______ _____ _____    ______ ____
ROOT
ATOM      1  C   UNL     1       3.898   3.840  -4.998  0.00  0.00    +0.000 A 
ATOM      2  C   UNL     1       2.782   4.527  -5.443  0.00  0.00    +0.000 A 
ATOM      3  N   UNL     1       2.974   5.863  -5.210  0.00  0.00    +0.000 N 
ATOM      4  C   UNL     1       4.202   6.074  -4.629  0.00  0.00    +0.000 A 
ATOM      5  C   UNL     1       4.798   7.262  -4.191  0.00  0.00    +0.000 A 
ATOM      6  C   UNL     1       6.070   7.174  -3.614  0.00  0.00    +0.000 A 
ATOM      7  C   UNL     1       6.737   5.947  -3.495  0.00  0.00    +0.000 A 
ATOM      8  C   UNL     1       6.115   4.773  -3.961  0.00  0.00    +0.000 A 
ATOM      9  C   UNL     1       4.819   4.830  -4.514  0.00  0.00    +0.000 A 
ATOM     10  H   UNL     1       2.307   6.593  -5.420  0.00  0.00    +0.000 HD
ENDROOT
BRANCH   7  11
ATOM     11  C   UNL     1       8.096   5.858  -2.846  0.00  0.00    +0.000 C 
ATOM     12  F   UNL     1       8.557   7.055  -2.381  0.00  0.00    +0.000 F 
ATOM     13  F   UNL     1       8.112   5.018  -1.773  0.00  0.00    +0.000 F 
ATOM     14  F   UNL     1       9.056   5.399  -3.695  0.00  0.00    +0.000 F 
ENDBRANCH   7  11
BRANCH   1  15
ATOM     15  C   UNL     1       4.114   2.359  -5.031  0.00  0.00    +0.000 C 
BRANCH  15  19
ATOM     16  C   UNL     1       2.997   0.794  -1.205  0.00  0.00    +0.000 A 
ATOM     17  C   UNL     1       2.029   0.895  -2.209  0.00  0.00    +0.000 A 
ATOM     18  C   UNL     1       2.377   1.411  -3.456  0.00  0.00    +0.000 A 
ATOM     19  C   UNL     1       3.692   1.825  -3.682  0.00  0.00    +0.000 A 
ATOM     20  N   UNL     1       4.646   1.731  -2.720  0.00  0.00    +0.000 NA
ATOM     21  C   UNL     1       4.280   1.232  -1.517  0.00  0.00    +0.000 A 
BRANCH  16  22
ATOM     22  C   UNL     1       2.670   0.234   0.147  0.00  0.00    +0.000 C 
BRANCH  22  23
ATOM     23  N   UNL     1       2.196  -1.146   0.053  0.00  0.00    +0.000 NA
ATOM     24  H   UNL     1       2.083  -1.527   0.989  0.00  0.00    +0.000 HD
ATOM     25  H   UNL     1       2.914  -1.709  -0.402  0.00  0.00    +0.000 HD
ENDBRANCH  22  23
ENDBRANCH  16  22
ENDBRANCH  15  19
ENDBRANCH   1  15
TORSDOF 5
