REMARK  Name = 
REMARK  5 active torsions:
REMARK  status: ('A' for Active; 'I' for Inactive)
REMARK    1  A    between atoms: C_1  and  C_2
REMARK    2  A    between atoms: C_2  and  C_3
REMARK    3  A    between atoms: C_7  and  C_8
REMARK    4  A    between atoms: C_9  and  C_10
REMARK    5  A    between atoms: C_13  and  C_14
REMARK                            x       y       z     vdW  Elec       q    Type
REMARK                         _______ _______ _______ _____ _____    ______ ____
ROOT
ATOM      1  C   UNL     1       4.386   2.634  -3.790  0.00  0.00    +0.000 C 
ATOM      2  C   UNL     1       5.133   2.794  -4.896  0.00  0.00    +0.000 C 
ENDROOT
BRANCH   1   7
ATOM      3  C   UNL     1       2.981   0.096  -1.364  0.00  0.00    +0.000 A 
ATOM      4  C   UNL     1       2.666  -0.951  -2.252  0.00  0.00    +0.000 A 
ATOM      5  C   UNL     1       2.935  -0.855  -3.619  0.00  0.00    +0.000 A 
ATOM      6  C   UNL     1       3.520   0.297  -4.136  0.00  0.00    +0.000 A 
ATOM      7  C   UNL     1       3.867   1.351  -3.287  0.00  0.00    +0.000 A 
ATOM      8  C   UNL     1       3.607   1.231  -1.908  0.00  0.00    +0.000 A 
BRANCH   3  10
ATOM      9  C   UNL     1       1.012  -0.062   0.158  0.00  0.00    +0.000 C 
ATOM     10  C   UNL     1       2.550  -0.001   0.109  0.00  0.00    +0.000 C 
ATOM     11  C   UNL     1       3.199  -1.205   0.801  0.00  0.00    +0.000 C 
ATOM     12  C   UNL     1       4.432  -0.642   1.494  0.00  0.00    +0.000 C 
ATOM     13  O   UNL     1       4.358   0.787   1.437  0.00  0.00    +0.000 OA
ATOM     14  C   UNL     1       3.025   1.125   1.041  0.00  0.00    +0.000 C 
ENDBRANCH   3  10
ENDBRANCH   1   7
BRANCH   2  15
ATOM     15  C   UNL     1       5.610   4.100  -5.380  0.00  0.00    +0.000 A 
ATOM     16  C   UNL     1       5.878   5.170  -4.513  0.00  0.00    +0.000 A 
ATOM     17  C   UNL     1       6.331   6.396  -5.009  0.00  0.00    +0.000 A 
ATOM     18  C   UNL     1       6.552   6.565  -6.377  0.00  0.00    +0.000 A 
ATOM     19  C   UNL     1       6.303   5.501  -7.251  0.00  0.00    +0.000 A 
ATOM     20  C   UNL     1       5.839   4.277  -6.751  0.00  0.00    +0.000 A 
BRANCH  18  21
ATOM     21  C   UNL     1       7.021   7.894  -6.849  0.00  0.00    +0.000 C 
ATOM     22  N   UNL     1       7.723   7.937  -8.021  0.00  0.00    +0.000 N 
ATOM     23  O   UNL     1       6.821   8.914  -6.201  0.00  0.00    +0.000 OA
ATOM     24  H   UNL     1       8.108   7.114  -8.458  0.00  0.00    +0.000 HD
ATOM     25  H   UNL     1       8.126   8.834  -8.263  0.00  0.00    +0.000 HD
ENDBRANCH  18  21
ENDBRANCH   2  15
TORSDOF 4
