REMARK  Name = 
REMARK  8 active torsions:
REMARK  status: ('A' for Active; 'I' for Inactive)
REMARK    1  A    between atoms: C_1  and  O_2
REMARK    2  A    between atoms: O_2  and  C_3
REMARK    3  A    between atoms: C_5  and  C_6
REMARK    4  A    between atoms: C_6  and  N_7
REMARK    5  A    between atoms: C_8  and  C_10
REMARK    6  A    between atoms: C_17  and  C_18
REMARK    7  A    between atoms: C_18  and  N_19
REMARK    8  A    between atoms: C_20  and  C_22
REMARK                            x       y       z     vdW  Elec       q    Type
REMARK                         _______ _______ _______ _____ _____    ______ ____
ROOT
ATOM      1  C   UNL     1       2.934   1.046  -0.594  0.00  0.00    +0.000 A 
ATOM      2  C   UNL     1       2.561   2.322  -0.147  0.00  0.00    +0.000 A 
ATOM      3  C   UNL     1       3.270   3.468  -0.542  0.00  0.00    +0.000 A 
ATOM      4  C   UNL     1       4.350   3.325  -1.422  0.00  0.00    +0.000 A 
ATOM      5  C   UNL     1       4.728   2.060  -1.870  0.00  0.00    +0.000 A 
ATOM      6  C   UNL     1       4.041   0.908  -1.450  0.00  0.00    +0.000 A 
ENDROOT
BRANCH   1   8
ATOM      7  C   UNL     1       0.962   0.015   0.249  0.00  0.00    +0.000 C 
ATOM      8  O   UNL     1       2.300  -0.109  -0.221  0.00  0.00    +0.000 OA
ENDBRANCH   1   8
BRANCH   3   9
ATOM      9  C   UNL     1       2.842   4.831  -0.067  0.00  0.00    +0.000 C 
BRANCH   9  10
ATOM     10  N   UNL     1       1.899   5.416  -0.987  0.00  0.00    +0.000 N 
ATOM     11  C   UNL     1       1.294   6.630  -0.755  0.00  0.00    +0.000 C 
ATOM     12  O   UNL     1       1.514   7.270   0.273  0.00  0.00    +0.000 OA
ATOM     13  H   UNL     1       1.730   4.961  -1.874  0.00  0.00    +0.000 HD
BRANCH  11  14
ATOM     14  C   UNL     1       0.382   7.092  -1.796  0.00  0.00    +0.000 A 
ATOM     15  C   UNL     1      -0.305   8.288  -1.838  0.00  0.00    +0.000 A 
ATOM     16  C   UNL     1      -1.117   8.420  -3.002  0.00  0.00    +0.000 A 
ATOM     17  C   UNL     1      -1.025   7.315  -3.819  0.00  0.00    +0.000 A 
ATOM     18  S   UNL     1       0.035   6.136  -3.184  0.00  0.00    +0.000 S 
ENDBRANCH  11  14
ENDBRANCH   9  10
ENDBRANCH   3   9
BRANCH   6  19
ATOM     19  C   UNL     1       4.481  -0.429  -1.998  0.00  0.00    +0.000 C 
BRANCH  19  20
ATOM     20  N   UNL     1       3.823  -0.700  -3.256  0.00  0.00    +0.000 N 
ATOM     21  C   UNL     1       4.416  -1.411  -4.264  0.00  0.00    +0.000 C 
ATOM     22  O   UNL     1       5.595  -1.741  -4.240  0.00  0.00    +0.000 OA
ATOM     23  H   UNL     1       2.812  -0.599  -3.241  0.00  0.00    +0.000 HD
BRANCH  21  24
ATOM     24  C   UNL     1       3.552  -1.757  -5.403  0.00  0.00    +0.000 A 
ATOM     25  C   UNL     1       4.103  -1.953  -6.661  0.00  0.00    +0.000 A 
ATOM     26  S   UNL     1       2.960  -2.434  -7.837  0.00  0.00    +0.000 S 
ATOM     27  C   UNL     1       1.710  -2.474  -6.683  0.00  0.00    +0.000 A 
ATOM     28  N   UNL     1       0.473  -2.940  -7.000  0.00  0.00    +0.000 NA
ATOM     29  C   UNL     1      -0.361  -2.952  -6.014  0.00  0.00    +0.000 A 
ATOM     30  N   UNL     1      -0.086  -2.491  -4.752  0.00  0.00    +0.000 N 
ATOM     31  C   UNL     1       1.121  -1.934  -4.409  0.00  0.00    +0.000 A 
ATOM     32  O   UNL     1       1.285  -1.387  -3.325  0.00  0.00    +0.000 OA
ATOM     33  C   UNL     1       2.132  -2.008  -5.449  0.00  0.00    +0.000 A 
ATOM     34  H   UNL     1      -0.804  -2.463  -4.044  0.00  0.00    +0.000 HD
ENDBRANCH  21  24
ENDBRANCH  19  20
ENDBRANCH   6  19
TORSDOF 7
