REMARK  Name = 
REMARK  9 active torsions:
REMARK  status: ('A' for Active; 'I' for Inactive)
REMARK    1  A    between atoms: C_1  and  O_2
REMARK    2  A    between atoms: O_2  and  C_3
REMARK    3  A    between atoms: C_10  and  C_11
REMARK    4  A    between atoms: N_13  and  C_14
REMARK    5  A    between atoms: C_14  and  C_15
REMARK    6  A    between atoms: C_18  and  C_19
REMARK    7  A    between atoms: C_19  and  C_20
REMARK    8  A    between atoms: C_20  and  C_21
REMARK    9  A    between atoms: C_21  and  C_22
REMARK                            x       y       z     vdW  Elec       q    Type
REMARK                         _______ _______ _______ _____ _____    ______ ____
ROOT
ATOM      1  C   UNL     1       2.932   1.504  -3.046  0.00  0.00    +0.000 C 
ENDROOT
BRANCH   1   2
ATOM      2  C   UNL     1       1.784   0.535  -3.175  0.00  0.00    +0.000 A 
ATOM      3  C   UNL     1       2.016  -0.847  -3.227  0.00  0.00    +0.000 A 
ATOM      4  C   UNL     1       0.950  -1.745  -3.354  0.00  0.00    +0.000 A 
ATOM      5  C   UNL     1      -0.370  -1.281  -3.434  0.00  0.00    +0.000 A 
ATOM      6  C   UNL     1      -0.596   0.101  -3.419  0.00  0.00    +0.000 A 
ATOM      7  C   UNL     1       0.468   0.999  -3.295  0.00  0.00    +0.000 A 
BRANCH   5   8
ATOM      8  C   UNL     1      -1.531  -2.240  -3.555  0.00  0.00    +0.000 C 
BRANCH   8   9
ATOM      9  C   UNL     1      -1.658  -3.249  -2.406  0.00  0.00    +0.000 C 
BRANCH   9  10
ATOM     10  C   UNL     1      -1.872  -2.593  -1.038  0.00  0.00    +0.000 C 
BRANCH  10  11
ATOM     11  C   UNL     1      -1.950  -3.621   0.063  0.00  0.00    +0.000 A 
ATOM     12  C   UNL     1      -0.786  -4.068   0.696  0.00  0.00    +0.000 A 
ATOM     13  C   UNL     1      -0.893  -5.027   1.692  0.00  0.00    +0.000 A 
ATOM     14  N   UNL     1      -2.063  -5.568   2.091  0.00  0.00    +0.000 NA
ATOM     15  C   UNL     1      -3.176  -5.126   1.464  0.00  0.00    +0.000 A 
ATOM     16  C   UNL     1      -3.172  -4.171   0.459  0.00  0.00    +0.000 A 
ENDBRANCH  10  11
ENDBRANCH   9  10
ENDBRANCH   8   9
ENDBRANCH   5   8
ENDBRANCH   1   2
BRANCH   1  19
ATOM     17  C   UNL     1       4.561   2.653  -4.496  0.00  0.00    +0.000 C 
ATOM     18  O   UNL     1       5.137   3.143  -3.528  0.00  0.00    +0.000 OA
ATOM     19  N   UNL     1       3.470   1.842  -4.338  0.00  0.00    +0.000 N 
ATOM     20  H   UNL     1       2.962   1.516  -5.148  0.00  0.00    +0.000 HD
BRANCH  17  28
ATOM     21  C   UNL     1       3.517   1.525  -7.577  0.00  0.00    +0.000 A 
ATOM     22  N   UNL     1       3.337   1.228  -8.882  0.00  0.00    +0.000 NA
ATOM     23  C   UNL     1       4.170   1.777  -9.769  0.00  0.00    +0.000 A 
ATOM     24  N   UNL     1       5.179   2.605  -9.515  0.00  0.00    +0.000 NA
ATOM     25  C   UNL     1       5.319   2.879  -8.206  0.00  0.00    +0.000 A 
ATOM     26  S   UNL     1       6.555   3.926  -7.699  0.00  0.00    +0.000 S 
ATOM     27  C   UNL     1       6.101   3.753  -6.070  0.00  0.00    +0.000 A 
ATOM     28  C   UNL     1       5.017   2.904  -5.875  0.00  0.00    +0.000 A 
ATOM     29  C   UNL     1       4.543   2.391  -7.161  0.00  0.00    +0.000 A 
BRANCH  21  31
ATOM     30  C   UNL     1       2.003  -0.202  -7.120  0.00  0.00    +0.000 C 
ATOM     31  O   UNL     1       2.623   1.000  -6.668  0.00  0.00    +0.000 OA
ENDBRANCH  21  31
ENDBRANCH  17  28
ENDBRANCH   1  19
TORSDOF 8
