REMARK  Name = 
REMARK  5 active torsions:
REMARK  status: ('A' for Active; 'I' for Inactive)
REMARK    1  A    between atoms: C_1  and  C_2
REMARK    2  A    between atoms: C_2  and  C_3
REMARK    3  A    between atoms: C_2  and  N_4
REMARK    4  A    between atoms: C_2  and  C_14
REMARK    5  A    between atoms: C_8  and  C_9
REMARK                            x       y       z     vdW  Elec       q    Type
REMARK                         _______ _______ _______ _____ _____    ______ ____
ROOT
ATOM      1  N   UNL     1       2.766  -1.227  -0.555  0.00  0.00    +0.000 N 
ATOM      2  C   UNL     1       2.346  -2.467  -0.065  0.00  0.00    +0.000 A 
ATOM      3  C   UNL     1       2.206  -3.560  -0.934  0.00  0.00    +0.000 A 
ATOM      4  N   UNL     1       1.787  -4.800  -0.552  0.00  0.00    +0.000 NA
ATOM      5  C   UNL     1       1.536  -4.915   0.781  0.00  0.00    +0.000 A 
ATOM      6  C   UNL     1       1.716  -3.866   1.661  0.00  0.00    +0.000 A 
ATOM      7  N   UNL     1       2.112  -2.637   1.249  0.00  0.00    +0.000 NA
ATOM      8  H   UNL     1       3.756  -1.293  -0.777  0.00  0.00    +0.000 HD
ENDROOT
BRANCH   5   9
ATOM      9  C   UNL     1       1.018  -6.207   1.300  0.00  0.00    +0.000 C 
ATOM     10  N   UNL     1       0.745  -7.164   0.362  0.00  0.00    +0.000 N 
ATOM     11  O   UNL     1       0.821  -6.407   2.494  0.00  0.00    +0.000 OA
ATOM     12  H   UNL     1       0.874  -6.960  -0.622  0.00  0.00    +0.000 HD
ATOM     13  H   UNL     1       0.329  -8.038   0.653  0.00  0.00    +0.000 HD
ENDBRANCH   5   9
BRANCH   1  15
ATOM     14  C   UNL     1       0.868   0.141   0.219  0.00  0.00    +0.000 C 
ATOM     15  C   UNL     1       2.409   0.027   0.155  0.00  0.00    +0.000 C 
ATOM     16  C   UNL     1       2.976   0.083   1.590  0.00  0.00    +0.000 C 
BRANCH  15  17
ATOM     17  C   UNL     1       2.988   1.259  -0.662  0.00  0.00    +0.000 C 
ATOM     18  C   UNL     1       2.454   1.351  -2.110  0.00  0.00    +0.000 C 
ATOM     19  C   UNL     1       3.036   2.540  -2.875  0.00  0.00    +0.000 C 
ATOM     20  C   UNL     1       4.557   2.520  -2.870  0.00  0.00    +0.000 C 
ATOM     21  C   UNL     1       5.088   2.508  -1.445  0.00  0.00    +0.000 C 
ATOM     22  C   UNL     1       4.535   1.327  -0.650  0.00  0.00    +0.000 C 
ENDBRANCH  15  17
ENDBRANCH   1  15
TORSDOF 3
