REMARK  Name = 
REMARK  3 active torsions:
REMARK  status: ('A' for Active; 'I' for Inactive)
REMARK    1  A    between atoms: C_2  and  C_4
REMARK    2  A    between atoms: N_8  and  C_9
REMARK    3  A    between atoms: C_9  and  C_10
REMARK                            x       y       z     vdW  Elec       q    Type
REMARK                         _______ _______ _______ _____ _____    ______ ____
ROOT
ATOM      1  C   UNL     1       8.312   2.576  -1.055  0.00  0.00    +0.000 A 
ATOM      2  C   UNL     1       8.445   3.351  -2.198  0.00  0.00    +0.000 A 
ATOM      3  C   UNL     1       7.400   3.381  -3.120  0.00  0.00    +0.000 A 
ATOM      4  C   UNL     1       6.240   2.647  -2.893  0.00  0.00    +0.000 A 
ATOM      5  N   UNL     1       5.162   2.636  -3.789  0.00  0.00    +0.000 N 
ATOM      6  N   UNL     1       6.110   1.875  -1.794  0.00  0.00    +0.000 NA
ATOM      7  C   UNL     1       7.144   1.844  -0.908  0.00  0.00    +0.000 A 
ATOM      8  H   UNL     1       4.398   2.120  -3.360  0.00  0.00    +0.000 HD
ENDROOT
BRANCH   1  10
ATOM      9  N   UNL     1      10.198   3.571   0.104  0.00  0.00    +0.000 N 
ATOM     10  C   UNL     1       9.367   2.493  -0.023  0.00  0.00    +0.000 C 
ATOM     11  O   UNL     1       9.470   1.516   0.705  0.00  0.00    +0.000 OA
ATOM     12  H   UNL     1      10.858   3.545   0.877  0.00  0.00    +0.000 HD
ATOM     13  H   UNL     1      10.001   4.472  -0.307  0.00  0.00    +0.000 HD
ENDBRANCH   1  10
BRANCH   5  14
ATOM     14  C   UNL     1       4.883   3.700  -4.761  0.00  0.00    +0.000 C 
ATOM     15  C   UNL     1       4.658   5.120  -4.270  0.00  0.00    +0.000 C 
ATOM     16  C   UNL     1       3.493   4.327  -4.760  0.00  0.00    +0.000 C 
BRANCH  14  17
ATOM     17  C   UNL     1       5.500   3.483  -6.145  0.00  0.00    +0.000 A 
ATOM     18  C   UNL     1       4.936   2.585  -7.068  0.00  0.00    +0.000 A 
ATOM     19  C   UNL     1       5.447   2.454  -8.366  0.00  0.00    +0.000 A 
ATOM     20  C   UNL     1       6.555   3.202  -8.765  0.00  0.00    +0.000 A 
ATOM     21 CL   UNL     1       7.108   3.037 -10.391  0.00  0.00    +0.000 Cl
ATOM     22  C   UNL     1       7.161   4.068  -7.855  0.00  0.00    +0.000 A 
ATOM     23 CL   UNL     1       8.555   5.013  -8.245  0.00  0.00    +0.000 Cl
ATOM     24  C   UNL     1       6.628   4.208  -6.570  0.00  0.00    +0.000 A 
ENDBRANCH  14  17
ENDBRANCH   5  14
TORSDOF 3
