REMARK  Name = 
REMARK  7 active torsions:
REMARK  status: ('A' for Active; 'I' for Inactive)
REMARK    1  A    between atoms: N_1  and  C_2
REMARK    2  A    between atoms: C_2  and  C_3
REMARK    3  A    between atoms: C_2  and  C_19
REMARK    4  A    between atoms: C_3  and  N_4
REMARK    5  A    between atoms: N_7  and  C_8
REMARK    6  A    between atoms: C_8  and  C_9
REMARK    7  A    between atoms: C_10  and  C_11
REMARK                            x       y       z     vdW  Elec       q    Type
REMARK                         _______ _______ _______ _____ _____    ______ ____
ROOT
ATOM      1  C   UNL     1       2.813   1.266   0.116  0.00  0.00    +0.000 C 
ENDROOT
BRANCH   1   2
ATOM      2  N   UNL     1       2.243   2.222  -0.876  0.00  0.00    +0.000 NA
ATOM      3  C   UNL     1       2.805   3.580  -0.633  0.00  0.00    +0.000 C 
ATOM      4  C   UNL     1       2.267   4.282   0.645  0.00  0.00    +0.000 C 
ATOM      5  N   UNL     1       0.790   4.316   0.786  0.00  0.00    +0.000 NA
ATOM      6  C   UNL     1       0.251   2.967   0.508  0.00  0.00    +0.000 C 
ATOM      7  C   UNL     1       0.776   2.362  -0.815  0.00  0.00    +0.000 C 
BRANCH   5   8
ATOM      8  C   UNL     1       0.133   5.281  -0.103  0.00  0.00    +0.000 C 
BRANCH   8   9
ATOM      9  C   UNL     1       0.589   6.679   0.133  0.00  0.00    +0.000 C 
ATOM     10  C   UNL     1       1.185   7.404  -0.824  0.00  0.00    +0.000 C 
BRANCH  10  11
ATOM     11  C   UNL     1       1.685   8.763  -0.621  0.00  0.00    +0.000 A 
ATOM     12  C   UNL     1       2.199   9.189   0.605  0.00  0.00    +0.000 A 
ATOM     13  C   UNL     1       2.658  10.494   0.710  0.00  0.00    +0.000 A 
ATOM     14  N   UNL     1       2.654  11.372  -0.311  0.00  0.00    +0.000 NA
ATOM     15  C   UNL     1       2.176  10.929  -1.493  0.00  0.00    +0.000 A 
ATOM     16  C   UNL     1       1.694   9.648  -1.697  0.00  0.00    +0.000 A 
ENDBRANCH  10  11
ENDBRANCH   8   9
ENDBRANCH   5   8
ENDBRANCH   1   2
BRANCH   1  17
ATOM     17  C   UNL     1       2.392  -0.240   0.044  0.00  0.00    +0.000 C 
BRANCH  17  18
ATOM     18  C   UNL     1       3.114  -1.107   1.057  0.00  0.00    +0.000 A 
ATOM     19  C   UNL     1       4.040  -2.071   0.693  0.00  0.00    +0.000 A 
ATOM     20  S   UNL     1       4.551  -3.043   1.999  0.00  0.00    +0.000 S 
ATOM     21  C   UNL     1       3.556  -2.202   3.096  0.00  0.00    +0.000 A 
ATOM     22  N   UNL     1       3.458  -2.588   4.397  0.00  0.00    +0.000 NA
ATOM     23  C   UNL     1       2.649  -1.872   5.103  0.00  0.00    +0.000 A 
ATOM     24  N   UNL     1       1.954  -0.784   4.640  0.00  0.00    +0.000 N 
ATOM     25  C   UNL     1       2.044  -0.337   3.341  0.00  0.00    +0.000 A 
ATOM     26  O   UNL     1       1.456   0.678   2.982  0.00  0.00    +0.000 OA
ATOM     27  C   UNL     1       2.894  -1.151   2.489  0.00  0.00    +0.000 A 
ATOM     28  H   UNL     1       1.364  -0.244   5.255  0.00  0.00    +0.000 HD
ENDBRANCH  17  18
BRANCH  17  29
ATOM     29  N   UNL     1       0.976  -0.560   0.240  0.00  0.00    +0.000 NA
ATOM     30  H   UNL     1       0.474  -0.399  -0.627  0.00  0.00    +0.000 HD
ATOM     31  H   UNL     1       0.599   0.075   0.944  0.00  0.00    +0.000 HD
ENDBRANCH  17  29
ENDBRANCH   1  17
TORSDOF 7
