REMARK  Name = 
REMARK  8 active torsions:
REMARK  status: ('A' for Active; 'I' for Inactive)
REMARK    1  A    between atoms: C_1  and  O_2
REMARK    2  A    between atoms: O_2  and  C_3
REMARK    3  A    between atoms: C_5  and  C_6
REMARK    4  A    between atoms: C_6  and  O_7
REMARK    5  A    between atoms: C_9  and  C_10
REMARK    6  A    between atoms: C_10  and  N_11
REMARK    7  A    between atoms: C_15  and  O_16
REMARK    8  A    between atoms: O_16  and  C_17
REMARK                            x       y       z     vdW  Elec       q    Type
REMARK                         _______ _______ _______ _____ _____    ______ ____
ROOT
ATOM      1  C   UNL     1       6.260  -2.722   0.268  0.00  0.00    +0.000 C 
ENDROOT
BRANCH   1   2
ATOM      2  N   UNL     1       7.059  -3.951   0.176  0.00  0.00    +0.000 N 
ATOM      3  C   UNL     1       8.374  -3.937  -0.394  0.00  0.00    +0.000 A 
ATOM      4  C   UNL     1       9.098  -4.581   0.596  0.00  0.00    +0.000 A 
ATOM      5  C   UNL     1       8.195  -5.679   0.758  0.00  0.00    +0.000 A 
ATOM      6  C   UNL     1       7.891  -6.959   0.211  0.00  0.00    +0.000 A 
ATOM      7  C   UNL     1       6.843  -7.700   0.770  0.00  0.00    +0.000 A 
ATOM      8  C   UNL     1       6.014  -7.123   1.724  0.00  0.00    +0.000 A 
ATOM      9  C   UNL     1       6.065  -5.714   1.922  0.00  0.00    +0.000 A 
ATOM     10  C   UNL     1       7.060  -4.993   1.199  0.00  0.00    +0.000 A 
BRANCH   6  11
ATOM     11  O   UNL     1       8.442  -7.541  -0.922  0.00  0.00    +0.000 OA
ATOM     12  C   UNL     1       9.768  -7.123  -1.189  0.00  0.00    +0.000 C 
ENDBRANCH   6  11
ENDBRANCH   1   2
BRANCH   1  17
ATOM     13  C   UNL     1       3.749  -0.581  -1.518  0.00  0.00    +0.000 A 
ATOM     14  C   UNL     1       3.079  -1.454  -2.374  0.00  0.00    +0.000 A 
ATOM     15  C   UNL     1       3.359  -2.831  -2.352  0.00  0.00    +0.000 A 
ATOM     16  C   UNL     1       4.376  -3.324  -1.494  0.00  0.00    +0.000 A 
ATOM     17  C   UNL     1       5.108  -2.433  -0.667  0.00  0.00    +0.000 A 
ATOM     18  C   UNL     1       4.715  -1.081  -0.671  0.00  0.00    +0.000 A 
BRANCH  13  20
ATOM     19  C   UNL     1       2.652   1.373  -2.345  0.00  0.00    +0.000 C 
ATOM     20  O   UNL     1       3.580   0.788  -1.481  0.00  0.00    +0.000 OA
ENDBRANCH  13  20
BRANCH  15  21
ATOM     21  C   UNL     1       2.688  -3.720  -3.387  0.00  0.00    +0.000 C 
BRANCH  21  22
ATOM     22  O   UNL     1       1.408  -3.227  -3.789  0.00  0.00    +0.000 OA
ATOM     23  H   UNL     1       0.854  -3.163  -2.993  0.00  0.00    +0.000 HD
ENDBRANCH  21  22
ENDBRANCH  15  21
ENDBRANCH   1  17
TORSDOF 6
