REMARK  Name = 
REMARK  8 active torsions:
REMARK  status: ('A' for Active; 'I' for Inactive)
REMARK    1  A    between atoms: C_1  and  C_2
REMARK    2  A    between atoms: C_2  and  N_3
REMARK    3  A    between atoms: N_3  and  C_4
REMARK    4  A    between atoms: C_4  and  C_5
REMARK    5  A    between atoms: C_8  and  C_9
REMARK    6  A    between atoms: C_9  and  O_10
REMARK    7  A    between atoms: O_10  and  C_11
REMARK    8  A    between atoms: C_19  and  C_21
REMARK                            x       y       z     vdW  Elec       q    Type
REMARK                         _______ _______ _______ _____ _____    ______ ____
ROOT
ATOM      1  N   UNL     1       2.927  -1.337  -0.406  0.00  0.00    +0.000 N 
ATOM      2  C   UNL     1       4.276  -1.740  -0.549  0.00  0.00    +0.000 C 
ATOM      3  O   UNL     1       5.163  -0.888  -0.657  0.00  0.00    +0.000 OA
ENDROOT
BRANCH   2   4
ATOM      4  C   UNL     1       4.692  -3.162  -0.454  0.00  0.00    +0.000 A 
ATOM      5  C   UNL     1       4.137  -4.162   0.330  0.00  0.00    +0.000 A 
ATOM      6  S   UNL     1       5.090  -5.580   0.442  0.00  0.00    +0.000 S 
ATOM      7  C   UNL     1       6.292  -4.900  -0.542  0.00  0.00    +0.000 A 
ATOM      8  N   UNL     1       7.474  -5.539  -0.753  0.00  0.00    +0.000 NA
ATOM      9  C   UNL     1       8.282  -4.899  -1.528  0.00  0.00    +0.000 A 
ATOM     10  N   UNL     1       8.003  -3.708  -2.151  0.00  0.00    +0.000 N 
ATOM     11  C   UNL     1       6.774  -3.087  -2.051  0.00  0.00    +0.000 A 
ATOM     12  O   UNL     1       6.453  -2.189  -2.825  0.00  0.00    +0.000 OA
ATOM     13  C   UNL     1       5.899  -3.681  -1.064  0.00  0.00    +0.000 A 
ATOM     14  H   UNL     1       8.629  -3.325  -2.839  0.00  0.00    +0.000 HD
ENDBRANCH   2   4
BRANCH   1  16
ATOM     15  C   UNL     1       3.114   0.395   1.389  0.00  0.00    +0.000 C 
ATOM     16  C   UNL     1       2.719   0.073  -0.054  0.00  0.00    +0.000 C 
ENDBRANCH   1  16
BRANCH   1  17
ATOM     17  C   UNL     1       1.858  -2.301  -0.217  0.00  0.00    +0.000 C 
BRANCH  17  18
ATOM     18  C   UNL     1       0.400  -1.938  -0.370  0.00  0.00    +0.000 A 
ATOM     19  C   UNL     1      -0.236  -1.964  -1.619  0.00  0.00    +0.000 A 
ATOM     20  C   UNL     1      -1.637  -1.985  -1.698  0.00  0.00    +0.000 A 
ATOM     21  C   UNL     1      -2.419  -1.968  -0.534  0.00  0.00    +0.000 A 
ATOM     22  C   UNL     1      -1.779  -1.870   0.707  0.00  0.00    +0.000 A 
ATOM     23  C   UNL     1      -0.387  -1.834   0.786  0.00  0.00    +0.000 A 
BRANCH  21  24
ATOM     24  C   UNL     1      -3.927  -2.091  -0.591  0.00  0.00    +0.000 C 
BRANCH  24  25
ATOM     25  O   UNL     1      -4.292  -3.471  -0.644  0.00  0.00    +0.000 OA
BRANCH  25  26
ATOM     26  C   UNL     1      -5.666  -3.616  -0.678  0.00  0.00    +0.000 A 
ATOM     27  N   UNL     1      -6.113  -4.739  -1.265  0.00  0.00    +0.000 NA
ATOM     28  C   UNL     1      -7.451  -4.889  -1.307  0.00  0.00    +0.000 A 
ATOM     29  C   UNL     1      -8.338  -3.979  -0.781  0.00  0.00    +0.000 A 
ATOM     30  C   UNL     1      -7.771  -2.878  -0.185  0.00  0.00    +0.000 A 
ATOM     31  N   UNL     1      -6.442  -2.671  -0.123  0.00  0.00    +0.000 NA
ENDBRANCH  25  26
ENDBRANCH  24  25
ENDBRANCH  21  24
ENDBRANCH  17  18
ENDBRANCH   1  17
TORSDOF 7
