REMARK  Name = 
REMARK  10 active torsions:
REMARK  status: ('A' for Active; 'I' for Inactive)
REMARK    1  A    between atoms: C_1  and  C_2
REMARK    2  A    between atoms: C_2  and  C_3
REMARK    3  A    between atoms: C_3  and  N_4
REMARK    4  A    between atoms: C_3  and  C_20
REMARK    5  A    between atoms: N_4  and  C_5
REMARK    6  A    between atoms: C_5  and  C_6
REMARK    7  A    between atoms: C_9  and  C_10
REMARK    8  A    between atoms: C_10  and  N_11
REMARK    9  A    between atoms: N_11  and  C_12
REMARK   10  A    between atoms: C_12  and  C_13
REMARK                            x       y       z     vdW  Elec       q    Type
REMARK                         _______ _______ _______ _____ _____    ______ ____
ROOT
ATOM      1  C   UNL     1       2.718  -1.403  -0.084  0.00  0.00    +0.000 C 
ENDROOT
BRANCH   1   2
ATOM      2  C   UNL     1       2.463  -2.021   1.270  0.00  0.00    +0.000 A 
ATOM      3  C   UNL     1       1.195  -1.943   1.862  0.00  0.00    +0.000 A 
ATOM      4  C   UNL     1       0.930  -2.598   3.067  0.00  0.00    +0.000 A 
ATOM      5  C   UNL     1       1.926  -3.351   3.705  0.00  0.00    +0.000 A 
ATOM      6  C   UNL     1       3.191  -3.434   3.110  0.00  0.00    +0.000 A 
ATOM      7  C   UNL     1       3.457  -2.777   1.905  0.00  0.00    +0.000 A 
BRANCH   5   8
ATOM      8  C   UNL     1       1.658  -4.021   5.033  0.00  0.00    +0.000 C 
BRANCH   8   9
ATOM      9  N   UNL     1       0.553  -4.973   4.955  0.00  0.00    +0.000 NA
ATOM     10  H   UNL     1       0.775  -5.693   4.266  0.00  0.00    +0.000 HD
BRANCH   9  11
ATOM     11  C   UNL     1       0.363  -5.638   6.247  0.00  0.00    +0.000 C 
BRANCH  11  12
ATOM     12  C   UNL     1      -0.766  -6.606   6.122  0.00  0.00    +0.000 A 
ATOM     13  C   UNL     1      -2.115  -6.392   6.322  0.00  0.00    +0.000 A 
ATOM     14  N   UNL     1      -2.713  -7.593   6.067  0.00  0.00    +0.000 N 
ATOM     15  C   UNL     1      -1.731  -8.481   5.734  0.00  0.00    +0.000 A 
ATOM     16  N   UNL     1      -0.544  -7.918   5.758  0.00  0.00    +0.000 NA
ATOM     17  H   UNL     1      -3.703  -7.792   6.110  0.00  0.00    +0.000 HD
ENDBRANCH  11  12
ENDBRANCH   9  11
ENDBRANCH   8   9
ENDBRANCH   5   8
ENDBRANCH   1   2
BRANCH   1  18
ATOM     18  N   UNL     1       2.449   0.040  -0.123  0.00  0.00    +0.000 NA
ATOM     19  H   UNL     1       3.056   0.475   0.571  0.00  0.00    +0.000 HD
BRANCH  18  20
ATOM     20  C   UNL     1       2.772   0.623  -1.440  0.00  0.00    +0.000 C 
BRANCH  20  21
ATOM     21  C   UNL     1       2.592   2.131  -1.306  0.00  0.00    +0.000 A 
ATOM     22  C   UNL     1       1.406   2.823  -1.506  0.00  0.00    +0.000 A 
ATOM     23  S   UNL     1       1.570   4.518  -1.344  0.00  0.00    +0.000 S 
ATOM     24  C   UNL     1       3.220   4.382  -0.950  0.00  0.00    +0.000 A 
ATOM     25  N   UNL     1       3.978   5.480  -0.681  0.00  0.00    +0.000 NA
ATOM     26  C   UNL     1       5.206   5.217  -0.382  0.00  0.00    +0.000 A 
ATOM     27  N   UNL     1       5.747   3.958  -0.327  0.00  0.00    +0.000 N 
ATOM     28  C   UNL     1       5.022   2.816  -0.581  0.00  0.00    +0.000 A 
ATOM     29  O   UNL     1       5.526   1.704  -0.489  0.00  0.00    +0.000 OA
ATOM     30  C   UNL     1       3.636   3.063  -0.943  0.00  0.00    +0.000 A 
ATOM     31  H   UNL     1       6.712   3.820  -0.069  0.00  0.00    +0.000 HD
ENDBRANCH  20  21
BRANCH  20  33
ATOM     32  C   UNL     1       2.311   0.489  -3.969  0.00  0.00    +0.000 C 
ATOM     33  C   UNL     1       1.931  -0.003  -2.579  0.00  0.00    +0.000 C 
ENDBRANCH  20  33
ENDBRANCH  18  20
ENDBRANCH   1  18
TORSDOF 9
