REMARK  Name = 
REMARK  7 active torsions:
REMARK  status: ('A' for Active; 'I' for Inactive)
REMARK    1  A    between atoms: C_2  and  C_20
REMARK    2  A    between atoms: N_3  and  C_4
REMARK    3  A    between atoms: C_4  and  C_5
REMARK    4  A    between atoms: C_8  and  C_9
REMARK    5  A    between atoms: C_9  and  N_10
REMARK    6  A    between atoms: N_10  and  C_11
REMARK    7  A    between atoms: C_11  and  C_12
REMARK                            x       y       z     vdW  Elec       q    Type
REMARK                         _______ _______ _______ _____ _____    ______ ____
ROOT
ATOM      1  C   UNL     1       4.790   2.067   2.463  0.00  0.00    +0.000 C 
ENDROOT
BRANCH   1   2
ATOM      2  C   UNL     1       3.388   2.008   3.103  0.00  0.00    +0.000 C 
ATOM      3  C   UNL     1       3.346   1.187   4.402  0.00  0.00    +0.000 C 
ATOM      4  C   UNL     1       4.142   1.838   5.532  0.00  0.00    +0.000 C 
ATOM      5  C   UNL     1       3.708   3.292   5.785  0.00  0.00    +0.000 C 
ATOM      6  C   UNL     1       3.675   4.115   4.484  0.00  0.00    +0.000 C 
ATOM      7  C   UNL     1       2.869   3.422   3.389  0.00  0.00    +0.000 C 
BRANCH   5   8
ATOM      8  C   UNL     1       4.630   3.948   6.832  0.00  0.00    +0.000 C 
BRANCH   8   9
ATOM      9  N   UNL     1       4.190   5.316   7.094  0.00  0.00    +0.000 NA
ATOM     10  H   UNL     1       3.235   5.315   7.448  0.00  0.00    +0.000 HD
BRANCH   9  11
ATOM     11  C   UNL     1       5.060   6.002   8.040  0.00  0.00    +0.000 C 
BRANCH  11  12
ATOM     12  C   UNL     1       4.581   7.416   8.261  0.00  0.00    +0.000 A 
ATOM     13  C   UNL     1       4.178   7.847   9.527  0.00  0.00    +0.000 A 
ATOM     14  C   UNL     1       3.743   9.155   9.676  0.00  0.00    +0.000 A 
ATOM     15  N   UNL     1       3.680  10.049   8.667  0.00  0.00    +0.000 NA
ATOM     16  C   UNL     1       4.071   9.614   7.450  0.00  0.00    +0.000 A 
ATOM     17  C   UNL     1       4.524   8.328   7.201  0.00  0.00    +0.000 A 
ENDBRANCH  11  12
ENDBRANCH   9  11
ENDBRANCH   8   9
ENDBRANCH   5   8
ENDBRANCH   1   2
BRANCH   1  20
ATOM     18  O   UNL     1       7.168   0.831   3.394  0.00  0.00    +0.000 OA
ATOM     19  C   UNL     1       6.431   0.216   2.634  0.00  0.00    +0.000 C 
ATOM     20  N   UNL     1       5.282   0.757   2.105  0.00  0.00    +0.000 N 
ATOM     21  H   UNL     1       4.666   0.174   1.548  0.00  0.00    +0.000 HD
BRANCH  19  22
ATOM     22  C   UNL     1       6.746  -1.144   2.195  0.00  0.00    +0.000 A 
ATOM     23  C   UNL     1       8.065  -1.571   2.129  0.00  0.00    +0.000 A 
ATOM     24  S   UNL     1       8.230  -3.187   1.614  0.00  0.00    +0.000 S 
ATOM     25  C   UNL     1       6.544  -3.383   1.501  0.00  0.00    +0.000 A 
ATOM     26  N   UNL     1       5.994  -4.573   1.137  0.00  0.00    +0.000 NA
ATOM     27  C   UNL     1       4.704  -4.592   1.145  0.00  0.00    +0.000 A 
ATOM     28  N   UNL     1       3.910  -3.523   1.464  0.00  0.00    +0.000 N 
ATOM     29  C   UNL     1       4.416  -2.278   1.753  0.00  0.00    +0.000 A 
ATOM     30  O   UNL     1       3.675  -1.310   1.883  0.00  0.00    +0.000 OA
ATOM     31  C   UNL     1       5.864  -2.223   1.816  0.00  0.00    +0.000 A 
ATOM     32  H   UNL     1       2.904  -3.589   1.410  0.00  0.00    +0.000 HD
ENDBRANCH  19  22
ENDBRANCH   1  20
TORSDOF 7
