REMARK  Name = 
REMARK  5 active torsions:
REMARK  status: ('A' for Active; 'I' for Inactive)
REMARK    1  A    between atoms: N_1  and  C_2
REMARK    2  A    between atoms: C_2  and  C_3
REMARK    3  A    between atoms: C_3  and  C_4
REMARK    4  A    between atoms: C_7  and  C_8
REMARK    5  A    between atoms: C_8  and  C_9
REMARK                            x       y       z     vdW  Elec       q    Type
REMARK                         _______ _______ _______ _____ _____    ______ ____
ROOT
ATOM      1  C   UNL     1       4.563   0.545   1.427  0.00  0.00    +0.000 A 
ATOM      2  C   UNL     1       5.292   1.726   1.605  0.00  0.00    +0.000 A 
ATOM      3  C   UNL     1       6.691   1.701   1.650  0.00  0.00    +0.000 A 
ATOM      4  C   UNL     1       7.388   0.492   1.514  0.00  0.00    +0.000 A 
ATOM      5  C   UNL     1       6.650  -0.686   1.308  0.00  0.00    +0.000 A 
ATOM      6  C   UNL     1       5.256  -0.660   1.266  0.00  0.00    +0.000 A 
ENDROOT
BRANCH   1   7
ATOM      7  C   UNL     1       3.051   0.560   1.403  0.00  0.00    +0.000 C 
BRANCH   7   8
ATOM      8  C   UNL     1       2.499   0.759  -0.013  0.00  0.00    +0.000 C 
BRANCH   8   9
ATOM      9  N   UNL     1       1.035   0.751  -0.016  0.00  0.00    +0.000 NA
ATOM     10  H   UNL     1       0.703   0.901  -0.967  0.00  0.00    +0.000 HD
ATOM     11  H   UNL     1       0.686   1.530   0.537  0.00  0.00    +0.000 HD
ENDBRANCH   8   9
ENDBRANCH   7   8
ENDBRANCH   1   7
BRANCH   4  12
ATOM     12  C   UNL     1       8.899   0.425   1.707  0.00  0.00    +0.000 C 
BRANCH  12  13
ATOM     13  C   UNL     1       9.048  -0.038   3.116  0.00  0.00    +0.000 A 
ATOM     14  N   UNL     1       9.130  -1.353   3.390  0.00  0.00    +0.000 NA
ATOM     15  O   UNL     1       8.805  -1.466   4.735  0.00  0.00    +0.000 OA
ATOM     16  C   UNL     1       8.590  -0.228   5.256  0.00  0.00    +0.000 A 
ATOM     17  C   UNL     1       8.104   0.062   6.518  0.00  0.00    +0.000 A 
ATOM     18  C   UNL     1       7.962   1.411   6.811  0.00  0.00    +0.000 A 
ATOM     19  F   UNL     1       7.426   1.769   7.993  0.00  0.00    +0.000 F 
ATOM     20  C   UNL     1       8.352   2.416   5.923  0.00  0.00    +0.000 A 
ATOM     21  C   UNL     1       8.827   2.086   4.645  0.00  0.00    +0.000 A 
ATOM     22  C   UNL     1       8.897   0.725   4.299  0.00  0.00    +0.000 A 
ENDBRANCH  12  13
ENDBRANCH   4  12
TORSDOF 5
