REMARK  Name = 
REMARK  6 active torsions:
REMARK  status: ('A' for Active; 'I' for Inactive)
REMARK    1  A    between atoms: C_1  and  C_2
REMARK    2  A    between atoms: C_7  and  C_8
REMARK    3  A    between atoms: C_8  and  N_9
REMARK    4  A    between atoms: N_9  and  C_10
REMARK    5  A    between atoms: C_13  and  C_14
REMARK    6  A    between atoms: C_25  and  C_26
REMARK                            x       y       z     vdW  Elec       q    Type
REMARK                         _______ _______ _______ _____ _____    ______ ____
ROOT
ATOM      1  C   UNL     1       1.540   4.835  -5.068  0.00  0.00    +0.000 C 
ATOM      2  C   UNL     1       1.443   5.903  -3.990  0.00  0.00    +0.000 C 
ATOM      3  C   UNL     1       0.381   5.832  -5.032  0.00  0.00    +0.000 C 
ENDROOT
BRANCH   1  10
ATOM      4  C   UNL     1       1.490  -2.341  -2.702  0.00  0.00    +0.000 C 
ATOM      5  C   UNL     1       2.581  -1.672  -1.875  0.00  0.00    +0.000 C 
ATOM      6  C   UNL     1       2.315  -0.194  -1.527  0.00  0.00    +0.000 C 
ATOM      7  N   UNL     1       2.829   0.771  -2.508  0.00  0.00    +0.000 N 
ATOM      8  C   UNL     1       1.926   1.405  -3.349  0.00  0.00    +0.000 A 
ATOM      9  C   UNL     1       2.199   2.699  -3.808  0.00  0.00    +0.000 A 
ATOM     10  C   UNL     1       1.293   3.395  -4.628  0.00  0.00    +0.000 A 
ATOM     11  C   UNL     1       0.142   2.702  -5.003  0.00  0.00    +0.000 A 
ATOM     12  C   UNL     1      -0.075   1.432  -4.499  0.00  0.00    +0.000 A 
ATOM     13  N   UNL     1       0.774   0.791  -3.671  0.00  0.00    +0.000 NA
ATOM     14  C   UNL     1       4.157   0.463  -3.052  0.00  0.00    +0.000 C 
ATOM     15  C   UNL     1       4.320  -1.022  -3.437  0.00  0.00    +0.000 C 
ATOM     16  C   UNL     1       3.734  -1.387  -4.797  0.00  0.00    +0.000 C 
ATOM     17  O   UNL     1       3.892  -1.920  -2.404  0.00  0.00    +0.000 OA
ENDBRANCH   1  10
BRANCH   1  18
ATOM     18  N   UNL     1       2.353   4.950  -6.283  0.00  0.00    +0.000 N 
ATOM     19  H   UNL     1       1.937   4.658  -7.162  0.00  0.00    +0.000 HD
BRANCH  18  20
ATOM     20  C   UNL     1       3.655   5.450  -6.373  0.00  0.00    +0.000 A 
ATOM     21  C   UNL     1       4.127   5.888  -7.619  0.00  0.00    +0.000 A 
ATOM     22  C   UNL     1       5.394   6.449  -7.743  0.00  0.00    +0.000 A 
ATOM     23  C   UNL     1       6.167   6.560  -6.598  0.00  0.00    +0.000 A 
ATOM     24  N   UNL     1       5.756   6.160  -5.362  0.00  0.00    +0.000 NA
ATOM     25  C   UNL     1       4.509   5.627  -5.287  0.00  0.00    +0.000 A 
BRANCH  23  26
ATOM     26  C   UNL     1       7.544   7.146  -6.676  0.00  0.00    +0.000 C 
ATOM     27  N   UNL     1       8.222   7.181  -5.488  0.00  0.00    +0.000 N 
ATOM     28  O   UNL     1       8.034   7.560  -7.719  0.00  0.00    +0.000 OA
ATOM     29  H   UNL     1       7.771   6.827  -4.652  0.00  0.00    +0.000 HD
ATOM     30  H   UNL     1       9.157   7.558  -5.450  0.00  0.00    +0.000 HD
ENDBRANCH  23  26
ENDBRANCH  18  20
ENDBRANCH   1  18
TORSDOF 4
