REMARK  Name = 
REMARK  9 active torsions:
REMARK  status: ('A' for Active; 'I' for Inactive)
REMARK    1  A    between atoms: C_1  and  O_2
REMARK    2  A    between atoms: O_2  and  C_3
REMARK    3  A    between atoms: C_10  and  C_11
REMARK    4  A    between atoms: N_13  and  C_14
REMARK    5  A    between atoms: C_14  and  C_15
REMARK    6  A    between atoms: C_18  and  O_19
REMARK    7  A    between atoms: O_19  and  C_20
REMARK    8  A    between atoms: C_20  and  C_21
REMARK    9  A    between atoms: C_21  and  C_24
REMARK                            x       y       z     vdW  Elec       q    Type
REMARK                         _______ _______ _______ _____ _____    ______ ____
ROOT
ATOM      1  C   UNL     1       1.542   2.959   1.707  0.00  0.00    +0.000 A 
ATOM      2  C   UNL     1       0.424   2.187   1.367  0.00  0.00    +0.000 A 
ATOM      3  C   UNL     1      -0.644   2.742   0.651  0.00  0.00    +0.000 A 
ATOM      4  C   UNL     1      -0.612   4.080   0.256  0.00  0.00    +0.000 A 
ATOM      5  C   UNL     1       0.491   4.860   0.612  0.00  0.00    +0.000 A 
ATOM      6  C   UNL     1       1.564   4.306   1.325  0.00  0.00    +0.000 A 
ENDROOT
BRANCH   1   7
ATOM      7  C   UNL     1       2.703   2.326   2.434  0.00  0.00    +0.000 C 
BRANCH   7  10
ATOM      8  C   UNL     1       4.416   0.657   1.845  0.00  0.00    +0.000 C 
ATOM      9  O   UNL     1       4.318   0.129   2.956  0.00  0.00    +0.000 OA
ATOM     10  N   UNL     1       3.639   1.731   1.505  0.00  0.00    +0.000 N 
ATOM     11  H   UNL     1       3.835   2.237   0.652  0.00  0.00    +0.000 HD
BRANCH   8  19
ATOM     12  C   UNL     1       5.195   1.561  -1.396  0.00  0.00    +0.000 A 
ATOM     13  N   UNL     1       5.685   1.682  -2.648  0.00  0.00    +0.000 NA
ATOM     14  C   UNL     1       6.614   0.814  -3.052  0.00  0.00    +0.000 A 
ATOM     15  N   UNL     1       7.132  -0.183  -2.341  0.00  0.00    +0.000 NA
ATOM     16  C   UNL     1       6.628  -0.264  -1.098  0.00  0.00    +0.000 A 
ATOM     17  S   UNL     1       7.188  -1.479  -0.054  0.00  0.00    +0.000 S 
ATOM     18  C   UNL     1       6.155  -0.952   1.186  0.00  0.00    +0.000 A 
ATOM     19  C   UNL     1       5.368   0.143   0.843  0.00  0.00    +0.000 A 
ATOM     20  C   UNL     1       5.659   0.558  -0.528  0.00  0.00    +0.000 A 
BRANCH  12  22
ATOM     21  C   UNL     1       3.487   3.015  -2.045  0.00  0.00    +0.000 C 
ATOM     22  O   UNL     1       4.281   2.506  -0.973  0.00  0.00    +0.000 OA
ENDBRANCH  12  22
ENDBRANCH   8  19
ENDBRANCH   7  10
ENDBRANCH   1   7
BRANCH   4  23
ATOM     23  O   UNL     1      -1.582   4.725  -0.470  0.00  0.00    +0.000 OA
BRANCH  23  24
ATOM     24  C   UNL     1      -2.710   3.932  -0.875  0.00  0.00    +0.000 C 
BRANCH  24  25
ATOM     25  C   UNL     1      -3.713   4.728  -1.724  0.00  0.00    +0.000 C 
ATOM     26  F   UNL     1      -3.071   5.157  -2.858  0.00  0.00    +0.000 F 
ATOM     27  F   UNL     1      -4.649   3.835  -2.187  0.00  0.00    +0.000 F 
BRANCH  25  28
ATOM     28  C   UNL     1      -4.364   5.858  -0.940  0.00  0.00    +0.000 A 
ATOM     29  C   UNL     1      -4.289   7.170  -1.411  0.00  0.00    +0.000 A 
ATOM     30  C   UNL     1      -4.901   8.186  -0.681  0.00  0.00    +0.000 A 
ATOM     31  C   UNL     1      -5.579   7.873   0.490  0.00  0.00    +0.000 A 
ATOM     32  C   UNL     1      -5.626   6.548   0.884  0.00  0.00    +0.000 A 
ATOM     33  N   UNL     1      -5.040   5.540   0.201  0.00  0.00    +0.000 NA
ENDBRANCH  25  28
ENDBRANCH  24  25
ENDBRANCH  23  24
ENDBRANCH   4  23
TORSDOF 8
