REMARK  Name = 
REMARK  6 active torsions:
REMARK  status: ('A' for Active; 'I' for Inactive)
REMARK    1  A    between atoms: C_1  and  O_2
REMARK    2  A    between atoms: O_2  and  C_3
REMARK    3  A    between atoms: N_9  and  C_10
REMARK    4  A    between atoms: C_10  and  C_11
REMARK    5  A    between atoms: C_15  and  C_16
REMARK    6  A    between atoms: C_16  and  N_17
REMARK                            x       y       z     vdW  Elec       q    Type
REMARK                         _______ _______ _______ _____ _____    ______ ____
ROOT
ATOM      1  C   UNL     1       3.101   0.996  -0.666  0.00  0.00    +0.000 A 
ATOM      2  C   UNL     1       2.713   2.295  -0.974  0.00  0.00    +0.000 A 
ATOM      3  C   UNL     1       3.497   3.095  -1.817  0.00  0.00    +0.000 A 
ATOM      4  C   UNL     1       4.682   2.573  -2.371  0.00  0.00    +0.000 A 
ATOM      5  C   UNL     1       5.671   3.118  -3.230  0.00  0.00    +0.000 A 
ATOM      6  C   UNL     1       6.598   2.134  -3.473  0.00  0.00    +0.000 A 
ATOM      7  N   UNL     1       6.207   0.999  -2.797  0.00  0.00    +0.000 N 
ATOM      8  C   UNL     1       5.049   1.256  -2.082  0.00  0.00    +0.000 A 
ATOM      9  C   UNL     1       4.279   0.459  -1.213  0.00  0.00    +0.000 A 
ENDROOT
BRANCH   1  11
ATOM     10  C   UNL     1       1.203   0.626   0.726  0.00  0.00    +0.000 C 
ATOM     11  O   UNL     1       2.412   0.137   0.154  0.00  0.00    +0.000 OA
ENDBRANCH   1  11
BRANCH   7  12
ATOM     12  C   UNL     1       6.884  -0.289  -2.939  0.00  0.00    +0.000 C 
BRANCH  12  13
ATOM     13  C   UNL     1       8.013  -0.436  -1.951  0.00  0.00    +0.000 A 
ATOM     14  C   UNL     1       7.803  -1.101  -0.736  0.00  0.00    +0.000 A 
ATOM     15  C   UNL     1       8.808  -1.136   0.227  0.00  0.00    +0.000 A 
ATOM     16  C   UNL     1      10.032  -0.515  -0.012  0.00  0.00    +0.000 A 
ATOM     17  C   UNL     1      10.289   0.120  -1.237  0.00  0.00    +0.000 A 
ATOM     18  C   UNL     1       9.266   0.147  -2.199  0.00  0.00    +0.000 A 
BRANCH  17  19
ATOM     19  C   UNL     1      11.590   0.858  -1.437  0.00  0.00    +0.000 C 
BRANCH  19  20
ATOM     20  N   UNL     1      12.099   0.782  -2.802  0.00  0.00    +0.000 NA
ATOM     21  H   UNL     1      12.296  -0.195  -3.021  0.00  0.00    +0.000 HD
ATOM     22  H   UNL     1      12.992   1.270  -2.847  0.00  0.00    +0.000 HD
ENDBRANCH  19  20
ENDBRANCH  17  19
ENDBRANCH  12  13
ENDBRANCH   7  12
TORSDOF 5
