REMARK  Name = 
REMARK  7 active torsions:
REMARK  status: ('A' for Active; 'I' for Inactive)
REMARK    1  A    between atoms: C_1  and  O_2
REMARK    2  A    between atoms: O_2  and  C_3
REMARK    3  A    between atoms: C_5  and  C_6
REMARK    4  A    between atoms: C_11  and  N_12
REMARK    5  A    between atoms: N_12  and  C_13
REMARK    6  A    between atoms: C_13  and  C_14
REMARK    7  A    between atoms: C_19  and  C_20
REMARK                            x       y       z     vdW  Elec       q    Type
REMARK                         _______ _______ _______ _____ _____    ______ ____
ROOT
ATOM      1  N   UNL     1       4.312  -1.539   1.107  0.00  0.00    +0.000 N 
ATOM      2  H   UNL     1       5.292  -1.430   0.862  0.00  0.00    +0.000 HD
ENDROOT
BRANCH   1   8
ATOM      3  C   UNL     1       4.126  -2.927  -0.880  0.00  0.00    +0.000 A 
ATOM      4  C   UNL     1       3.328  -3.423  -1.915  0.00  0.00    +0.000 A 
ATOM      5  C   UNL     1       2.038  -2.926  -2.106  0.00  0.00    +0.000 A 
ATOM      6  C   UNL     1       1.601  -1.947  -1.233  0.00  0.00    +0.000 A 
ATOM      7  N   UNL     1       2.337  -1.458  -0.207  0.00  0.00    +0.000 NA
ATOM      8  C   UNL     1       3.585  -1.946  -0.023  0.00  0.00    +0.000 A 
BRANCH   5   9
ATOM      9  C   UNL     1       1.224  -3.460  -3.223  0.00  0.00    +0.000 C 
ATOM     10  N   UNL     1      -0.041  -2.985  -3.416  0.00  0.00    +0.000 N 
ATOM     11  O   UNL     1       1.674  -4.317  -3.977  0.00  0.00    +0.000 OA
ATOM     12  H   UNL     1      -0.517  -2.302  -2.850  0.00  0.00    +0.000 HD
ATOM     13  H   UNL     1      -0.561  -3.389  -4.188  0.00  0.00    +0.000 HD
ENDBRANCH   5   9
BRANCH   3  15
ATOM     14  C   UNL     1       6.059  -4.035  -1.700  0.00  0.00    +0.000 C 
ATOM     15  O   UNL     1       5.415  -3.338  -0.637  0.00  0.00    +0.000 OA
ENDBRANCH   3  15
ENDBRANCH   1   8
BRANCH   1  16
ATOM     16  C   UNL     1       3.761  -0.410   1.842  0.00  0.00    +0.000 C 
BRANCH  16  17
ATOM     17  C   UNL     1       4.330  -0.342   3.246  0.00  0.00    +0.000 A 
ATOM     18  C   UNL     1       4.397   0.886   3.913  0.00  0.00    +0.000 A 
ATOM     19  C   UNL     1       4.813   0.928   5.237  0.00  0.00    +0.000 A 
ATOM     20  F   UNL     1       4.863   2.107   5.873  0.00  0.00    +0.000 F 
ATOM     21  C   UNL     1       5.158  -0.232   5.925  0.00  0.00    +0.000 A 
ATOM     22  C   UNL     1       5.103  -1.486   5.296  0.00  0.00    +0.000 A 
ATOM     23  C   UNL     1       4.679  -1.511   3.953  0.00  0.00    +0.000 A 
BRANCH  22  24
ATOM     24  C   UNL     1       5.457  -2.728   6.017  0.00  0.00    +0.000 A 
ATOM     25  C   UNL     1       6.445  -2.759   7.014  0.00  0.00    +0.000 A 
ATOM     26  C   UNL     1       6.744  -3.942   7.689  0.00  0.00    +0.000 A 
ATOM     27  C   UNL     1       6.051  -5.088   7.345  0.00  0.00    +0.000 A 
ATOM     28  N   UNL     1       5.102  -5.123   6.391  0.00  0.00    +0.000 NA
ATOM     29  C   UNL     1       4.830  -3.952   5.760  0.00  0.00    +0.000 A 
ENDBRANCH  22  24
ENDBRANCH  16  17
ENDBRANCH   1  16
TORSDOF 6
