REMARK  Name = 
REMARK  6 active torsions:
REMARK  status: ('A' for Active; 'I' for Inactive)
REMARK    1  A    between atoms: C_2  and  C_4
REMARK    2  A    between atoms: C_7  and  N_8
REMARK    3  A    between atoms: N_8  and  S_9
REMARK    4  A    between atoms: S_9  and  C_10
REMARK    5  A    between atoms: C_10  and  C_11
REMARK    6  A    between atoms: C_12  and  C_13
REMARK                            x       y       z     vdW  Elec       q    Type
REMARK                         _______ _______ _______ _____ _____    ______ ____
ROOT
ATOM      1  N   UNL     1       5.619   0.953   4.909  0.00  0.00    +0.000 N 
ATOM      2  H   UNL     1       5.229   1.581   4.207  0.00  0.00    +0.000 HD
ENDROOT
BRANCH   1   6
ATOM      3  C   UNL     1       7.803  -2.198   3.091  0.00  0.00    +0.000 A 
ATOM      4  C   UNL     1       7.138  -2.432   4.297  0.00  0.00    +0.000 A 
ATOM      5  C   UNL     1       6.394  -1.411   4.897  0.00  0.00    +0.000 A 
ATOM      6  C   UNL     1       6.276  -0.146   4.303  0.00  0.00    +0.000 A 
ATOM      7  C   UNL     1       6.974   0.080   3.104  0.00  0.00    +0.000 A 
ATOM      8  C   UNL     1       7.729  -0.933   2.501  0.00  0.00    +0.000 A 
BRANCH   3  10
ATOM      9  N   UNL     1       8.289  -4.549   2.692  0.00  0.00    +0.000 N 
ATOM     10  C   UNL     1       8.629  -3.249   2.443  0.00  0.00    +0.000 C 
ATOM     11  O   UNL     1       9.556  -2.969   1.696  0.00  0.00    +0.000 OA
ATOM     12  H   UNL     1       8.798  -5.255   2.175  0.00  0.00    +0.000 HD
ATOM     13  H   UNL     1       7.398  -4.811   3.090  0.00  0.00    +0.000 HD
ENDBRANCH   3  10
ENDBRANCH   1   6
BRANCH   1  14
ATOM     14  S   UNL     1       4.748   0.816   6.325  0.00  0.00    +0.000 S 
BRANCH  14  15
ATOM     15  C   UNL     1       6.117   1.196   7.479  0.00  0.00    +0.000 C 
BRANCH  15  16
ATOM     16  C   UNL     1       5.604   1.077   8.881  0.00  0.00    +0.000 C 
ATOM     17  C   UNL     1       6.093   0.257   9.829  0.00  0.00    +0.000 C 
BRANCH  17  18
ATOM     18  C   UNL     1       5.513   0.167  11.179  0.00  0.00    +0.000 A 
ATOM     19  C   UNL     1       6.043  -0.700  12.133  0.00  0.00    +0.000 A 
ATOM     20  C   UNL     1       5.441  -0.774  13.392  0.00  0.00    +0.000 A 
ATOM     21  C   UNL     1       4.332   0.018  13.662  0.00  0.00    +0.000 A 
ATOM     22 CL   UNL     1       3.553  -0.047  15.189  0.00  0.00    +0.000 Cl
ATOM     23  C   UNL     1       3.872   0.859  12.665  0.00  0.00    +0.000 A 
ATOM     24  N   UNL     1       4.438   0.950  11.438  0.00  0.00    +0.000 NA
ENDBRANCH  17  18
ENDBRANCH  15  16
ENDBRANCH  14  15
ENDBRANCH   1  14
TORSDOF 6
