REMARK  Name = 
REMARK  4 active torsions:
REMARK  status: ('A' for Active; 'I' for Inactive)
REMARK    1  A    between atoms: C_2  and  C_4
REMARK    2  A    between atoms: N_8  and  C_9
REMARK    3  A    between atoms: C_9  and  C_10
REMARK    4  A    between atoms: C_14  and  C_15
REMARK                            x       y       z     vdW  Elec       q    Type
REMARK                         _______ _______ _______ _____ _____    ______ ____
ROOT
ATOM      1  C   UNL     1       7.872  -1.663  -0.518  0.00  0.00    +0.000 A 
ATOM      2  C   UNL     1       7.304  -2.808  -1.064  0.00  0.00    +0.000 A 
ATOM      3  C   UNL     1       6.542  -3.646  -0.246  0.00  0.00    +0.000 A 
ATOM      4  C   UNL     1       6.369  -3.331   1.098  0.00  0.00    +0.000 A 
ATOM      5  N   UNL     1       5.582  -4.058   1.959  0.00  0.00    +0.000 N 
ATOM      6  N   UNL     1       6.923  -2.226   1.637  0.00  0.00    +0.000 NA
ATOM      7  C   UNL     1       7.666  -1.424   0.831  0.00  0.00    +0.000 A 
ATOM      8  H   UNL     1       5.661  -3.673   2.895  0.00  0.00    +0.000 HD
ENDROOT
BRANCH   1  10
ATOM      9  N   UNL     1       8.441  -0.635  -2.645  0.00  0.00    +0.000 N 
ATOM     10  C   UNL     1       8.686  -0.715  -1.305  0.00  0.00    +0.000 C 
ATOM     11  O   UNL     1       9.524   0.001  -0.769  0.00  0.00    +0.000 OA
ATOM     12  H   UNL     1       8.932   0.098  -3.144  0.00  0.00    +0.000 HD
ATOM     13  H   UNL     1       7.598  -1.000  -3.066  0.00  0.00    +0.000 HD
ENDBRANCH   1  10
BRANCH   5  14
ATOM     14  C   UNL     1       5.441  -5.496   1.886  0.00  0.00    +0.000 C 
BRANCH  14  15
ATOM     15  C   UNL     1       6.478  -6.296   2.647  0.00  0.00    +0.000 A 
ATOM     16  C   UNL     1       7.569  -5.740   3.324  0.00  0.00    +0.000 A 
ATOM     17  C   UNL     1       8.446  -6.560   4.035  0.00  0.00    +0.000 A 
ATOM     18  C   UNL     1       8.241  -7.942   4.088  0.00  0.00    +0.000 A 
ATOM     19  C   UNL     1       7.153  -8.543   3.436  0.00  0.00    +0.000 A 
ATOM     20  C   UNL     1       6.300  -7.695   2.704  0.00  0.00    +0.000 A 
BRANCH  19  21
ATOM     21  C   UNL     1       6.874  -9.992   3.554  0.00  0.00    +0.000 A 
ATOM     22  C   UNL     1       6.324 -10.745   2.506  0.00  0.00    +0.000 A 
ATOM     23  C   UNL     1       6.025 -12.098   2.680  0.00  0.00    +0.000 A 
ATOM     24  C   UNL     1       6.298 -12.679   3.905  0.00  0.00    +0.000 A 
ATOM     25  N   UNL     1       6.834 -12.009   4.942  0.00  0.00    +0.000 NA
ATOM     26  C   UNL     1       7.101 -10.693   4.743  0.00  0.00    +0.000 A 
ENDBRANCH  19  21
ENDBRANCH  14  15
ENDBRANCH   5  14
TORSDOF 4
