REMARK  Name = 
REMARK  6 active torsions:
REMARK  status: ('A' for Active; 'I' for Inactive)
REMARK    1  A    between atoms: C_1  and  C_2
REMARK    2  A    between atoms: C_2  and  C_3
REMARK    3  A    between atoms: C_2  and  C_4
REMARK    4  A    between atoms: C_2  and  C_5
REMARK    5  A    between atoms: N_7  and  C_8
REMARK    6  A    between atoms: C_8  and  C_9
REMARK                            x       y       z     vdW  Elec       q    Type
REMARK                         _______ _______ _______ _____ _____    ______ ____
ROOT
ATOM      1  C   UNL     1       2.922  -0.119  -1.313  0.00  0.00    +0.000 A 
ATOM      2  C   UNL     1       3.224   0.974  -2.110  0.00  0.00    +0.000 A 
ATOM      3  N   UNL     1       3.653   0.541  -3.336  0.00  0.00    +0.000 N 
ATOM      4  C   UNL     1       3.620  -0.833  -3.385  0.00  0.00    +0.000 A 
ATOM      5  C   UNL     1       3.947  -1.714  -4.417  0.00  0.00    +0.000 A 
ATOM      6  N   UNL     1       3.833  -3.045  -4.219  0.00  0.00    +0.000 NA
ATOM      7  C   UNL     1       3.375  -3.486  -3.032  0.00  0.00    +0.000 A 
ATOM      8  C   UNL     1       3.014  -2.668  -1.971  0.00  0.00    +0.000 A 
ATOM      9  C   UNL     1       3.153  -1.280  -2.143  0.00  0.00    +0.000 A 
ENDROOT
BRANCH   1  11
ATOM     10  C   UNL     1       0.874  -0.145   0.142  0.00  0.00    +0.000 C 
ATOM     11  C   UNL     1       2.412  -0.040   0.130  0.00  0.00    +0.000 C 
ATOM     12  C   UNL     1       2.807   1.307   0.786  0.00  0.00    +0.000 C 
ATOM     13  C   UNL     1       3.000  -1.147   1.026  0.00  0.00    +0.000 C 
ENDBRANCH   1  11
BRANCH   3  14
ATOM     14  C   UNL     1       4.102   1.428  -4.404  0.00  0.00    +0.000 C 
BRANCH  14  15
ATOM     15  C   UNL     1       3.002   1.694  -5.399  0.00  0.00    +0.000 A 
ATOM     16  C   UNL     1       1.848   2.383  -5.026  0.00  0.00    +0.000 A 
ATOM     17  C   UNL     1       0.841   2.575  -5.966  0.00  0.00    +0.000 A 
ATOM     18  C   UNL     1       1.013   2.089  -7.256  0.00  0.00    +0.000 A 
ATOM     19  C   UNL     1       2.196   1.435  -7.554  0.00  0.00    +0.000 A 
ATOM     20  N   UNL     1       3.191   1.231  -6.662  0.00  0.00    +0.000 NA
ENDBRANCH  14  15
ENDBRANCH   3  14
TORSDOF 3
