REMARK  Name = 
REMARK  9 active torsions:
REMARK  status: ('A' for Active; 'I' for Inactive)
REMARK    1  A    between atoms: C_1  and  O_2
REMARK    2  A    between atoms: O_2  and  C_3
REMARK    3  A    between atoms: C_10  and  C_11
REMARK    4  A    between atoms: N_13  and  C_14
REMARK    5  A    between atoms: C_14  and  C_15
REMARK    6  A    between atoms: C_18  and  N_19
REMARK    7  A    between atoms: N_19  and  C_20
REMARK    8  A    between atoms: C_20  and  C_21
REMARK    9  A    between atoms: C_20  and  C_22
REMARK                            x       y       z     vdW  Elec       q    Type
REMARK                         _______ _______ _______ _____ _____    ______ ____
ROOT
ATOM      1  C   UNL     1       2.864   0.330  -3.483  0.00  0.00    +0.000 C 
ENDROOT
BRANCH   1   2
ATOM      2  C   UNL     1       1.664  -0.577  -3.378  0.00  0.00    +0.000 A 
ATOM      3  C   UNL     1       1.805  -1.966  -3.488  0.00  0.00    +0.000 A 
ATOM      4  C   UNL     1       0.708  -2.819  -3.295  0.00  0.00    +0.000 A 
ATOM      5  C   UNL     1      -0.552  -2.311  -2.975  0.00  0.00    +0.000 A 
ATOM      6  C   UNL     1      -0.709  -0.919  -2.971  0.00  0.00    +0.000 A 
ATOM      7  C   UNL     1       0.383  -0.059  -3.162  0.00  0.00    +0.000 A 
BRANCH   5   8
ATOM      8  N   UNL     1      -1.658  -3.107  -2.686  0.00  0.00    +0.000 N 
ATOM      9  H   UNL     1      -2.370  -3.095  -3.407  0.00  0.00    +0.000 HD
BRANCH   8  10
ATOM     10  C   UNL     1      -1.512  -4.373  -1.962  0.00  0.00    +0.000 C 
ATOM     11  C   UNL     1      -2.755  -4.572  -1.080  0.00  0.00    +0.000 C 
BRANCH  10  12
ATOM     12  C   UNL     1      -1.338  -5.600  -2.847  0.00  0.00    +0.000 A 
ATOM     13  C   UNL     1      -0.608  -6.693  -2.343  0.00  0.00    +0.000 A 
ATOM     14  C   UNL     1      -0.533  -7.898  -3.044  0.00  0.00    +0.000 A 
ATOM     15  C   UNL     1      -1.180  -8.029  -4.269  0.00  0.00    +0.000 A 
ATOM     16  C   UNL     1      -1.880  -6.948  -4.801  0.00  0.00    +0.000 A 
ATOM     17  C   UNL     1      -1.962  -5.743  -4.096  0.00  0.00    +0.000 A 
ENDBRANCH  10  12
ENDBRANCH   8  10
ENDBRANCH   5   8
ENDBRANCH   1   2
BRANCH   1  20
ATOM     18  C   UNL     1       4.216   1.469  -5.198  0.00  0.00    +0.000 C 
ATOM     19  O   UNL     1       4.997   1.897  -4.345  0.00  0.00    +0.000 OA
ATOM     20  N   UNL     1       3.139   0.699  -4.849  0.00  0.00    +0.000 N 
ATOM     21  H   UNL     1       2.462   0.432  -5.549  0.00  0.00    +0.000 HD
BRANCH  18  29
ATOM     22  C   UNL     1       2.505   0.561  -8.049  0.00  0.00    +0.000 A 
ATOM     23  N   UNL     1       2.091   0.296  -9.305  0.00  0.00    +0.000 NA
ATOM     24  C   UNL     1       2.800   0.785 -10.323  0.00  0.00    +0.000 A 
ATOM     25  N   UNL     1       3.895   1.532 -10.243  0.00  0.00    +0.000 NA
ATOM     26  C   UNL     1       4.283   1.766  -8.977  0.00  0.00    +0.000 A 
ATOM     27  S   UNL     1       5.654   2.723  -8.690  0.00  0.00    +0.000 S 
ATOM     28  C   UNL     1       5.495   2.534  -7.009  0.00  0.00    +0.000 A 
ATOM     29  C   UNL     1       4.415   1.745  -6.629  0.00  0.00    +0.000 A 
ATOM     30  C   UNL     1       3.670   1.313  -7.812  0.00  0.00    +0.000 A 
BRANCH  22  32
ATOM     31  C   UNL     1       0.547  -0.565  -7.433  0.00  0.00    +0.000 C 
ATOM     32  O   UNL     1       1.732   0.102  -7.001  0.00  0.00    +0.000 OA
ENDBRANCH  22  32
ENDBRANCH  18  29
ENDBRANCH   1  20
TORSDOF 7
