REMARK  Name = 
REMARK  4 active torsions:
REMARK  status: ('A' for Active; 'I' for Inactive)
REMARK    1  A    between atoms: C_2  and  C_4
REMARK    2  A    between atoms: C_7  and  N_8
REMARK    3  A    between atoms: N_8  and  C_9
REMARK    4  A    between atoms: C_9  and  C_10
REMARK                            x       y       z     vdW  Elec       q    Type
REMARK                         _______ _______ _______ _____ _____    ______ ____
ROOT
ATOM      1  C   UNL     1       2.727  -1.274  -0.956  0.00  0.00    +0.000 A 
ATOM      2  C   UNL     1       4.097  -1.224  -0.753  0.00  0.00    +0.000 A 
ATOM      3  C   UNL     1       4.911  -2.004  -1.572  0.00  0.00    +0.000 A 
ATOM      4  C   UNL     1       4.356  -2.783  -2.591  0.00  0.00    +0.000 A 
ATOM      5  C   UNL     1       2.962  -2.773  -2.691  0.00  0.00    +0.000 A 
ATOM      6  N   UNL     1       2.129  -2.049  -1.904  0.00  0.00    +0.000 NA
ENDROOT
BRANCH   1   8
ATOM      7  N   UNL     1       0.482  -0.614  -0.332  0.00  0.00    +0.000 N 
ATOM      8  C   UNL     1       1.820  -0.444  -0.103  0.00  0.00    +0.000 C 
ATOM      9  O   UNL     1       2.236   0.335   0.745  0.00  0.00    +0.000 OA
ATOM     10  H   UNL     1      -0.189  -0.092   0.212  0.00  0.00    +0.000 HD
ATOM     11  H   UNL     1       0.177  -1.274  -1.038  0.00  0.00    +0.000 HD
ENDBRANCH   1   8
BRANCH   4  12
ATOM     12  N   UNL     1       5.222  -3.515  -3.401  0.00  0.00    +0.000 N 
ATOM     13  H   UNL     1       5.690  -4.252  -2.874  0.00  0.00    +0.000 HD
BRANCH  12  14
ATOM     14  C   UNL     1       4.775  -3.963  -4.712  0.00  0.00    +0.000 C 
BRANCH  14  15
ATOM     15  C   UNL     1       5.984  -4.281  -5.559  0.00  0.00    +0.000 A 
ATOM     16  C   UNL     1       6.126  -5.529  -6.179  0.00  0.00    +0.000 A 
ATOM     17  C   UNL     1       7.236  -5.787  -6.982  0.00  0.00    +0.000 A 
ATOM     18  F   UNL     1       7.352  -6.984  -7.569  0.00  0.00    +0.000 F 
ATOM     19  C   UNL     1       8.216  -4.827  -7.190  0.00  0.00    +0.000 A 
ATOM     20  C   UNL     1       8.078  -3.593  -6.575  0.00  0.00    +0.000 A 
ATOM     21  F   UNL     1       9.011  -2.651  -6.768  0.00  0.00    +0.000 F 
ATOM     22  C   UNL     1       6.976  -3.309  -5.774  0.00  0.00    +0.000 A 
ENDBRANCH  14  15
ENDBRANCH  12  14
ENDBRANCH   4  12
TORSDOF 4
