REMARK  Name = 
REMARK  2 active torsions:
REMARK  status: ('A' for Active; 'I' for Inactive)
REMARK    1  A    between atoms: C_7  and  C_8
REMARK    2  A    between atoms: C_8  and  N_9
REMARK                            x       y       z     vdW  Elec       q    Type
REMARK                         _______ _______ _______ _____ _____    ______ ____
ROOT
ATOM      1  N   UNL     1       0.894  -0.459  -0.005  0.00  0.00    +0.000 NA
ATOM      2  C   UNL     1       2.132  -0.108  -0.016  0.00  0.00    +0.000 C 
ATOM      3  N   UNL     1       2.673   0.486  -1.102  0.00  0.00    +0.000 N 
ATOM      4  N   UNL     1       3.007  -0.348   1.007  0.00  0.00    +0.000 N 
ATOM      5  C   UNL     1       4.143   0.529   1.304  0.00  0.00    +0.000 C 
ATOM      6  C   UNL     1       5.339  -0.347   1.659  0.00  0.00    +0.000 C 
ATOM      7  C   UNL     1       5.047  -1.230   2.885  0.00  0.00    +0.000 C 
ATOM      8  C   UNL     1       3.751  -2.027   2.637  0.00  0.00    +0.000 C 
ATOM      9  C   UNL     1       2.581  -1.161   2.153  0.00  0.00    +0.000 C 
ATOM     10  H   UNL     1       0.451  -0.167  -0.875  0.00  0.00    +0.000 HD
ATOM     11  H   UNL     1       2.122   0.413  -1.947  0.00  0.00    +0.000 HD
ATOM     12  H   UNL     1       3.623   0.183  -1.271  0.00  0.00    +0.000 HD
ENDROOT
BRANCH   7  13
ATOM     13  C   UNL     1       4.975  -0.434   4.208  0.00  0.00    +0.000 C 
BRANCH  13  14
ATOM     14  N   UNL     1       6.189   0.316   4.513  0.00  0.00    +0.000 N 
ATOM     15  C   UNL     1       7.415  -0.270   4.716  0.00  0.00    +0.000 A 
ATOM     16  C   UNL     1       8.344   0.730   4.876  0.00  0.00    +0.000 A 
ATOM     17  C   UNL     1       7.658   1.971   4.815  0.00  0.00    +0.000 A 
ATOM     18  C   UNL     1       8.078   3.313   4.912  0.00  0.00    +0.000 A 
ATOM     19  C   UNL     1       7.131   4.338   4.842  0.00  0.00    +0.000 A 
ATOM     20  C   UNL     1       5.781   4.041   4.689  0.00  0.00    +0.000 A 
ATOM     21  C   UNL     1       5.340   2.717   4.578  0.00  0.00    +0.000 A 
ATOM     22  C   UNL     1       6.300   1.689   4.626  0.00  0.00    +0.000 A 
ENDBRANCH  13  14
ENDBRANCH   7  13
TORSDOF 2
