REMARK  Name = 
REMARK  6 active torsions:
REMARK  status: ('A' for Active; 'I' for Inactive)
REMARK    1  A    between atoms: C_5  and  C_6
REMARK    2  A    between atoms: C_6  and  N_7
REMARK    3  A    between atoms: N_7  and  C_8
REMARK    4  A    between atoms: C_12  and  C_13
REMARK    5  A    between atoms: C_19  and  C_20
REMARK    6  A    between atoms: C_24  and  C_25
REMARK                            x       y       z     vdW  Elec       q    Type
REMARK                         _______ _______ _______ _____ _____    ______ ____
ROOT
ATOM      1  F   UNL     1       2.197   0.024  -0.032  0.00  0.00    +0.000 F 
ATOM      2  C   UNL     1       0.856   0.001   0.004  0.00  0.00    +0.000 A 
ATOM      3  C   UNL     1       0.196   1.229   0.005  0.00  0.00    +0.000 A 
ATOM      4  C   UNL     1      -1.196   1.273   0.022  0.00  0.00    +0.000 A 
ATOM      5  C   UNL     1      -1.935   0.085   0.052  0.00  0.00    +0.000 A 
ATOM      6  C   UNL     1      -1.249  -1.146   0.048  0.00  0.00    +0.000 A 
ATOM      7  C   UNL     1       0.161  -1.222   0.032  0.00  0.00    +0.000 A 
ENDROOT
BRANCH   7   8
ATOM      8  C   UNL     1       0.859  -2.533   0.063  0.00  0.00    +0.000 A 
ATOM      9  C   UNL     1       0.318  -3.667  -0.557  0.00  0.00    +0.000 A 
ATOM     10  C   UNL     1       0.987  -4.879  -0.478  0.00  0.00    +0.000 A 
ATOM     11  N   UNL     1       2.161  -5.047   0.159  0.00  0.00    +0.000 NA
ATOM     12  C   UNL     1       2.712  -3.956   0.758  0.00  0.00    +0.000 A 
ATOM     13  C   UNL     1       2.083  -2.706   0.731  0.00  0.00    +0.000 A 
BRANCH  12  14
ATOM     14  C   UNL     1       4.045  -4.086   1.483  0.00  0.00    +0.000 C 
ATOM     15  F   UNL     1       4.568  -5.345   1.482  0.00  0.00    +0.000 F 
ATOM     16  F   UNL     1       5.012  -3.284   0.948  0.00  0.00    +0.000 F 
ATOM     17  F   UNL     1       3.959  -3.723   2.797  0.00  0.00    +0.000 F 
ENDBRANCH  12  14
ENDBRANCH   7   8
BRANCH   5  18
ATOM     18  C   UNL     1      -3.448   0.126   0.091  0.00  0.00    +0.000 C 
BRANCH  18  19
ATOM     19  N   UNL     1      -3.979   0.125  -1.267  0.00  0.00    +0.000 N 
ATOM     20  H   UNL     1      -3.529  -0.578  -1.849  0.00  0.00    +0.000 HD
BRANCH  19  21
ATOM     21  C   UNL     1      -5.368   0.148  -1.444  0.00  0.00    +0.000 A 
ATOM     22  C   UNL     1      -5.955  -0.413  -2.584  0.00  0.00    +0.000 A 
ATOM     23  N   UNL     1      -7.278  -0.392  -2.878  0.00  0.00    +0.000 NA
ATOM     24  C   UNL     1      -8.081   0.267  -2.017  0.00  0.00    +0.000 A 
ATOM     25  C   UNL     1      -7.619   0.907  -0.879  0.00  0.00    +0.000 A 
ATOM     26  C   UNL     1      -6.242   0.842  -0.603  0.00  0.00    +0.000 A 
BRANCH  25  27
ATOM     27  C   UNL     1      -8.558   1.654   0.013  0.00  0.00    +0.000 C 
ATOM     28  F   UNL     1      -9.849   1.647  -0.418  0.00  0.00    +0.000 F 
ATOM     29  F   UNL     1      -8.585   1.150   1.278  0.00  0.00    +0.000 F 
ATOM     30  F   UNL     1      -8.217   2.967   0.146  0.00  0.00    +0.000 F 
ENDBRANCH  25  27
ENDBRANCH  19  21
ENDBRANCH  18  19
ENDBRANCH   5  18
TORSDOF 6
