REMARK  Name = 
REMARK  4 active torsions:
REMARK  status: ('A' for Active; 'I' for Inactive)
REMARK    1  A    between atoms: C_2  and  C_4
REMARK    2  A    between atoms: N_8  and  C_9
REMARK    3  A    between atoms: C_9  and  C_10
REMARK    4  A    between atoms: C_14  and  C_15
REMARK                            x       y       z     vdW  Elec       q    Type
REMARK                         _______ _______ _______ _____ _____    ______ ____
ROOT
ATOM      1  C   UNL     1       5.009   5.182   2.890  0.00  0.00    +0.000 C 
ENDROOT
BRANCH   1   6
ATOM      2  C   UNL     1       2.550   1.670   0.153  0.00  0.00    +0.000 A 
ATOM      3  C   UNL     1       2.161   2.349   1.301  0.00  0.00    +0.000 A 
ATOM      4  C   UNL     1       2.958   3.387   1.782  0.00  0.00    +0.000 A 
ATOM      5  C   UNL     1       4.141   3.722   1.125  0.00  0.00    +0.000 A 
ATOM      6  N   UNL     1       4.917   4.810   1.488  0.00  0.00    +0.000 N 
ATOM      7  N   UNL     1       4.543   3.047   0.030  0.00  0.00    +0.000 NA
ATOM      8  C   UNL     1       3.753   2.036  -0.431  0.00  0.00    +0.000 A 
ATOM      9  H   UNL     1       5.810   4.745   1.004  0.00  0.00    +0.000 HD
BRANCH   2  11
ATOM     10  N   UNL     1       0.381   0.660  -0.245  0.00  0.00    +0.000 N 
ATOM     11  C   UNL     1       1.735   0.594  -0.445  0.00  0.00    +0.000 C 
ATOM     12  O   UNL     1       2.235  -0.292  -1.115  0.00  0.00    +0.000 OA
ATOM     13  H   UNL     1      -0.183  -0.024  -0.737  0.00  0.00    +0.000 HD
ATOM     14  H   UNL     1      -0.084   1.500   0.073  0.00  0.00    +0.000 HD
ENDBRANCH   2  11
ENDBRANCH   1   6
BRANCH   1  15
ATOM     15  C   UNL     1       5.931   6.369   3.099  0.00  0.00    +0.000 A 
ATOM     16  C   UNL     1       5.435   7.664   2.970  0.00  0.00    +0.000 A 
ATOM     17  C   UNL     1       6.277   8.733   3.239  0.00  0.00    +0.000 A 
ATOM     18  C   UNL     1       7.591   8.482   3.617  0.00  0.00    +0.000 A 
ATOM     19  C   UNL     1       8.037   7.164   3.717  0.00  0.00    +0.000 A 
ATOM     20  N   UNL     1       7.219   6.113   3.450  0.00  0.00    +0.000 NA
BRANCH  19  21
ATOM     21  C   UNL     1       9.416   6.828   4.126  0.00  0.00    +0.000 A 
ATOM     22  C   UNL     1      10.135   7.641   5.027  0.00  0.00    +0.000 A 
ATOM     23  C   UNL     1      11.451   7.341   5.385  0.00  0.00    +0.000 A 
ATOM     24  C   UNL     1      12.064   6.213   4.853  0.00  0.00    +0.000 A 
ATOM     25  F   UNL     1      13.327   5.932   5.189  0.00  0.00    +0.000 F 
ATOM     26  C   UNL     1      11.380   5.379   3.980  0.00  0.00    +0.000 A 
ATOM     27  C   UNL     1      10.063   5.683   3.623  0.00  0.00    +0.000 A 
ENDBRANCH  19  21
ENDBRANCH   1  15
TORSDOF 4
