REMARK  Name = 
REMARK  8 active torsions:
REMARK  status: ('A' for Active; 'I' for Inactive)
REMARK    1  A    between atoms: C_1  and  C_2
REMARK    2  A    between atoms: N_4  and  C_5
REMARK    3  A    between atoms: C_7  and  C_8
REMARK    4  A    between atoms: C_8  and  C_9
REMARK    5  A    between atoms: C_9  and  N_10
REMARK    6  A    between atoms: C_14  and  C_15
REMARK    7  A    between atoms: C_21  and  C_22
REMARK    8  A    between atoms: C_28  and  C_29
REMARK                            x       y       z     vdW  Elec       q    Type
REMARK                         _______ _______ _______ _____ _____    ______ ____
ROOT
ATOM      1  C   UNL     1       1.779   1.332  -3.319  0.00  0.00    +0.000 A 
ATOM      2  C   UNL     1       2.183   2.614  -3.727  0.00  0.00    +0.000 A 
ATOM      3  C   UNL     1       1.443   3.383  -4.636  0.00  0.00    +0.000 A 
ATOM      4  C   UNL     1       0.248   2.861  -5.137  0.00  0.00    +0.000 A 
ATOM      5  C   UNL     1      -0.200   1.595  -4.744  0.00  0.00    +0.000 A 
ATOM      6  C   UNL     1       0.563   0.856  -3.824  0.00  0.00    +0.000 A 
ENDROOT
BRANCH   1  10
ATOM      7  C   UNL     1       1.900  -2.410  -3.180  0.00  0.00    +0.000 C 
ATOM      8  C   UNL     1       2.582  -1.836  -1.940  0.00  0.00    +0.000 C 
ATOM      9  C   UNL     1       2.051  -0.438  -1.561  0.00  0.00    +0.000 C 
ATOM     10  N   UNL     1       2.571   0.592  -2.467  0.00  0.00    +0.000 N 
ATOM     11  C   UNL     1       4.033   0.557  -2.645  0.00  0.00    +0.000 C 
ATOM     12  C   UNL     1       4.498  -0.868  -3.015  0.00  0.00    +0.000 C 
ATOM     13  C   UNL     1       6.021  -0.937  -3.024  0.00  0.00    +0.000 C 
ATOM     14  O   UNL     1       4.017  -1.847  -2.076  0.00  0.00    +0.000 OA
ENDBRANCH   1  10
BRANCH   5  15
ATOM     15  C   UNL     1      -1.451   0.993  -5.332  0.00  0.00    +0.000 C 
ATOM     16  F   UNL     1      -2.063   1.801  -6.243  0.00  0.00    +0.000 F 
ATOM     17  F   UNL     1      -1.202  -0.176  -5.987  0.00  0.00    +0.000 F 
ATOM     18  F   UNL     1      -2.394   0.703  -4.395  0.00  0.00    +0.000 F 
ENDBRANCH   5  15
BRANCH   3  19
ATOM     19  C   UNL     1       1.969   4.712  -5.131  0.00  0.00    +0.000 C 
BRANCH  19  20
ATOM     20  C   UNL     1       2.819   4.517  -6.389  0.00  0.00    +0.000 C 
BRANCH  20  21
ATOM     21  N   UNL     1       3.325   5.779  -6.917  0.00  0.00    +0.000 N 
ATOM     22  C   UNL     1       4.090   5.708  -8.079  0.00  0.00    +0.000 A 
ATOM     23  C   UNL     1       3.898   4.739  -9.080  0.00  0.00    +0.000 A 
ATOM     24  N   UNL     1       4.635   4.640 -10.215  0.00  0.00    +0.000 NA
ATOM     25  C   UNL     1       5.579   5.607 -10.347  0.00  0.00    +0.000 A 
ATOM     26  C   UNL     1       5.765   6.594  -9.390  0.00  0.00    +0.000 A 
ATOM     27  N   UNL     1       5.033   6.657  -8.237  0.00  0.00    +0.000 NA
ATOM     28  H   UNL     1       3.814   6.392  -6.264  0.00  0.00    +0.000 HD
BRANCH  25  29
ATOM     29  C   UNL     1       6.422   5.574 -11.573  0.00  0.00    +0.000 C 
ATOM     30  N   UNL     1       6.192   4.546 -12.464  0.00  0.00    +0.000 N 
ATOM     31  O   UNL     1       7.283   6.408 -11.787  0.00  0.00    +0.000 OA
ATOM     32  H   UNL     1       5.470   3.854 -12.295  0.00  0.00    +0.000 HD
ATOM     33  H   UNL     1       6.739   4.509 -13.317  0.00  0.00    +0.000 HD
ENDBRANCH  25  29
ENDBRANCH  20  21
ENDBRANCH  19  20
ENDBRANCH   3  19
TORSDOF 6
