REMARK  Name = 
REMARK  6 active torsions:
REMARK  status: ('A' for Active; 'I' for Inactive)
REMARK    1  A    between atoms: C_1  and  O_2
REMARK    2  A    between atoms: O_2  and  C_3
REMARK    3  A    between atoms: C_5  and  C_6
REMARK    4  A    between atoms: C_6  and  N_7
REMARK    5  A    between atoms: N_7  and  C_8
REMARK    6  A    between atoms: C_11  and  C_12
REMARK                            x       y       z     vdW  Elec       q    Type
REMARK                         _______ _______ _______ _____ _____    ______ ____
ROOT
ATOM      1  N   UNL     1       3.441  -4.500   3.602  0.00  0.00    +0.000 N 
ATOM      2  H   UNL     1       2.908  -3.874   4.201  0.00  0.00    +0.000 HD
ENDROOT
BRANCH   1   3
ATOM      3  C   UNL     1       4.592  -5.003   4.232  0.00  0.00    +0.000 A 
ATOM      4  C   UNL     1       5.729  -5.469   3.568  0.00  0.00    +0.000 A 
ATOM      5  C   UNL     1       6.766  -6.074   4.291  0.00  0.00    +0.000 A 
ATOM      6  C   UNL     1       6.616  -6.222   5.663  0.00  0.00    +0.000 A 
ATOM      7  N   UNL     1       5.531  -5.786   6.353  0.00  0.00    +0.000 NA
ATOM      8  C   UNL     1       4.562  -5.199   5.617  0.00  0.00    +0.000 A 
BRANCH   6   9
ATOM      9  C   UNL     1       7.648  -6.939   6.476  0.00  0.00    +0.000 C 
ATOM     10  N   UNL     1       7.345  -7.061   7.810  0.00  0.00    +0.000 N 
ATOM     11  O   UNL     1       8.674  -7.399   5.997  0.00  0.00    +0.000 OA
ATOM     12  H   UNL     1       6.460  -6.697   8.148  0.00  0.00    +0.000 HD
ATOM     13  H   UNL     1       7.953  -7.585   8.421  0.00  0.00    +0.000 HD
ENDBRANCH   6   9
ENDBRANCH   1   3
BRANCH   1  14
ATOM     14  C   UNL     1       3.261  -4.301   2.156  0.00  0.00    +0.000 C 
ATOM     15  C   UNL     1       3.138  -5.497   1.236  0.00  0.00    +0.000 C 
ATOM     16  C   UNL     1       1.907  -4.737   1.608  0.00  0.00    +0.000 C 
BRANCH  14  19
ATOM     17  C   UNL     1       3.831  -0.556   1.705  0.00  0.00    +0.000 A 
ATOM     18  C   UNL     1       3.241  -1.755   2.076  0.00  0.00    +0.000 A 
ATOM     19  C   UNL     1       3.807  -2.970   1.656  0.00  0.00    +0.000 A 
ATOM     20  C   UNL     1       4.931  -2.885   0.826  0.00  0.00    +0.000 A 
ATOM     21  C   UNL     1       5.444  -1.639   0.494  0.00  0.00    +0.000 A 
ATOM     22  N   UNL     1       4.923  -0.473   0.922  0.00  0.00    +0.000 NA
BRANCH  17  24
ATOM     23  C   UNL     1       3.993   1.768   1.892  0.00  0.00    +0.000 C 
ATOM     24  O   UNL     1       3.245   0.594   2.197  0.00  0.00    +0.000 OA
ENDBRANCH  17  24
ENDBRANCH  14  19
ENDBRANCH   1  14
TORSDOF 5
