REMARK  Name = 
REMARK  7 active torsions:
REMARK  status: ('A' for Active; 'I' for Inactive)
REMARK    1  A    between atoms: C_2  and  C_4
REMARK    2  A    between atoms: C_7  and  O_8
REMARK    3  A    between atoms: O_8  and  C_9
REMARK    4  A    between atoms: C_9  and  C_10
REMARK    5  A    between atoms: C_10  and  C_13
REMARK    6  A    between atoms: C_17  and  C_18
REMARK    7  A    between atoms: C_21  and  C_22
REMARK                            x       y       z     vdW  Elec       q    Type
REMARK                         _______ _______ _______ _____ _____    ______ ____
ROOT
ATOM      1  C   UNL     1       5.945  -4.162  -5.755  0.00  0.00    +0.000 C 
ATOM      2  F   UNL     1       7.127  -4.818  -5.542  0.00  0.00    +0.000 F 
ATOM      3  F   UNL     1       5.024  -4.827  -4.991  0.00  0.00    +0.000 F 
ENDROOT
BRANCH   1   4
ATOM      4  C   UNL     1       5.549  -4.210  -7.230  0.00  0.00    +0.000 A 
ATOM      5  C   UNL     1       5.427  -5.462  -7.850  0.00  0.00    +0.000 A 
ATOM      6  C   UNL     1       5.021  -5.559  -9.180  0.00  0.00    +0.000 A 
ATOM      7  C   UNL     1       4.703  -4.407  -9.903  0.00  0.00    +0.000 A 
ATOM      8  C   UNL     1       4.788  -3.134  -9.319  0.00  0.00    +0.000 A 
ATOM      9  C   UNL     1       5.250  -3.060  -7.992  0.00  0.00    +0.000 A 
BRANCH   8  10
ATOM     10  C   UNL     1       4.357  -1.914 -10.033  0.00  0.00    +0.000 A 
ATOM     11  C   UNL     1       3.272  -1.915 -10.908  0.00  0.00    +0.000 A 
ATOM     12  C   UNL     1       2.890  -0.730 -11.531  0.00  0.00    +0.000 A 
ATOM     13  C   UNL     1       3.591   0.447 -11.270  0.00  0.00    +0.000 A 
ATOM     14  C   UNL     1       4.644   0.372 -10.371  0.00  0.00    +0.000 A 
ATOM     15  N   UNL     1       5.034  -0.771  -9.752  0.00  0.00    +0.000 NA
BRANCH  13  16
ATOM     16  C   UNL     1       3.245   1.749 -11.922  0.00  0.00    +0.000 C 
ATOM     17  F   UNL     1       2.205   1.654 -12.797  0.00  0.00    +0.000 F 
ATOM     18  F   UNL     1       2.889   2.709 -11.025  0.00  0.00    +0.000 F 
ATOM     19  F   UNL     1       4.282   2.267 -12.635  0.00  0.00    +0.000 F 
ENDBRANCH  13  16
ENDBRANCH   8  10
ENDBRANCH   1   4
BRANCH   1  20
ATOM     20  C   UNL     1       6.078  -2.736  -5.210  0.00  0.00    +0.000 C 
BRANCH  20  21
ATOM     21  O   UNL     1       6.384  -2.681  -3.806  0.00  0.00    +0.000 OA
BRANCH  21  25
ATOM     22  C   UNL     1       6.737   1.227  -2.537  0.00  0.00    +0.000 A 
ATOM     23  C   UNL     1       6.887   0.185  -1.616  0.00  0.00    +0.000 A 
ATOM     24  C   UNL     1       6.752  -1.136  -2.049  0.00  0.00    +0.000 A 
ATOM     25  C   UNL     1       6.477  -1.364  -3.389  0.00  0.00    +0.000 A 
ATOM     26  N   UNL     1       6.308  -0.372  -4.293  0.00  0.00    +0.000 NA
ATOM     27  C   UNL     1       6.433   0.898  -3.849  0.00  0.00    +0.000 A 
BRANCH  22  29
ATOM     28  N   UNL     1       7.725   2.959  -1.156  0.00  0.00    +0.000 N 
ATOM     29  C   UNL     1       6.893   2.654  -2.195  0.00  0.00    +0.000 C 
ATOM     30  O   UNL     1       6.337   3.530  -2.844  0.00  0.00    +0.000 OA
ATOM     31  H   UNL     1       7.924   3.943  -1.022  0.00  0.00    +0.000 HD
ATOM     32  H   UNL     1       8.390   2.297  -0.783  0.00  0.00    +0.000 HD
ENDBRANCH  22  29
ENDBRANCH  21  25
ENDBRANCH  20  21
ENDBRANCH   1  20
TORSDOF 7
