REMARK  Name = 
REMARK  4 active torsions:
REMARK  status: ('A' for Active; 'I' for Inactive)
REMARK    1  A    between atoms: C_2  and  C_4
REMARK    2  A    between atoms: N_8  and  C_9
REMARK    3  A    between atoms: C_9  and  C_10
REMARK    4  A    between atoms: C_14  and  C_15
REMARK                            x       y       z     vdW  Elec       q    Type
REMARK                         _______ _______ _______ _____ _____    ______ ____
ROOT
ATOM      1  C   UNL     1       7.872  -2.755  -0.685  0.00  0.00    +0.000 A 
ATOM      2  C   UNL     1       7.089  -3.900  -0.571  0.00  0.00    +0.000 A 
ATOM      3  C   UNL     1       6.398  -4.137   0.617  0.00  0.00    +0.000 A 
ATOM      4  C   UNL     1       6.505  -3.237   1.673  0.00  0.00    +0.000 A 
ATOM      5  N   UNL     1       5.793  -3.340   2.842  0.00  0.00    +0.000 N 
ATOM      6  N   UNL     1       7.267  -2.130   1.576  0.00  0.00    +0.000 NA
ATOM      7  C   UNL     1       7.941  -1.915   0.415  0.00  0.00    +0.000 A 
ATOM      8  H   UNL     1       6.079  -2.593   3.468  0.00  0.00    +0.000 HD
ENDROOT
BRANCH   1  10
ATOM      9  N   UNL     1       8.172  -2.901  -3.095  0.00  0.00    +0.000 N 
ATOM     10  C   UNL     1       8.631  -2.405  -1.905  0.00  0.00    +0.000 C 
ATOM     11  O   UNL     1       9.605  -1.670  -1.862  0.00  0.00    +0.000 OA
ATOM     12  H   UNL     1       8.641  -2.569  -3.928  0.00  0.00    +0.000 HD
ATOM     13  H   UNL     1       7.245  -3.286  -3.206  0.00  0.00    +0.000 HD
ENDBRANCH   1  10
BRANCH   5  14
ATOM     14  C   UNL     1       5.456  -4.599   3.471  0.00  0.00    +0.000 C 
BRANCH  14  15
ATOM     15  C   UNL     1       6.543  -5.195   4.343  0.00  0.00    +0.000 A 
ATOM     16  C   UNL     1       7.494  -4.423   5.019  0.00  0.00    +0.000 A 
ATOM     17  C   UNL     1       8.396  -5.022   5.898  0.00  0.00    +0.000 A 
ATOM     18  C   UNL     1       8.341  -6.396   6.138  0.00  0.00    +0.000 A 
ATOM     19  C   UNL     1       7.377  -7.206   5.517  0.00  0.00    +0.000 A 
ATOM     20  C   UNL     1       6.503  -6.582   4.604  0.00  0.00    +0.000 A 
BRANCH  19  21
ATOM     21  C   UNL     1       7.222  -8.633   5.873  0.00  0.00    +0.000 A 
ATOM     22  C   UNL     1       7.395  -9.085   7.191  0.00  0.00    +0.000 A 
ATOM     23  C   UNL     1       7.169 -10.420   7.525  0.00  0.00    +0.000 A 
ATOM     24  C   UNL     1       6.771 -11.288   6.527  0.00  0.00    +0.000 A 
ATOM     25  N   UNL     1       6.606 -10.916   5.242  0.00  0.00    +0.000 NA
ATOM     26  C   UNL     1       6.838  -9.610   4.951  0.00  0.00    +0.000 A 
ENDBRANCH  19  21
ENDBRANCH  14  15
ENDBRANCH   5  14
TORSDOF 4
