REMARK  Name = 
REMARK  9 active torsions:
REMARK  status: ('A' for Active; 'I' for Inactive)
REMARK    1  A    between atoms: N_1  and  C_2
REMARK    2  A    between atoms: C_2  and  C_3
REMARK    3  A    between atoms: C_3  and  N_4
REMARK    4  A    between atoms: C_3  and  C_26
REMARK    5  A    between atoms: N_4  and  C_5
REMARK    6  A    between atoms: C_5  and  C_6
REMARK    7  A    between atoms: C_9  and  C_10
REMARK    8  A    between atoms: C_10  and  N_11
REMARK    9  A    between atoms: C_12  and  C_14
REMARK                            x       y       z     vdW  Elec       q    Type
REMARK                         _______ _______ _______ _____ _____    ______ ____
ROOT
ATOM      1  C   UNL     1       0.603   0.495  -3.780  0.00  0.00    +0.000 A 
ATOM      2  C   UNL     1       0.726   1.869  -3.955  0.00  0.00    +0.000 A 
ATOM      3  N   UNL     1       0.405   2.499  -5.110  0.00  0.00    +0.000 NA
ATOM      4  C   UNL     1      -0.036   1.697  -6.113  0.00  0.00    +0.000 A 
ATOM      5  C   UNL     1      -0.198   0.328  -5.927  0.00  0.00    +0.000 A 
ATOM      6  N   UNL     1       0.112  -0.300  -4.769  0.00  0.00    +0.000 NA
ENDROOT
BRANCH   1   7
ATOM      7  C   UNL     1       1.026  -0.153  -2.480  0.00  0.00    +0.000 C 
BRANCH   7   8
ATOM      8  N   UNL     1       2.081  -1.155  -2.707  0.00  0.00    +0.000 NA
ATOM      9  H   UNL     1       1.636  -1.890  -3.269  0.00  0.00    +0.000 HD
BRANCH   8  10
ATOM     10  C   UNL     1       2.544  -1.795  -1.454  0.00  0.00    +0.000 C 
BRANCH  10  11
ATOM     11  C   UNL     1       3.226  -0.821  -0.495  0.00  0.00    +0.000 A 
ATOM     12  C   UNL     1       4.549  -0.437  -0.721  0.00  0.00    +0.000 A 
ATOM     13  C   UNL     1       5.143   0.477   0.143  0.00  0.00    +0.000 A 
ATOM     14  C   UNL     1       4.403   0.997   1.198  0.00  0.00    +0.000 A 
ATOM     15  C   UNL     1       3.092   0.580   1.346  0.00  0.00    +0.000 A 
ATOM     16  N   UNL     1       2.490  -0.309   0.527  0.00  0.00    +0.000 NA
ENDBRANCH  10  11
BRANCH  10  17
ATOM     17  C   UNL     1       1.451  -2.645  -0.742  0.00  0.00    +0.000 C 
BRANCH  17  18
ATOM     18  N   UNL     1       0.819  -3.632  -1.635  0.00  0.00    +0.000 NA
ATOM     19  H   UNL     1       0.096  -4.126  -1.111  0.00  0.00    +0.000 HD
ATOM     20  H   UNL     1       1.508  -4.336  -1.897  0.00  0.00    +0.000 HD
ENDBRANCH  17  18
ENDBRANCH  10  17
ENDBRANCH   8  10
ENDBRANCH   7   8
ENDBRANCH   1   7
BRANCH   4  21
ATOM     21  C   UNL     1      -0.374   2.331  -7.433  0.00  0.00    +0.000 C 
BRANCH  21  22
ATOM     22  N   UNL     1      -1.760   2.735  -7.489  0.00  0.00    +0.000 N 
ATOM     23  C   UNL     1      -2.455   2.737  -8.669  0.00  0.00    +0.000 C 
ATOM     24  O   UNL     1      -1.972   2.299  -9.710  0.00  0.00    +0.000 OA
ATOM     25  H   UNL     1      -2.086   3.306  -6.713  0.00  0.00    +0.000 HD
BRANCH  23  26
ATOM     26  C   UNL     1      -3.836   3.223  -8.618  0.00  0.00    +0.000 A 
ATOM     27  C   UNL     1      -4.757   2.769  -9.552  0.00  0.00    +0.000 A 
ATOM     28  S   UNL     1      -6.320   3.414  -9.340  0.00  0.00    +0.000 S 
ATOM     29  C   UNL     1      -5.809   4.353  -8.013  0.00  0.00    +0.000 A 
ATOM     30  N   UNL     1      -6.677   5.181  -7.373  0.00  0.00    +0.000 NA
ATOM     31  C   UNL     1      -6.150   5.858  -6.407  0.00  0.00    +0.000 A 
ATOM     32  N   UNL     1      -4.836   5.776  -6.022  0.00  0.00    +0.000 N 
ATOM     33  C   UNL     1      -3.933   4.929  -6.620  0.00  0.00    +0.000 A 
ATOM     34  O   UNL     1      -2.779   4.835  -6.219  0.00  0.00    +0.000 OA
ATOM     35  C   UNL     1      -4.471   4.161  -7.726  0.00  0.00    +0.000 A 
ATOM     36  H   UNL     1      -4.488   6.323  -5.248  0.00  0.00    +0.000 HD
ENDBRANCH  23  26
ENDBRANCH  21  22
ENDBRANCH   4  21
TORSDOF 9
