REMARK  Name = 
REMARK  9 active torsions:
REMARK  status: ('A' for Active; 'I' for Inactive)
REMARK    1  A    between atoms: C_1  and  C_2
REMARK    2  A    between atoms: C_2  and  C_3
REMARK    3  A    between atoms: C_3  and  N_4
REMARK    4  A    between atoms: C_3  and  C_26
REMARK    5  A    between atoms: N_4  and  C_5
REMARK    6  A    between atoms: C_5  and  C_6
REMARK    7  A    between atoms: C_9  and  C_10
REMARK    8  A    between atoms: C_10  and  N_11
REMARK    9  A    between atoms: C_12  and  C_14
REMARK                            x       y       z     vdW  Elec       q    Type
REMARK                         _______ _______ _______ _____ _____    ______ ____
ROOT
ATOM      1  C   UNL     1       0.561  -0.151  -3.904  0.00  0.00    +0.000 A 
ATOM      2  C   UNL     1      -0.054  -1.083  -4.753  0.00  0.00    +0.000 A 
ATOM      3  C   UNL     1      -0.501  -0.705  -6.022  0.00  0.00    +0.000 A 
ATOM      4  C   UNL     1      -0.342   0.614  -6.467  0.00  0.00    +0.000 A 
ATOM      5  C   UNL     1       0.228   1.556  -5.602  0.00  0.00    +0.000 A 
ATOM      6  C   UNL     1       0.682   1.176  -4.339  0.00  0.00    +0.000 A 
ENDROOT
BRANCH   1   7
ATOM      7  C   UNL     1       1.022  -0.531  -2.514  0.00  0.00    +0.000 C 
BRANCH   7   8
ATOM      8  N   UNL     1       1.987  -1.633  -2.536  0.00  0.00    +0.000 NA
ATOM      9  H   UNL     1       1.557  -2.445  -2.970  0.00  0.00    +0.000 HD
BRANCH   8  10
ATOM     10  C   UNL     1       2.460  -2.010  -1.185  0.00  0.00    +0.000 C 
BRANCH  10  11
ATOM     11  C   UNL     1       3.260  -0.890  -0.503  0.00  0.00    +0.000 A 
ATOM     12  C   UNL     1       4.372  -0.339  -1.143  0.00  0.00    +0.000 A 
ATOM     13  C   UNL     1       5.066   0.698  -0.520  0.00  0.00    +0.000 A 
ATOM     14  C   UNL     1       4.643   1.154   0.722  0.00  0.00    +0.000 A 
ATOM     15  C   UNL     1       3.533   0.557   1.289  0.00  0.00    +0.000 A 
ATOM     16  N   UNL     1       2.836  -0.443   0.707  0.00  0.00    +0.000 NA
ENDBRANCH  10  11
BRANCH  10  18
ATOM     17  C   UNL     1       0.560  -3.735  -0.844  0.00  0.00    +0.000 C 
ATOM     18  C   UNL     1       1.348  -2.571  -0.260  0.00  0.00    +0.000 C 
ENDBRANCH  10  18
ENDBRANCH   8  10
ENDBRANCH   7   8
ENDBRANCH   1   7
BRANCH   4  19
ATOM     19  C   UNL     1      -0.842   1.038  -7.821  0.00  0.00    +0.000 C 
BRANCH  19  20
ATOM     20  N   UNL     1      -2.215   1.456  -7.733  0.00  0.00    +0.000 N 
ATOM     21  C   UNL     1      -2.934   1.820  -8.839  0.00  0.00    +0.000 C 
ATOM     22  O   UNL     1      -2.465   1.769  -9.972  0.00  0.00    +0.000 OA
ATOM     23  H   UNL     1      -2.541   1.734  -6.813  0.00  0.00    +0.000 HD
BRANCH  21  24
ATOM     24  C   UNL     1      -4.329   2.205  -8.596  0.00  0.00    +0.000 A 
ATOM     25  C   UNL     1      -5.258   2.116  -9.622  0.00  0.00    +0.000 A 
ATOM     26  S   UNL     1      -6.848   2.500  -9.137  0.00  0.00    +0.000 S 
ATOM     27  C   UNL     1      -6.339   2.854  -7.554  0.00  0.00    +0.000 A 
ATOM     28  N   UNL     1      -7.230   3.253  -6.605  0.00  0.00    +0.000 NA
ATOM     29  C   UNL     1      -6.702   3.511  -5.454  0.00  0.00    +0.000 A 
ATOM     30  N   UNL     1      -5.365   3.415  -5.167  0.00  0.00    +0.000 N 
ATOM     31  C   UNL     1      -4.433   3.007  -6.090  0.00  0.00    +0.000 A 
ATOM     32  O   UNL     1      -3.244   2.915  -5.797  0.00  0.00    +0.000 OA
ATOM     33  C   UNL     1      -4.975   2.688  -7.399  0.00  0.00    +0.000 A 
ATOM     34  H   UNL     1      -5.011   3.639  -4.248  0.00  0.00    +0.000 HD
ENDBRANCH  21  24
ENDBRANCH  19  20
ENDBRANCH   4  19
TORSDOF 8
