REMARK  Name = 
REMARK  7 active torsions:
REMARK  status: ('A' for Active; 'I' for Inactive)
REMARK    1  A    between atoms: C_2  and  C_4
REMARK    2  A    between atoms: C_7  and  N_8
REMARK    3  A    between atoms: N_8  and  C_9
REMARK    4  A    between atoms: C_9  and  C_10
REMARK    5  A    between atoms: C_10  and  C_11
REMARK    6  A    between atoms: C_15  and  O_16
REMARK    7  A    between atoms: O_16  and  C_17
REMARK                            x       y       z     vdW  Elec       q    Type
REMARK                         _______ _______ _______ _____ _____    ______ ____
ROOT
ATOM      1  N   UNL     1       5.324   4.765  -1.486  0.00  0.00    +0.000 N 
ATOM      2  H   UNL     1       5.594   4.697  -2.465  0.00  0.00    +0.000 HD
ENDROOT
BRANCH   1   6
ATOM      3  C   UNL     1       3.425   1.255  -0.075  0.00  0.00    +0.000 A 
ATOM      4  C   UNL     1       2.965   2.504   0.343  0.00  0.00    +0.000 A 
ATOM      5  C   UNL     1       3.579   3.668  -0.127  0.00  0.00    +0.000 A 
ATOM      6  C   UNL     1       4.637   3.622  -1.047  0.00  0.00    +0.000 A 
ATOM      7  C   UNL     1       5.107   2.359  -1.433  0.00  0.00    +0.000 A 
ATOM      8  C   UNL     1       4.511   1.185  -0.951  0.00  0.00    +0.000 A 
BRANCH   3  10
ATOM      9  N   UNL     1       1.496   0.051   0.792  0.00  0.00    +0.000 N 
ATOM     10  C   UNL     1       2.813  -0.003   0.425  0.00  0.00    +0.000 C 
ATOM     11  O   UNL     1       3.440  -1.053   0.478  0.00  0.00    +0.000 OA
ATOM     12  H   UNL     1       1.062  -0.830   1.034  0.00  0.00    +0.000 HD
ATOM     13  H   UNL     1       0.892   0.821   0.542  0.00  0.00    +0.000 HD
ENDBRANCH   3  10
ENDBRANCH   1   6
BRANCH   1  14
ATOM     14  C   UNL     1       4.838   6.080  -1.066  0.00  0.00    +0.000 C 
BRANCH  14  15
ATOM     15  C   UNL     1       5.673   7.227  -1.644  0.00  0.00    +0.000 C 
BRANCH  15  16
ATOM     16  C   UNL     1       5.174   8.553  -1.109  0.00  0.00    +0.000 A 
ATOM     17  C   UNL     1       4.148   9.244  -1.767  0.00  0.00    +0.000 A 
ATOM     18  C   UNL     1       3.625  10.419  -1.223  0.00  0.00    +0.000 A 
ATOM     19  C   UNL     1       4.117  10.917  -0.016  0.00  0.00    +0.000 A 
ATOM     20  C   UNL     1       5.139  10.240   0.647  0.00  0.00    +0.000 A 
ATOM     21  C   UNL     1       5.661   9.061   0.106  0.00  0.00    +0.000 A 
BRANCH  20  22
ATOM     22  O   UNL     1       5.599  10.606   1.887  0.00  0.00    +0.000 OA
BRANCH  22  23
ATOM     23  C   UNL     1       5.847  12.016   2.067  0.00  0.00    +0.000 C 
ATOM     24  C   UNL     1       5.977  12.425   3.514  0.00  0.00    +0.000 C 
ATOM     25  C   UNL     1       4.776  12.844   2.725  0.00  0.00    +0.000 C 
ENDBRANCH  22  23
ENDBRANCH  20  22
ENDBRANCH  15  16
ENDBRANCH  14  15
ENDBRANCH   1  14
TORSDOF 7
