REMARK  Name = 
REMARK  7 active torsions:
REMARK  status: ('A' for Active; 'I' for Inactive)
REMARK    1  A    between atoms: C_1  and  C_2
REMARK    2  A    between atoms: C_2  and  C_3
REMARK    3  A    between atoms: C_7  and  C_8
REMARK    4  A    between atoms: C_8  and  O_9
REMARK    5  A    between atoms: C_8  and  C_10
REMARK    6  A    between atoms: C_10  and  N_11
REMARK    7  A    between atoms: C_15  and  C_16
REMARK                            x       y       z     vdW  Elec       q    Type
REMARK                         _______ _______ _______ _____ _____    ______ ____
ROOT
ATOM      1  C   UNL     1       4.396   2.653  -3.827  0.00  0.00    +0.000 C 
ENDROOT
BRANCH   1   6
ATOM      2  C   UNL     1       3.003   0.043  -1.373  0.00  0.00    +0.000 A 
ATOM      3  C   UNL     1       2.696  -1.001  -2.267  0.00  0.00    +0.000 A 
ATOM      4  C   UNL     1       2.971  -0.898  -3.630  0.00  0.00    +0.000 A 
ATOM      5  C   UNL     1       3.547   0.262  -4.141  0.00  0.00    +0.000 A 
ATOM      6  C   UNL     1       3.878   1.325  -3.288  0.00  0.00    +0.000 A 
ATOM      7  C   UNL     1       3.627   1.186  -1.906  0.00  0.00    +0.000 A 
BRANCH   2   9
ATOM      8  C   UNL     1       1.019  -0.140   0.133  0.00  0.00    +0.000 C 
ATOM      9  C   UNL     1       2.559  -0.068   0.097  0.00  0.00    +0.000 C 
ATOM     10  C   UNL     1       3.204  -1.273   0.791  0.00  0.00    +0.000 C 
ATOM     11  C   UNL     1       4.433  -0.708   1.490  0.00  0.00    +0.000 C 
ATOM     12  O   UNL     1       4.351   0.720   1.443  0.00  0.00    +0.000 OA
ATOM     13  C   UNL     1       3.021   1.055   1.039  0.00  0.00    +0.000 C 
ENDBRANCH   2   9
ENDBRANCH   1   6
BRANCH   1  14
ATOM     14  O   UNL     1       5.577   2.483  -4.626  0.00  0.00    +0.000 OA
ATOM     15  H   UNL     1       5.548   1.598  -5.021  0.00  0.00    +0.000 HD
ENDBRANCH   1  14
BRANCH   1  16
ATOM     16  C   UNL     1       3.308   3.360  -4.671  0.00  0.00    +0.000 C 
BRANCH  16  17
ATOM     17  N   UNL     1       3.776   4.668  -5.160  0.00  0.00    +0.000 N 
ATOM     18  C   UNL     1       2.837   5.316  -5.980  0.00  0.00    +0.000 A 
ATOM     19  C   UNL     1       3.159   6.558  -6.517  0.00  0.00    +0.000 A 
ATOM     20  C   UNL     1       2.217   7.241  -7.296  0.00  0.00    +0.000 A 
ATOM     21  C   UNL     1       0.974   6.658  -7.523  0.00  0.00    +0.000 A 
ATOM     22  C   UNL     1       0.736   5.414  -6.964  0.00  0.00    +0.000 A 
ATOM     23  N   UNL     1       1.630   4.751  -6.192  0.00  0.00    +0.000 NA
ATOM     24  H   UNL     1       4.670   4.571  -5.647  0.00  0.00    +0.000 HD
BRANCH  21  25
ATOM     25  C   UNL     1      -0.086   7.285  -8.344  0.00  0.00    +0.000 C 
ATOM     26  N   UNL     1      -0.076   8.653  -8.435  0.00  0.00    +0.000 N 
ATOM     27  O   UNL     1      -0.945   6.620  -8.899  0.00  0.00    +0.000 OA
ATOM     28  H   UNL     1       0.476   9.242  -7.832  0.00  0.00    +0.000 HD
ATOM     29  H   UNL     1      -0.850   9.077  -8.929  0.00  0.00    +0.000 HD
ENDBRANCH  21  25
ENDBRANCH  16  17
ENDBRANCH   1  16
TORSDOF 6
