REMARK  Name = 
REMARK  5 active torsions:
REMARK  status: ('A' for Active; 'I' for Inactive)
REMARK    1  A    between atoms: C_1  and  C_2
REMARK    2  A    between atoms: C_4  and  C_5
REMARK    3  A    between atoms: N_10  and  C_11
REMARK    4  A    between atoms: C_11  and  C_12
REMARK    5  A    between atoms: C_16  and  C_17
REMARK                            x       y       z     vdW  Elec       q    Type
REMARK                         _______ _______ _______ _____ _____    ______ ____
ROOT
ATOM      1  C   UNL     1       2.976   2.556  -0.142  0.00  0.00    +0.000 C 
ATOM      2  C   UNL     1       3.983   2.038  -1.166  0.00  0.00    +0.000 C 
ATOM      3  C   UNL     1       4.025   1.525   0.234  0.00  0.00    +0.000 C 
ENDROOT
BRANCH   1  10
ATOM      4  C   UNL     1      -2.907   1.678   0.991  0.00  0.00    +0.000 C 
ATOM      5  C   UNL     1      -1.462   1.361   1.229  0.00  0.00    +0.000 A 
ATOM      6  C   UNL     1      -1.070   0.555   2.267  0.00  0.00    +0.000 A 
ATOM      7  C   UNL     1       0.287   0.356   2.373  0.00  0.00    +0.000 A 
ATOM      8  N   UNL     1       1.212   0.899   1.546  0.00  0.00    +0.000 NA
ATOM      9  C   UNL     1       0.736   1.659   0.557  0.00  0.00    +0.000 A 
ATOM     10  N   UNL     1       1.578   2.207  -0.410  0.00  0.00    +0.000 N 
ATOM     11  N   UNL     1      -0.572   1.910   0.374  0.00  0.00    +0.000 NA
ATOM     12  H   UNL     1       1.014   2.864  -0.939  0.00  0.00    +0.000 HD
BRANCH   7  13
ATOM     13  C   UNL     1       0.810  -0.538   3.450  0.00  0.00    +0.000 C 
ATOM     14  N   UNL     1       2.167  -0.717   3.458  0.00  0.00    +0.000 N 
ATOM     15  O   UNL     1       0.080  -1.090   4.265  0.00  0.00    +0.000 OA
ATOM     16  H   UNL     1       2.735  -0.272   2.746  0.00  0.00    +0.000 HD
ATOM     17  H   UNL     1       2.586  -1.341   4.133  0.00  0.00    +0.000 HD
ENDBRANCH   7  13
ENDBRANCH   1  10
BRANCH   1  18
ATOM     18  C   UNL     1       3.187   3.961   0.416  0.00  0.00    +0.000 A 
ATOM     19  C   UNL     1       3.089   4.218   1.791  0.00  0.00    +0.000 A 
ATOM     20  C   UNL     1       3.426   5.465   2.315  0.00  0.00    +0.000 A 
ATOM     21  C   UNL     1       3.875   6.481   1.469  0.00  0.00    +0.000 A 
ATOM     22  C   UNL     1       3.970   6.283   0.082  0.00  0.00    +0.000 A 
ATOM     23  C   UNL     1       3.577   5.027  -0.418  0.00  0.00    +0.000 A 
BRANCH  22  24
ATOM     24  C   UNL     1       4.539   7.310  -0.815  0.00  0.00    +0.000 A 
ATOM     25  C   UNL     1       4.076   7.513  -2.124  0.00  0.00    +0.000 A 
ATOM     26  C   UNL     1       4.685   8.453  -2.956  0.00  0.00    +0.000 A 
ATOM     27  C   UNL     1       5.746   9.185  -2.455  0.00  0.00    +0.000 A 
ATOM     28  N   UNL     1       6.230   9.038  -1.206  0.00  0.00    +0.000 NA
ATOM     29  C   UNL     1       5.621   8.106  -0.428  0.00  0.00    +0.000 A 
ENDBRANCH  22  24
ENDBRANCH   1  18
TORSDOF 4
