REMARK  Name = 
REMARK  6 active torsions:
REMARK  status: ('A' for Active; 'I' for Inactive)
REMARK    1  A    between atoms: C_2  and  C_25
REMARK    2  A    between atoms: N_3  and  C_4
REMARK    3  A    between atoms: C_4  and  C_5
REMARK    4  A    between atoms: C_8  and  C_9
REMARK    5  A    between atoms: C_9  and  N_10
REMARK    6  A    between atoms: C_11  and  C_13
REMARK                            x       y       z     vdW  Elec       q    Type
REMARK                         _______ _______ _______ _____ _____    ______ ____
ROOT
ATOM      1  C   UNL     1       3.237   1.086  -3.425  0.00  0.00    +0.000 A 
ATOM      2  C   UNL     1       3.372   2.432  -3.773  0.00  0.00    +0.000 A 
ATOM      3  C   UNL     1       4.247   2.802  -4.794  0.00  0.00    +0.000 A 
ATOM      4  C   UNL     1       5.001   1.816  -5.424  0.00  0.00    +0.000 A 
ATOM      5  N   UNL     1       4.894   0.503  -5.096  0.00  0.00    +0.000 NA
ATOM      6  C   UNL     1       4.021   0.171  -4.117  0.00  0.00    +0.000 A 
ENDROOT
BRANCH   1   7
ATOM      7  C   UNL     1       2.293   0.640  -2.347  0.00  0.00    +0.000 C 
BRANCH   7  10
ATOM      8  O   UNL     1       1.014   0.017   0.051  0.00  0.00    +0.000 OA
ATOM      9  C   UNL     1       2.216   0.272   0.078  0.00  0.00    +0.000 C 
ATOM     10  N   UNL     1       2.929   0.592  -1.053  0.00  0.00    +0.000 N 
ATOM     11  H   UNL     1       3.939   0.638  -1.009  0.00  0.00    +0.000 HD
BRANCH   9  12
ATOM     12  C   UNL     1       2.981   0.241   1.296  0.00  0.00    +0.000 A 
ATOM     13  C   UNL     1       4.281   0.603   1.589  0.00  0.00    +0.000 A 
ATOM     14  N   UNL     1       4.570   0.403   2.914  0.00  0.00    +0.000 NA
ATOM     15  C   UNL     1       3.465  -0.068   3.440  0.00  0.00    +0.000 A 
ATOM     16  N   UNL     1       2.476  -0.178   2.506  0.00  0.00    +0.000 N 
ATOM     17  H   UNL     1       1.532  -0.509   2.663  0.00  0.00    +0.000 HD
ENDBRANCH   9  12
ENDBRANCH   7  10
ENDBRANCH   1   7
BRANCH   4  18
ATOM     18  C   UNL     1       5.973   2.184  -6.520  0.00  0.00    +0.000 C 
BRANCH  18  19
ATOM     19  N   UNL     1       5.373   2.132  -7.833  0.00  0.00    +0.000 N 
ATOM     20  C   UNL     1       4.894   3.241  -8.476  0.00  0.00    +0.000 C 
ATOM     21  O   UNL     1       4.929   4.359  -7.967  0.00  0.00    +0.000 OA
ATOM     22  H   UNL     1       5.112   1.206  -8.159  0.00  0.00    +0.000 HD
BRANCH  20  23
ATOM     23  C   UNL     1       4.404   3.035  -9.846  0.00  0.00    +0.000 A 
ATOM     24  C   UNL     1       4.401   4.094 -10.744  0.00  0.00    +0.000 A 
ATOM     25  S   UNL     1       3.845   3.668 -12.300  0.00  0.00    +0.000 S 
ATOM     26  C   UNL     1       3.543   2.067 -11.815  0.00  0.00    +0.000 A 
ATOM     27  N   UNL     1       3.019   1.159 -12.681  0.00  0.00    +0.000 NA
ATOM     28  C   UNL     1       2.815  -0.010 -12.169  0.00  0.00    +0.000 A 
ATOM     29  N   UNL     1       3.096  -0.357 -10.875  0.00  0.00    +0.000 N 
ATOM     30  C   UNL     1       3.675   0.511  -9.983  0.00  0.00    +0.000 A 
ATOM     31  O   UNL     1       4.002   0.141  -8.860  0.00  0.00    +0.000 OA
ATOM     32  C   UNL     1       3.892   1.851 -10.493  0.00  0.00    +0.000 A 
ATOM     33  H   UNL     1       2.935  -1.295 -10.542  0.00  0.00    +0.000 HD
ENDBRANCH  20  23
ENDBRANCH  18  19
ENDBRANCH   4  18
TORSDOF 6
