REMARK  Name = 
REMARK  8 active torsions:
REMARK  status: ('A' for Active; 'I' for Inactive)
REMARK    1  A    between atoms: C_1  and  O_2
REMARK    2  A    between atoms: O_2  and  C_3
REMARK    3  A    between atoms: C_5  and  C_6
REMARK    4  A    between atoms: C_11  and  O_12
REMARK    5  A    between atoms: O_12  and  C_13
REMARK    6  A    between atoms: C_13  and  C_14
REMARK    7  A    between atoms: C_18  and  C_19
REMARK    8  A    between atoms: C_24  and  C_25
REMARK                            x       y       z     vdW  Elec       q    Type
REMARK                         _______ _______ _______ _____ _____    ______ ____
ROOT
ATOM      1  O   UNL     1       4.454  -1.774   0.634  0.00  0.00    +0.000 OA
ENDROOT
BRANCH   1   7
ATOM      2  C   UNL     1       3.058  -0.417  -0.942  0.00  0.00    +0.000 A 
ATOM      3  C   UNL     1       2.917   0.001  -2.274  0.00  0.00    +0.000 A 
ATOM      4  C   UNL     1       3.823  -0.395  -3.270  0.00  0.00    +0.000 A 
ATOM      5  C   UNL     1       4.893  -1.219  -2.921  0.00  0.00    +0.000 A 
ATOM      6  C   UNL     1       5.041  -1.641  -1.595  0.00  0.00    +0.000 A 
ATOM      7  C   UNL     1       4.136  -1.251  -0.596  0.00  0.00    +0.000 A 
BRANCH   4   8
ATOM      8  C   UNL     1       3.582   0.109  -4.655  0.00  0.00    +0.000 C 
ATOM      9  N   UNL     1       4.443  -0.253  -5.650  0.00  0.00    +0.000 N 
ATOM     10  O   UNL     1       2.627   0.837  -4.911  0.00  0.00    +0.000 OA
ATOM     11  H   UNL     1       5.248  -0.849  -5.541  0.00  0.00    +0.000 HD
ATOM     12  H   UNL     1       4.241   0.108  -6.572  0.00  0.00    +0.000 HD
ENDBRANCH   4   8
BRANCH   2  14
ATOM     13  C   UNL     1       0.919   0.468  -0.339  0.00  0.00    +0.000 C 
ATOM     14  O   UNL     1       2.208   0.004   0.045  0.00  0.00    +0.000 OA
ENDBRANCH   2  14
ENDBRANCH   1   7
BRANCH   1  15
ATOM     15  C   UNL     1       3.585  -1.489   1.733  0.00  0.00    +0.000 C 
BRANCH  15  16
ATOM     16  C   UNL     1       4.050  -2.136   3.022  0.00  0.00    +0.000 A 
ATOM     17  C   UNL     1       5.388  -2.410   3.270  0.00  0.00    +0.000 A 
ATOM     18  C   UNL     1       5.739  -2.944   4.504  0.00  0.00    +0.000 A 
ATOM     19  C   UNL     1       4.750  -3.185   5.457  0.00  0.00    +0.000 A 
ATOM     20  C   UNL     1       3.424  -2.877   5.162  0.00  0.00    +0.000 A 
ATOM     21  N   UNL     1       3.090  -2.346   3.961  0.00  0.00    +0.000 NA
BRANCH  20  22
ATOM     22  C   UNL     1       2.310  -3.043   6.135  0.00  0.00    +0.000 A 
ATOM     23  C   UNL     1       2.541  -2.812   7.511  0.00  0.00    +0.000 A 
ATOM     24  C   UNL     1       1.523  -2.910   8.464  0.00  0.00    +0.000 A 
ATOM     25  C   UNL     1       0.231  -3.217   8.066  0.00  0.00    +0.000 A 
ATOM     26  C   UNL     1      -0.035  -3.459   6.722  0.00  0.00    +0.000 A 
ATOM     27  C   UNL     1       0.989  -3.402   5.754  0.00  0.00    +0.000 A 
ATOM     28  C   UNL     1       0.624  -3.768   4.336  0.00  0.00    +0.000 C 
ENDBRANCH  20  22
ENDBRANCH  15  16
ENDBRANCH   1  15
TORSDOF 6
