REMARK  Name = 
REMARK  7 active torsions:
REMARK  status: ('A' for Active; 'I' for Inactive)
REMARK    1  A    between atoms: N_1  and  C_2
REMARK    2  A    between atoms: C_2  and  C_3
REMARK    3  A    between atoms: C_7  and  O_8
REMARK    4  A    between atoms: O_8  and  C_9
REMARK    5  A    between atoms: C_9  and  C_10
REMARK    6  A    between atoms: C_10  and  C_11
REMARK    7  A    between atoms: C_15  and  C_16
REMARK                            x       y       z     vdW  Elec       q    Type
REMARK                         _______ _______ _______ _____ _____    ______ ____
ROOT
ATOM      1  C   UNL     1       3.413  -2.734   5.392  0.00  0.00    +0.000 C 
ENDROOT
BRANCH   1   2
ATOM      2  O   UNL     1       3.410  -2.711   3.958  0.00  0.00    +0.000 OA
BRANCH   2   7
ATOM      3  C   UNL     1       3.740  -0.181   1.332  0.00  0.00    +0.000 A 
ATOM      4  C   UNL     1       3.995   0.976   2.082  0.00  0.00    +0.000 A 
ATOM      5  C   UNL     1       4.084   0.912   3.468  0.00  0.00    +0.000 A 
ATOM      6  C   UNL     1       3.903  -0.306   4.122  0.00  0.00    +0.000 A 
ATOM      7  C   UNL     1       3.634  -1.474   3.397  0.00  0.00    +0.000 A 
ATOM      8  C   UNL     1       3.569  -1.406   2.003  0.00  0.00    +0.000 A 
BRANCH   3   9
ATOM      9  C   UNL     1       3.608  -0.091  -0.168  0.00  0.00    +0.000 C 
BRANCH   9  10
ATOM     10  N   UNL     1       4.804   0.476  -0.782  0.00  0.00    +0.000 NA
ATOM     11  H   UNL     1       4.727   0.399  -1.793  0.00  0.00    +0.000 HD
ATOM     12  H   UNL     1       5.608  -0.088  -0.510  0.00  0.00    +0.000 HD
ENDBRANCH   9  10
ENDBRANCH   3   9
ENDBRANCH   2   7
ENDBRANCH   1   2
BRANCH   1  13
ATOM     13  C   UNL     1       3.113  -4.135   5.922  0.00  0.00    +0.000 C 
BRANCH  13  14
ATOM     14  C   UNL     1       3.117  -4.171   7.434  0.00  0.00    +0.000 A 
ATOM     15  C   UNL     1       1.950  -3.921   8.163  0.00  0.00    +0.000 A 
ATOM     16  C   UNL     1       1.998  -3.953   9.553  0.00  0.00    +0.000 A 
ATOM     17  N   UNL     1       3.117  -4.206  10.265  0.00  0.00    +0.000 NA
ATOM     18  C   UNL     1       4.247  -4.436   9.539  0.00  0.00    +0.000 A 
ATOM     19  C   UNL     1       4.294  -4.425   8.147  0.00  0.00    +0.000 A 
BRANCH  18  20
ATOM     20  C   UNL     1       5.500  -4.725  10.316  0.00  0.00    +0.000 C 
ATOM     21  N   UNL     1       5.370  -4.725  11.679  0.00  0.00    +0.000 N 
ATOM     22  O   UNL     1       6.574  -4.945   9.772  0.00  0.00    +0.000 OA
ATOM     23  H   UNL     1       4.462  -4.559  12.097  0.00  0.00    +0.000 HD
ATOM     24  H   UNL     1       6.173  -4.932  12.255  0.00  0.00    +0.000 HD
ENDBRANCH  18  20
ENDBRANCH  13  14
ENDBRANCH   1  13
TORSDOF 7
