REMARK  Name = 
REMARK  7 active torsions:
REMARK  status: ('A' for Active; 'I' for Inactive)
REMARK    1  A    between atoms: C_2  and  C_4
REMARK    2  A    between atoms: C_7  and  N_8
REMARK    3  A    between atoms: N_8  and  C_9
REMARK    4  A    between atoms: C_9  and  C_10
REMARK    5  A    between atoms: C_10  and  C_13
REMARK    6  A    between atoms: C_17  and  O_18
REMARK    7  A    between atoms: O_18  and  C_19
REMARK                            x       y       z     vdW  Elec       q    Type
REMARK                         _______ _______ _______ _____ _____    ______ ____
ROOT
ATOM      1  C   UNL     1       4.977  -3.058  -5.312  0.00  0.00    +0.000 C 
ENDROOT
BRANCH   1   2
ATOM      2  C   UNL     1       5.885  -4.019  -6.123  0.00  0.00    +0.000 C 
ATOM      3  F   UNL     1       7.177  -3.583  -6.054  0.00  0.00    +0.000 F 
ATOM      4  F   UNL     1       5.881  -5.237  -5.498  0.00  0.00    +0.000 F 
BRANCH   2   5
ATOM      5  C   UNL     1       5.388  -4.106  -7.552  0.00  0.00    +0.000 A 
ATOM      6  C   UNL     1       4.443  -5.070  -7.926  0.00  0.00    +0.000 A 
ATOM      7  C   UNL     1       3.927  -5.086  -9.222  0.00  0.00    +0.000 A 
ATOM      8  C   UNL     1       4.351  -4.143 -10.166  0.00  0.00    +0.000 A 
ATOM      9  C   UNL     1       5.308  -3.196  -9.811  0.00  0.00    +0.000 A 
ATOM     10  C   UNL     1       5.819  -3.176  -8.510  0.00  0.00    +0.000 A 
BRANCH   9  11
ATOM     11  O   UNL     1       5.783  -2.204 -10.631  0.00  0.00    +0.000 OA
BRANCH  11  12
ATOM     12  C   UNL     1       5.702  -2.374 -12.064  0.00  0.00    +0.000 C 
ATOM     13  C   UNL     1       6.592  -3.435 -12.723  0.00  0.00    +0.000 C 
ATOM     14  O   UNL     1       7.227  -2.454 -13.575  0.00  0.00    +0.000 OA
ATOM     15  C   UNL     1       6.550  -1.384 -12.878  0.00  0.00    +0.000 C 
ENDBRANCH  11  12
ENDBRANCH   9  11
ENDBRANCH   2   5
ENDBRANCH   1   2
BRANCH   1  16
ATOM     16  N   UNL     1       5.358  -2.950  -3.894  0.00  0.00    +0.000 N 
ATOM     17  H   UNL     1       5.699  -3.817  -3.482  0.00  0.00    +0.000 HD
BRANCH  16  21
ATOM     18  C   UNL     1       3.392  -0.397  -1.173  0.00  0.00    +0.000 A 
ATOM     19  C   UNL     1       2.929  -0.486  -2.487  0.00  0.00    +0.000 A 
ATOM     20  C   UNL     1       3.561  -1.343  -3.397  0.00  0.00    +0.000 A 
ATOM     21  C   UNL     1       4.641  -2.147  -3.012  0.00  0.00    +0.000 A 
ATOM     22  C   UNL     1       5.105  -2.028  -1.694  0.00  0.00    +0.000 A 
ATOM     23  C   UNL     1       4.495  -1.159  -0.783  0.00  0.00    +0.000 A 
BRANCH  18  25
ATOM     24  N   UNL     1       1.438   0.799  -0.355  0.00  0.00    +0.000 N 
ATOM     25  C   UNL     1       2.766   0.516  -0.182  0.00  0.00    +0.000 C 
ATOM     26  O   UNL     1       3.389   0.965   0.767  0.00  0.00    +0.000 OA
ATOM     27  H   UNL     1       0.996   1.325   0.387  0.00  0.00    +0.000 HD
ATOM     28  H   UNL     1       0.842   0.248  -0.958  0.00  0.00    +0.000 HD
ENDBRANCH  18  25
ENDBRANCH  16  21
ENDBRANCH   1  16
TORSDOF 7
