REMARK  Name = 
REMARK  10 active torsions:
REMARK  status: ('A' for Active; 'I' for Inactive)
REMARK    1  A    between atoms: C_1  and  C_2
REMARK    2  A    between atoms: C_2  and  C_3
REMARK    3  A    between atoms: C_2  and  C_4
REMARK    4  A    between atoms: C_2  and  C_5
REMARK    5  A    between atoms: C_8  and  C_9
REMARK    6  A    between atoms: C_9  and  N_10
REMARK    7  A    between atoms: C_15  and  C_16
REMARK    8  A    between atoms: C_16  and  C_17
REMARK    9  A    between atoms: C_17  and  C_18
REMARK   10  A    between atoms: C_18  and  N_19
REMARK                            x       y       z     vdW  Elec       q    Type
REMARK                         _______ _______ _______ _____ _____    ______ ____
ROOT
ATOM      1  N   UNL     1       4.615   2.654   5.942  0.00  0.00    +0.000 N 
ATOM      2  C   UNL     1       5.810   2.196   6.450  0.00  0.00    +0.000 A 
ATOM      3  C   UNL     1       6.628   3.301   6.529  0.00  0.00    +0.000 A 
ATOM      4  C   UNL     1       5.722   4.334   6.863  0.00  0.00    +0.000 A 
ATOM      5  C   UNL     1       5.778   5.490   7.662  0.00  0.00    +0.000 A 
ATOM      6  C   UNL     1       4.629   6.292   7.765  0.00  0.00    +0.000 A 
ATOM      7  C   UNL     1       3.572   6.085   6.868  0.00  0.00    +0.000 A 
ATOM      8  C   UNL     1       3.496   4.934   6.077  0.00  0.00    +0.000 A 
ATOM      9  C   UNL     1       4.522   4.002   6.231  0.00  0.00    +0.000 A 
ENDROOT
BRANCH   1  10
ATOM     10  C   UNL     1       3.521   1.783   5.530  0.00  0.00    +0.000 C 
BRANCH  10  14
ATOM     11  C   UNL     1       3.249   1.146   1.217  0.00  0.00    +0.000 A 
ATOM     12  C   UNL     1       4.390   0.770   1.930  0.00  0.00    +0.000 A 
ATOM     13  C   UNL     1       4.490   0.985   3.318  0.00  0.00    +0.000 A 
ATOM     14  C   UNL     1       3.452   1.589   4.033  0.00  0.00    +0.000 A 
ATOM     15  C   UNL     1       2.298   1.944   3.332  0.00  0.00    +0.000 A 
ATOM     16  C   UNL     1       2.197   1.720   1.951  0.00  0.00    +0.000 A 
BRANCH  11  18
ATOM     17  C   UNL     1       4.398   0.438  -0.990  0.00  0.00    +0.000 C 
ATOM     18  C   UNL     1       3.125   1.007  -0.318  0.00  0.00    +0.000 C 
ATOM     19  C   UNL     1       2.860   2.387  -0.935  0.00  0.00    +0.000 C 
ATOM     20  C   UNL     1       1.961   0.055  -0.674  0.00  0.00    +0.000 C 
ENDBRANCH  11  18
ENDBRANCH  10  14
ENDBRANCH   1  10
BRANCH   6  21
ATOM     21  C   UNL     1       4.515   7.314   8.872  0.00  0.00    +0.000 C 
BRANCH  21  22
ATOM     22  C   UNL     1       3.230   7.183   9.716  0.00  0.00    +0.000 C 
BRANCH  22  23
ATOM     23  C   UNL     1       3.072   5.824  10.408  0.00  0.00    +0.000 C 
BRANCH  23  24
ATOM     24  N   UNL     1       1.837   5.801  11.193  0.00  0.00    +0.000 NA
ATOM     25  H   UNL     1       1.882   6.506  11.927  0.00  0.00    +0.000 HD
ATOM     26  H   UNL     1       1.754   4.900  11.665  0.00  0.00    +0.000 HD
ENDBRANCH  23  24
ENDBRANCH  22  23
ENDBRANCH  21  22
ENDBRANCH   6  21
TORSDOF 7
