REMARK  Name = 
REMARK  9 active torsions:
REMARK  status: ('A' for Active; 'I' for Inactive)
REMARK    1  A    between atoms: C_1  and  C_2
REMARK    2  A    between atoms: C_2  and  N_3
REMARK    3  A    between atoms: C_2  and  C_20
REMARK    4  A    between atoms: N_3  and  C_4
REMARK    5  A    between atoms: C_4  and  C_5
REMARK    6  A    between atoms: C_8  and  C_9
REMARK    7  A    between atoms: C_9  and  N_10
REMARK    8  A    between atoms: N_10  and  C_11
REMARK    9  A    between atoms: C_11  and  C_12
REMARK                            x       y       z     vdW  Elec       q    Type
REMARK                         _______ _______ _______ _____ _____    ______ ____
ROOT
ATOM      1  C   UNL     1      -1.146  -0.677   0.564  0.00  0.00    +0.000 C 
ENDROOT
BRANCH   1   2
ATOM      2  C   UNL     1      -0.882   0.717   1.169  0.00  0.00    +0.000 C 
ATOM      3  C   UNL     1      -1.537   1.850   0.358  0.00  0.00    +0.000 C 
ATOM      4  C   UNL     1      -3.065   1.784   0.387  0.00  0.00    +0.000 C 
ATOM      5  C   UNL     1      -3.612   1.766   1.826  0.00  0.00    +0.000 C 
ATOM      6  C   UNL     1      -2.917   0.702   2.698  0.00  0.00    +0.000 C 
ATOM      7  C   UNL     1      -1.394   0.773   2.613  0.00  0.00    +0.000 C 
BRANCH   5   8
ATOM      8  C   UNL     1      -5.142   1.563   1.816  0.00  0.00    +0.000 C 
BRANCH   8   9
ATOM      9  N   UNL     1      -5.654   1.586   3.185  0.00  0.00    +0.000 NA
ATOM     10  H   UNL     1      -5.435   2.479   3.624  0.00  0.00    +0.000 HD
BRANCH   9  11
ATOM     11  C   UNL     1      -7.091   1.353   3.246  0.00  0.00    +0.000 C 
BRANCH  11  12
ATOM     12  C   UNL     1      -7.562   1.311   4.680  0.00  0.00    +0.000 A 
ATOM     13  C   UNL     1      -8.497   2.230   5.162  0.00  0.00    +0.000 A 
ATOM     14  C   UNL     1      -8.916   2.124   6.480  0.00  0.00    +0.000 A 
ATOM     15  N   UNL     1      -8.470   1.185   7.341  0.00  0.00    +0.000 NA
ATOM     16  C   UNL     1      -7.558   0.313   6.861  0.00  0.00    +0.000 A 
ATOM     17  C   UNL     1      -7.081   0.334   5.559  0.00  0.00    +0.000 A 
ENDBRANCH  11  12
ENDBRANCH   9  11
ENDBRANCH   8   9
ENDBRANCH   5   8
ENDBRANCH   1   2
BRANCH   1  18
ATOM     18  N   UNL     1      -0.635  -0.751  -0.799  0.00  0.00    +0.000 NA
ATOM     19  H   UNL     1       0.377  -0.621  -0.782  0.00  0.00    +0.000 HD
BRANCH  18  21
ATOM     20  C   UNL     1      -2.440  -2.300  -1.568  0.00  0.00    +0.000 C 
ATOM     21  C   UNL     1      -0.935  -2.022  -1.471  0.00  0.00    +0.000 C 
BRANCH  21  22
ATOM     22  C   UNL     1      -0.299  -1.954  -2.851  0.00  0.00    +0.000 A 
ATOM     23  C   UNL     1      -0.187  -0.808  -3.625  0.00  0.00    +0.000 A 
ATOM     24  S   UNL     1       0.639  -1.062  -5.098  0.00  0.00    +0.000 S 
ATOM     25  C   UNL     1       0.861  -2.715  -4.757  0.00  0.00    +0.000 A 
ATOM     26  N   UNL     1       1.537  -3.529  -5.612  0.00  0.00    +0.000 NA
ATOM     27  C   UNL     1       1.635  -4.753  -5.209  0.00  0.00    +0.000 A 
ATOM     28  N   UNL     1       1.108  -5.241  -4.040  0.00  0.00    +0.000 N 
ATOM     29  C   UNL     1       0.383  -4.466  -3.159  0.00  0.00    +0.000 A 
ATOM     30  O   UNL     1      -0.129  -4.943  -2.156  0.00  0.00    +0.000 OA
ATOM     31  C   UNL     1       0.289  -3.071  -3.548  0.00  0.00    +0.000 A 
ATOM     32  H   UNL     1       1.199  -6.216  -3.799  0.00  0.00    +0.000 HD
ENDBRANCH  21  22
ENDBRANCH  18  21
ENDBRANCH   1  18
TORSDOF 8
