REMARK  Name = 
REMARK  8 active torsions:
REMARK  status: ('A' for Active; 'I' for Inactive)
REMARK    1  A    between atoms: C_1  and  C_2
REMARK    2  A    between atoms: C_2  and  N_3
REMARK    3  A    between atoms: N_3  and  C_4
REMARK    4  A    between atoms: C_4  and  C_5
REMARK    5  A    between atoms: C_8  and  C_9
REMARK    6  A    between atoms: C_9  and  N_10
REMARK    7  A    between atoms: C_11  and  C_13
REMARK    8  A    between atoms: C_20  and  C_22
REMARK                            x       y       z     vdW  Elec       q    Type
REMARK                         _______ _______ _______ _____ _____    ______ ____
ROOT
ATOM      1  C   UNL     1       1.925  -0.580  -2.383  0.00  0.00    +0.000 C 
ENDROOT
BRANCH   1   2
ATOM      2  C   UNL     1       0.441  -0.454  -2.147  0.00  0.00    +0.000 A 
ATOM      3  C   UNL     1      -0.236   0.715  -2.534  0.00  0.00    +0.000 A 
ATOM      4  C   UNL     1      -1.631   0.761  -2.537  0.00  0.00    +0.000 A 
ATOM      5  C   UNL     1      -2.377  -0.355  -2.140  0.00  0.00    +0.000 A 
ATOM      6  C   UNL     1      -1.700  -1.502  -1.701  0.00  0.00    +0.000 A 
ATOM      7  C   UNL     1      -0.303  -1.548  -1.693  0.00  0.00    +0.000 A 
BRANCH   5   8
ATOM      8  C   UNL     1      -3.876  -0.363  -2.289  0.00  0.00    +0.000 C 
BRANCH   8   9
ATOM      9  N   UNL     1      -4.241  -0.839  -3.602  0.00  0.00    +0.000 N 
ATOM     10  C   UNL     1      -5.552  -1.016  -3.983  0.00  0.00    +0.000 C 
ATOM     11  O   UNL     1      -6.480  -0.765  -3.218  0.00  0.00    +0.000 OA
ATOM     12  H   UNL     1      -3.509  -1.030  -4.273  0.00  0.00    +0.000 HD
BRANCH  10  13
ATOM     13  C   UNL     1      -5.754  -1.514  -5.330  0.00  0.00    +0.000 A 
ATOM     14  C   UNL     1      -6.957  -1.747  -5.969  0.00  0.00    +0.000 A 
ATOM     15  N   UNL     1      -6.873  -2.237  -7.260  0.00  0.00    +0.000 NA
ATOM     16  C   UNL     1      -5.609  -2.371  -7.588  0.00  0.00    +0.000 A 
ATOM     17  S   UNL     1      -4.466  -1.922  -6.391  0.00  0.00    +0.000 S 
ENDBRANCH  10  13
ENDBRANCH   8   9
ENDBRANCH   5   8
ENDBRANCH   1   2
BRANCH   1  18
ATOM     18  N   UNL     1       2.873  -0.317  -1.304  0.00  0.00    +0.000 N 
ATOM     19  C   UNL     1       4.228  -0.700  -1.373  0.00  0.00    +0.000 C 
ATOM     20  O   UNL     1       5.010  -0.457  -0.455  0.00  0.00    +0.000 OA
BRANCH  19  21
ATOM     21  C   UNL     1       4.737  -1.362  -2.584  0.00  0.00    +0.000 A 
ATOM     22  C   UNL     1       4.549  -0.902  -3.878  0.00  0.00    +0.000 A 
ATOM     23  S   UNL     1       5.346  -1.840  -5.062  0.00  0.00    +0.000 S 
ATOM     24  C   UNL     1       6.087  -2.802  -3.872  0.00  0.00    +0.000 A 
ATOM     25  N   UNL     1       7.009  -3.744  -4.205  0.00  0.00    +0.000 NA
ATOM     26  C   UNL     1       7.541  -4.342  -3.191  0.00  0.00    +0.000 A 
ATOM     27  N   UNL     1       7.199  -4.117  -1.881  0.00  0.00    +0.000 N 
ATOM     28  C   UNL     1       6.175  -3.274  -1.508  0.00  0.00    +0.000 A 
ATOM     29  O   UNL     1       5.733  -3.277  -0.363  0.00  0.00    +0.000 OA
ATOM     30  C   UNL     1       5.646  -2.482  -2.602  0.00  0.00    +0.000 A 
ATOM     31  H   UNL     1       7.602  -4.672  -1.141  0.00  0.00    +0.000 HD
ENDBRANCH  19  21
BRANCH  18  33
ATOM     32  C   UNL     1       2.270  -0.395   1.100  0.00  0.00    +0.000 C 
ATOM     33  C   UNL     1       2.469   0.471  -0.136  0.00  0.00    +0.000 C 
ENDBRANCH  18  33
ENDBRANCH   1  18
TORSDOF 7
