REMARK  Name = 
REMARK  8 active torsions:
REMARK  status: ('A' for Active; 'I' for Inactive)
REMARK    1  A    between atoms: C_1  and  C_2
REMARK    2  A    between atoms: C_5  and  C_6
REMARK    3  A    between atoms: C_6  and  O_7
REMARK    4  A    between atoms: O_7  and  C_8
REMARK    5  A    between atoms: C_8  and  C_9
REMARK    6  A    between atoms: C_12  and  C_13
REMARK    7  A    between atoms: C_13  and  N_14
REMARK    8  A    between atoms: C_15  and  C_17
REMARK                            x       y       z     vdW  Elec       q    Type
REMARK                         _______ _______ _______ _____ _____    ______ ____
ROOT
ATOM      1  C   UNL     1      -9.082  -4.098   0.283  0.00  0.00    +0.000 C 
ENDROOT
BRANCH   1   5
ATOM      2  C   UNL     1      -6.250  -0.819   0.123  0.00  0.00    +0.000 A 
ATOM      3  C   UNL     1      -5.814  -2.146   0.004  0.00  0.00    +0.000 A 
ATOM      4  C   UNL     1      -6.723  -3.208   0.068  0.00  0.00    +0.000 A 
ATOM      5  C   UNL     1      -8.091  -2.964   0.241  0.00  0.00    +0.000 A 
ATOM      6  C   UNL     1      -8.524  -1.639   0.392  0.00  0.00    +0.000 A 
ATOM      7  C   UNL     1      -7.615  -0.578   0.326  0.00  0.00    +0.000 A 
BRANCH   2   8
ATOM      8  C   UNL     1      -5.265   0.322   0.048  0.00  0.00    +0.000 C 
BRANCH   8   9
ATOM      9  O   UNL     1      -4.602   0.279  -1.211  0.00  0.00    +0.000 OA
BRANCH   9  10
ATOM     10  C   UNL     1      -3.652   1.335  -1.351  0.00  0.00    +0.000 C 
BRANCH  10  15
ATOM     11  C   UNL     1      -0.600   2.075  -5.677  0.00  0.00    +0.000 C 
ATOM     12  C   UNL     1      -1.595   1.548  -4.700  0.00  0.00    +0.000 A 
ATOM     13  C   UNL     1      -2.433   0.463  -4.839  0.00  0.00    +0.000 A 
ATOM     14  C   UNL     1      -3.248   0.262  -3.690  0.00  0.00    +0.000 A 
ATOM     15  C   UNL     1      -3.013   1.197  -2.700  0.00  0.00    +0.000 A 
ATOM     16  S   UNL     1      -1.802   2.313  -3.183  0.00  0.00    +0.000 S 
ENDBRANCH  10  15
ENDBRANCH   9  10
ENDBRANCH   8   9
ENDBRANCH   2   8
ENDBRANCH   1   5
BRANCH   1  17
ATOM     17  N   UNL     1      -9.263  -4.597   1.622  0.00  0.00    +0.000 N 
ATOM     18  C   UNL     1     -10.085  -5.667   1.873  0.00  0.00    +0.000 C 
ATOM     19  O   UNL     1     -10.661  -6.270   0.971  0.00  0.00    +0.000 OA
ATOM     20  H   UNL     1      -8.985  -3.988   2.385  0.00  0.00    +0.000 HD
BRANCH  18  21
ATOM     21  C   UNL     1     -10.197  -6.099   3.272  0.00  0.00    +0.000 A 
ATOM     22  C   UNL     1     -10.566  -7.406   3.561  0.00  0.00    +0.000 A 
ATOM     23  S   UNL     1     -10.601  -7.755   5.230  0.00  0.00    +0.000 S 
ATOM     24  C   UNL     1     -10.172  -6.157   5.628  0.00  0.00    +0.000 A 
ATOM     25  N   UNL     1     -10.049  -5.768   6.925  0.00  0.00    +0.000 NA
ATOM     26  C   UNL     1      -9.746  -4.523   7.083  0.00  0.00    +0.000 A 
ATOM     27  N   UNL     1      -9.550  -3.632   6.060  0.00  0.00    +0.000 N 
ATOM     28  C   UNL     1      -9.636  -3.986   4.735  0.00  0.00    +0.000 A 
ATOM     29  O   UNL     1      -9.413  -3.171   3.843  0.00  0.00    +0.000 OA
ATOM     30  C   UNL     1      -9.986  -5.372   4.502  0.00  0.00    +0.000 A 
ATOM     31  H   UNL     1      -9.304  -2.673   6.251  0.00  0.00    +0.000 HD
ENDBRANCH  18  21
ENDBRANCH   1  17
TORSDOF 7
