REMARK  Name = 
REMARK  5 active torsions:
REMARK  status: ('A' for Active; 'I' for Inactive)
REMARK    1  A    between atoms: C_2  and  O_3
REMARK    2  A    between atoms: C_2  and  C_4
REMARK    3  A    between atoms: C_4  and  C_5
REMARK    4  A    between atoms: C_8  and  C_9
REMARK    5  A    between atoms: C_9  and  N_10
REMARK                            x       y       z     vdW  Elec       q    Type
REMARK                         _______ _______ _______ _____ _____    ______ ____
ROOT
ATOM      1  C   UNL     1       4.908  -0.045  -1.265  0.00  0.00    +0.000 A 
ATOM      2  C   UNL     1       5.694  -1.103  -1.685  0.00  0.00    +0.000 A 
ATOM      3  C   UNL     1       6.995  -1.279  -1.194  0.00  0.00    +0.000 A 
ATOM      4  C   UNL     1       7.526  -0.376  -0.263  0.00  0.00    +0.000 A 
ATOM      5  C   UNL     1       6.735   0.694   0.165  0.00  0.00    +0.000 A 
ATOM      6  C   UNL     1       5.429   0.853  -0.322  0.00  0.00    +0.000 A 
ENDROOT
BRANCH   1   7
ATOM      7  C   UNL     1       3.514   0.152  -1.817  0.00  0.00    +0.000 C 
BRANCH   7   9
ATOM      8  O   UNL     1       1.208  -0.338  -1.420  0.00  0.00    +0.000 OA
ATOM      9  C   UNL     1       2.378  -0.487  -1.065  0.00  0.00    +0.000 C 
BRANCH   9  10
ATOM     10  O   UNL     1       2.695  -1.246  -0.006  0.00  0.00    +0.000 OA
ATOM     11  H   UNL     1       3.643  -1.298   0.201  0.00  0.00    +0.000 HD
ENDBRANCH   9  10
ENDBRANCH   7   9
ENDBRANCH   1   7
BRANCH   4  12
ATOM     12  C   UNL     1       8.921  -0.577   0.287  0.00  0.00    +0.000 C 
BRANCH  12  13
ATOM     13  N   UNL     1       9.961   0.117  -0.475  0.00  0.00    +0.000 N 
ATOM     14  C   UNL     1      10.343  -0.245  -1.748  0.00  0.00    +0.000 A 
ATOM     15  C   UNL     1      11.330   0.633  -2.136  0.00  0.00    +0.000 A 
ATOM     16  C   UNL     1      11.901   1.098  -0.928  0.00  0.00    +0.000 A 
ATOM     17  C   UNL     1      13.165   1.606  -0.574  0.00  0.00    +0.000 A 
ATOM     18  C   UNL     1      13.376   2.028   0.741  0.00  0.00    +0.000 A 
ATOM     19  C   UNL     1      12.325   2.066   1.648  0.00  0.00    +0.000 A 
ATOM     20  C   UNL     1      11.062   1.547   1.322  0.00  0.00    +0.000 A 
ATOM     21  C   UNL     1      10.917   0.953   0.063  0.00  0.00    +0.000 A 
ENDBRANCH  12  13
ENDBRANCH   4  12
TORSDOF 5
