REMARK  Name = 
REMARK  7 active torsions:
REMARK  status: ('A' for Active; 'I' for Inactive)
REMARK    1  A    between atoms: N_1  and  C_2
REMARK    2  A    between atoms: C_2  and  C_3
REMARK    3  A    between atoms: C_6  and  C_7
REMARK    4  A    between atoms: C_7  and  C_8
REMARK    5  A    between atoms: C_8  and  C_9
REMARK    6  A    between atoms: C_9  and  C_10
REMARK    7  A    between atoms: C_13  and  C_14
REMARK                            x       y       z     vdW  Elec       q    Type
REMARK                         _______ _______ _______ _____ _____    ______ ____
ROOT
ATOM      1  C   UNL     1       4.464   1.818  -5.879  0.00  0.00    +0.000 C 
ENDROOT
BRANCH   1   2
ATOM      2  C   UNL     1       4.415   0.368  -5.389  0.00  0.00    +0.000 C 
BRANCH   2   6
ATOM      3  C   UNL     1       3.264   0.179  -1.285  0.00  0.00    +0.000 A 
ATOM      4  C   UNL     1       2.268   0.137  -2.258  0.00  0.00    +0.000 A 
ATOM      5  C   UNL     1       2.631   0.191  -3.602  0.00  0.00    +0.000 A 
ATOM      6  C   UNL     1       3.978   0.287  -3.951  0.00  0.00    +0.000 A 
ATOM      7  C   UNL     1       4.902   0.335  -2.912  0.00  0.00    +0.000 A 
ATOM      8  N   UNL     1       4.580   0.278  -1.599  0.00  0.00    +0.000 NA
BRANCH   3   9
ATOM      9  C   UNL     1       2.901   0.090   0.183  0.00  0.00    +0.000 C 
BRANCH   9  10
ATOM     10  N   UNL     1       2.261  -1.185   0.527  0.00  0.00    +0.000 NA
ATOM     11  H   UNL     1       2.168  -1.237   1.540  0.00  0.00    +0.000 HD
ATOM     12  H   UNL     1       2.905  -1.933   0.267  0.00  0.00    +0.000 HD
ENDBRANCH   9  10
ENDBRANCH   3   9
ENDBRANCH   2   6
ENDBRANCH   1   2
BRANCH   1  13
ATOM     13  C   UNL     1       4.933   1.916  -7.334  0.00  0.00    +0.000 C 
BRANCH  13  14
ATOM     14  C   UNL     1       4.963   3.347  -7.806  0.00  0.00    +0.000 A 
ATOM     15  C   UNL     1       6.106   4.136  -7.655  0.00  0.00    +0.000 A 
ATOM     16  C   UNL     1       6.089   5.466  -8.071  0.00  0.00    +0.000 A 
ATOM     17  C   UNL     1       4.918   5.964  -8.627  0.00  0.00    +0.000 A 
ATOM     18  N   UNL     1       3.782   5.229  -8.789  0.00  0.00    +0.000 NA
ATOM     19  C   UNL     1       3.837   3.943  -8.372  0.00  0.00    +0.000 A 
BRANCH  17  20
ATOM     20  C   UNL     1       4.862   7.392  -9.081  0.00  0.00    +0.000 C 
ATOM     21  N   UNL     1       3.665   7.794  -9.608  0.00  0.00    +0.000 N 
ATOM     22  O   UNL     1       5.815   8.154  -8.987  0.00  0.00    +0.000 OA
ATOM     23  H   UNL     1       2.898   7.134  -9.663  0.00  0.00    +0.000 HD
ATOM     24  H   UNL     1       3.554   8.744  -9.930  0.00  0.00    +0.000 HD
ENDBRANCH  17  20
ENDBRANCH  13  14
ENDBRANCH   1  13
TORSDOF 7
