REMARK  Name = 
REMARK  6 active torsions:
REMARK  status: ('A' for Active; 'I' for Inactive)
REMARK    1  A    between atoms: C_2  and  C_25
REMARK    2  A    between atoms: N_3  and  C_4
REMARK    3  A    between atoms: C_4  and  C_5
REMARK    4  A    between atoms: C_8  and  C_9
REMARK    5  A    between atoms: C_9  and  N_10
REMARK    6  A    between atoms: C_11  and  C_13
REMARK                            x       y       z     vdW  Elec       q    Type
REMARK                         _______ _______ _______ _____ _____    ______ ____
ROOT
ATOM      1  C   UNL     1       3.170   2.396  -2.793  0.00  0.00    +0.000 A 
ATOM      2  C   UNL     1       2.979   3.780  -2.913  0.00  0.00    +0.000 A 
ATOM      3  C   UNL     1       3.829   4.552  -3.715  0.00  0.00    +0.000 A 
ATOM      4  C   UNL     1       4.876   3.953  -4.429  0.00  0.00    +0.000 A 
ATOM      5  C   UNL     1       5.074   2.572  -4.295  0.00  0.00    +0.000 A 
ATOM      6  C   UNL     1       4.224   1.800  -3.496  0.00  0.00    +0.000 A 
ENDROOT
BRANCH   1   7
ATOM      7  C   UNL     1       2.230   1.561  -1.962  0.00  0.00    +0.000 C 
BRANCH   7  10
ATOM      8  O   UNL     1       0.128  -0.048  -1.023  0.00  0.00    +0.000 OA
ATOM      9  C   UNL     1       0.125   0.318  -2.191  0.00  0.00    +0.000 C 
ATOM     10  N   UNL     1       1.123   1.087  -2.756  0.00  0.00    +0.000 N 
ATOM     11  H   UNL     1       0.962   1.533  -3.648  0.00  0.00    +0.000 HD
BRANCH   9  12
ATOM     12  C   UNL     1      -1.019  -0.010  -3.085  0.00  0.00    +0.000 A 
ATOM     13  C   UNL     1      -2.299  -0.139  -2.525  0.00  0.00    +0.000 A 
ATOM     14  C   UNL     1      -3.399  -0.393  -3.348  0.00  0.00    +0.000 A 
ATOM     15  C   UNL     1      -3.212  -0.532  -4.720  0.00  0.00    +0.000 A 
ATOM     16  F   UNL     1      -4.268  -0.757  -5.511  0.00  0.00    +0.000 F 
ATOM     17  C   UNL     1      -1.943  -0.443  -5.283  0.00  0.00    +0.000 A 
ATOM     18  C   UNL     1      -0.841  -0.188  -4.465  0.00  0.00    +0.000 A 
ENDBRANCH   9  12
ENDBRANCH   7  10
ENDBRANCH   1   7
BRANCH   4  19
ATOM     19  C   UNL     1       5.790   4.771  -5.306  0.00  0.00    +0.000 C 
BRANCH  19  20
ATOM     20  N   UNL     1       6.932   5.256  -4.574  0.00  0.00    +0.000 N 
ATOM     21  C   UNL     1       7.864   6.074  -5.163  0.00  0.00    +0.000 C 
ATOM     22  O   UNL     1       7.751   6.462  -6.323  0.00  0.00    +0.000 OA
ATOM     23  H   UNL     1       7.177   4.759  -3.724  0.00  0.00    +0.000 HD
BRANCH  21  24
ATOM     24  C   UNL     1       8.976   6.515  -4.313  0.00  0.00    +0.000 A 
ATOM     25  C   UNL     1       9.649   7.694  -4.609  0.00  0.00    +0.000 A 
ATOM     26  S   UNL     1      10.876   8.082  -3.488  0.00  0.00    +0.000 S 
ATOM     27  C   UNL     1      10.589   6.660  -2.599  0.00  0.00    +0.000 A 
ATOM     28  N   UNL     1      11.335   6.356  -1.502  0.00  0.00    +0.000 NA
ATOM     29  C   UNL     1      11.030   5.234  -0.942  0.00  0.00    +0.000 A 
ATOM     30  N   UNL     1      10.041   4.388  -1.378  0.00  0.00    +0.000 N 
ATOM     31  C   UNL     1       9.243   4.668  -2.460  0.00  0.00    +0.000 A 
ATOM     32  O   UNL     1       8.334   3.914  -2.792  0.00  0.00    +0.000 OA
ATOM     33  C   UNL     1       9.556   5.913  -3.135  0.00  0.00    +0.000 A 
ATOM     34  H   UNL     1       9.846   3.527  -0.890  0.00  0.00    +0.000 HD
ENDBRANCH  21  24
ENDBRANCH  19  20
ENDBRANCH   4  19
TORSDOF 6
