REMARK  Name = 
REMARK  6 active torsions:
REMARK  status: ('A' for Active; 'I' for Inactive)
REMARK    1  A    between atoms: C_1  and  C_2
REMARK    2  A    between atoms: C_4  and  C_5
REMARK    3  A    between atoms: C_5  and  N_6
REMARK    4  A    between atoms: C_7  and  C_9
REMARK    5  A    between atoms: C_21  and  C_22
REMARK    6  A    between atoms: C_22  and  C_23
REMARK                            x       y       z     vdW  Elec       q    Type
REMARK                         _______ _______ _______ _____ _____    ______ ____
ROOT
ATOM      1  C   UNL     1      -1.900   2.622   0.018  0.00  0.00    +0.000 C 
ENDROOT
BRANCH   1   5
ATOM      2  C   UNL     1       2.511   0.258  -0.242  0.00  0.00    +0.000 C 
ATOM      3  C   UNL     1       1.012   0.146  -0.161  0.00  0.00    +0.000 A 
ATOM      4  C   UNL     1       0.264   1.338  -0.106  0.00  0.00    +0.000 A 
ATOM      5  C   UNL     1      -1.135   1.326  -0.032  0.00  0.00    +0.000 A 
ATOM      6  C   UNL     1      -1.792   0.096   0.030  0.00  0.00    +0.000 A 
ATOM      7  C   UNL     1      -1.060  -1.095   0.018  0.00  0.00    +0.000 A 
ATOM      8  C   UNL     1       0.345  -1.093  -0.072  0.00  0.00    +0.000 A 
BRANCH   8   9
ATOM      9  C   UNL     1       1.082  -2.419   0.017  0.00  0.00    +0.000 C 
BRANCH   9  10
ATOM     10  C   UNL     1       1.303  -3.210  -1.257  0.00  0.00    +0.000 A 
ATOM     11  C   UNL     1       0.243  -3.579  -2.086  0.00  0.00    +0.000 A 
ATOM     12  C   UNL     1       0.470  -4.483  -3.124  0.00  0.00    +0.000 A 
ATOM     13  C   UNL     1       1.745  -4.995  -3.317  0.00  0.00    +0.000 A 
ATOM     14  C   UNL     1       2.751  -4.564  -2.471  0.00  0.00    +0.000 A 
ATOM     15  N   UNL     1       2.558  -3.695  -1.452  0.00  0.00    +0.000 NA
ENDBRANCH   9  10
ENDBRANCH   8   9
ENDBRANCH   1   5
BRANCH   1  16
ATOM     16  N   UNL     1      -2.088   3.073   1.375  0.00  0.00    +0.000 N 
ATOM     17  C   UNL     1      -2.848   4.183   1.643  0.00  0.00    +0.000 C 
ATOM     18  O   UNL     1      -3.430   4.799   0.755  0.00  0.00    +0.000 OA
ATOM     19  H   UNL     1      -1.441   2.724   2.076  0.00  0.00    +0.000 HD
BRANCH  17  20
ATOM     20  C   UNL     1      -2.989   4.565   3.054  0.00  0.00    +0.000 A 
ATOM     21  C   UNL     1      -4.076   5.336   3.446  0.00  0.00    +0.000 A 
ATOM     22  S   UNL     1      -4.126   5.649   5.120  0.00  0.00    +0.000 S 
ATOM     23  C   UNL     1      -2.667   4.812   5.374  0.00  0.00    +0.000 A 
ATOM     24  N   UNL     1      -2.124   4.720   6.618  0.00  0.00    +0.000 NA
ATOM     25  C   UNL     1      -0.995   4.093   6.660  0.00  0.00    +0.000 A 
ATOM     26  N   UNL     1      -0.369   3.540   5.576  0.00  0.00    +0.000 N 
ATOM     27  C   UNL     1      -0.898   3.576   4.307  0.00  0.00    +0.000 A 
ATOM     28  O   UNL     1      -0.333   3.031   3.364  0.00  0.00    +0.000 OA
ATOM     29  C   UNL     1      -2.157   4.287   4.200  0.00  0.00    +0.000 A 
ATOM     30  H   UNL     1       0.508   3.049   5.680  0.00  0.00    +0.000 HD
ENDBRANCH  17  20
ENDBRANCH   1  16
TORSDOF 5
