REMARK  Name = 
REMARK  4 active torsions:
REMARK  status: ('A' for Active; 'I' for Inactive)
REMARK    1  A    between atoms: C_2  and  C_4
REMARK    2  A    between atoms: N_8  and  C_9
REMARK    3  A    between atoms: C_9  and  C_10
REMARK    4  A    between atoms: C_14  and  C_15
REMARK                            x       y       z     vdW  Elec       q    Type
REMARK                         _______ _______ _______ _____ _____    ______ ____
ROOT
ATOM      1  C   UNL     1       5.540  -4.275   3.753  0.00  0.00    +0.000 C 
ENDROOT
BRANCH   1   6
ATOM      2  C   UNL     1       3.768  -2.881  -0.784  0.00  0.00    +0.000 A 
ATOM      3  C   UNL     1       3.416  -2.418   0.480  0.00  0.00    +0.000 A 
ATOM      4  C   UNL     1       4.182  -2.802   1.584  0.00  0.00    +0.000 A 
ATOM      5  C   UNL     1       5.268  -3.658   1.416  0.00  0.00    +0.000 A 
ATOM      6  N   UNL     1       6.119  -4.016   2.451  0.00  0.00    +0.000 N 
ATOM      7  N   UNL     1       5.598  -4.136   0.200  0.00  0.00    +0.000 NA
ATOM      8  C   UNL     1       4.848  -3.747  -0.868  0.00  0.00    +0.000 A 
ATOM      9  H   UNL     1       6.736  -4.746   2.101  0.00  0.00    +0.000 HD
BRANCH   2  11
ATOM     10  N   UNL     1       2.369  -1.318  -2.010  0.00  0.00    +0.000 N 
ATOM     11  C   UNL     1       3.045  -2.505  -2.015  0.00  0.00    +0.000 C 
ATOM     12  O   UNL     1       3.081  -3.210  -3.014  0.00  0.00    +0.000 OA
ATOM     13  H   UNL     1       1.974  -1.027  -2.897  0.00  0.00    +0.000 HD
ATOM     14  H   UNL     1       2.524  -0.604  -1.313  0.00  0.00    +0.000 HD
ENDBRANCH   2  11
ENDBRANCH   1   6
BRANCH   1  15
ATOM     15  C   UNL     1       6.573  -4.835   4.702  0.00  0.00    +0.000 A 
ATOM     16  C   UNL     1       7.486  -3.993   5.348  0.00  0.00    +0.000 A 
ATOM     17  C   UNL     1       8.386  -4.515   6.274  0.00  0.00    +0.000 A 
ATOM     18  C   UNL     1       8.377  -5.881   6.571  0.00  0.00    +0.000 A 
ATOM     19  C   UNL     1       7.464  -6.757   5.957  0.00  0.00    +0.000 A 
ATOM     20  C   UNL     1       6.592  -6.209   4.996  0.00  0.00    +0.000 A 
BRANCH  19  21
ATOM     21  C   UNL     1       7.347  -8.178   6.368  0.00  0.00    +0.000 A 
ATOM     22  C   UNL     1       7.513  -8.556   7.715  0.00  0.00    +0.000 A 
ATOM     23  C   UNL     1       7.298  -9.872   8.139  0.00  0.00    +0.000 A 
ATOM     24  C   UNL     1       6.905 -10.837   7.221  0.00  0.00    +0.000 A 
ATOM     25 CL   UNL     1       6.586 -12.442   7.749  0.00  0.00    +0.000 Cl
ATOM     26  C   UNL     1       6.755 -10.504   5.879  0.00  0.00    +0.000 A 
ATOM     27  C   UNL     1       6.986  -9.189   5.457  0.00  0.00    +0.000 A 
ENDBRANCH  19  21
ENDBRANCH   1  15
TORSDOF 4
