REMARK  Name = 
REMARK  7 active torsions:
REMARK  status: ('A' for Active; 'I' for Inactive)
REMARK    1  A    between atoms: C_1  and  C_2
REMARK    2  A    between atoms: C_2  and  N_3
REMARK    3  A    between atoms: C_2  and  C_16
REMARK    4  A    between atoms: C_4  and  C_6
REMARK    5  A    between atoms: C_19  and  O_20
REMARK    6  A    between atoms: O_20  and  C_21
REMARK    7  A    between atoms: C_21  and  C_22
REMARK                            x       y       z     vdW  Elec       q    Type
REMARK                         _______ _______ _______ _____ _____    ______ ____
ROOT
ATOM      1  C   UNL     1       1.289  -0.292  -1.026  0.00  0.00    +0.000 C 
ATOM      2  C   UNL     1       2.427  -0.034  -0.028  0.00  0.00    +0.000 C 
ENDROOT
BRANCH   2   3
ATOM      3  C   UNL     1       2.807  -1.262   0.779  0.00  0.00    +0.000 A 
ATOM      4  C   UNL     1       3.265  -1.125   2.100  0.00  0.00    +0.000 A 
ATOM      5  C   UNL     1       3.547  -2.253   2.876  0.00  0.00    +0.000 A 
ATOM      6  C   UNL     1       3.373  -3.529   2.342  0.00  0.00    +0.000 A 
ATOM      7  C   UNL     1       3.032  -3.667   1.000  0.00  0.00    +0.000 A 
ATOM      8  C   UNL     1       2.752  -2.547   0.226  0.00  0.00    +0.000 A 
BRANCH   6   9
ATOM      9  O   UNL     1       3.541  -4.581   3.202  0.00  0.00    +0.000 OA
BRANCH   9  10
ATOM     10  C   UNL     1       2.804  -5.751   2.832  0.00  0.00    +0.000 C 
BRANCH  10  11
ATOM     11  C   UNL     1       2.558  -6.609   4.036  0.00  0.00    +0.000 A 
ATOM     12  C   UNL     1       1.893  -6.107   5.158  0.00  0.00    +0.000 A 
ATOM     13  C   UNL     1       1.624  -6.949   6.231  0.00  0.00    +0.000 A 
ATOM     14  C   UNL     1       2.022  -8.273   6.139  0.00  0.00    +0.000 A 
ATOM     15  N   UNL     1       2.659  -8.795   5.070  0.00  0.00    +0.000 NA
ATOM     16  C   UNL     1       2.913  -7.952   4.044  0.00  0.00    +0.000 A 
ENDBRANCH  10  11
ENDBRANCH   9  10
ENDBRANCH   6   9
ENDBRANCH   2   3
BRANCH   2  17
ATOM     17  N   UNL     1       3.601   0.454  -0.717  0.00  0.00    +0.000 N 
ATOM     18  C   UNL     1       3.734   1.761  -1.097  0.00  0.00    +0.000 C 
ATOM     19  O   UNL     1       2.940   2.633  -0.756  0.00  0.00    +0.000 OA
ATOM     20  H   UNL     1       4.193  -0.250  -1.144  0.00  0.00    +0.000 HD
BRANCH  18  21
ATOM     21  C   UNL     1       4.909   2.073  -1.911  0.00  0.00    +0.000 A 
ATOM     22  C   UNL     1       5.465   3.344  -1.866  0.00  0.00    +0.000 A 
ATOM     23  S   UNL     1       6.805   3.535  -2.902  0.00  0.00    +0.000 S 
ATOM     24  C   UNL     1       6.660   1.938  -3.476  0.00  0.00    +0.000 A 
ATOM     25  N   UNL     1       7.481   1.470  -4.452  0.00  0.00    +0.000 NA
ATOM     26  C   UNL     1       7.235   0.260  -4.822  0.00  0.00    +0.000 A 
ATOM     27  N   UNL     1       6.251  -0.535  -4.290  0.00  0.00    +0.000 N 
ATOM     28  C   UNL     1       5.434  -0.123  -3.264  0.00  0.00    +0.000 A 
ATOM     29  O   UNL     1       4.635  -0.893  -2.740  0.00  0.00    +0.000 OA
ATOM     30  C   UNL     1       5.632   1.252  -2.852  0.00  0.00    +0.000 A 
ATOM     31  H   UNL     1       6.135  -1.488  -4.601  0.00  0.00    +0.000 HD
ENDBRANCH  18  21
ENDBRANCH   2  17
TORSDOF 6
