REMARK  Name = 
REMARK  6 active torsions:
REMARK  status: ('A' for Active; 'I' for Inactive)
REMARK    1  A    between atoms: C_1  and  N_2
REMARK    2  A    between atoms: N_2  and  C_3
REMARK    3  A    between atoms: C_3  and  C_4
REMARK    4  A    between atoms: C_7  and  C_8
REMARK    5  A    between atoms: C_8  and  N_9
REMARK    6  A    between atoms: C_16  and  C_18
REMARK                            x       y       z     vdW  Elec       q    Type
REMARK                         _______ _______ _______ _____ _____    ______ ____
ROOT
ATOM      1  C   UNL     1       5.162   0.365  -2.792  0.00  0.00    +0.000 C 
ATOM      2  N   UNL     1       4.596   0.256  -1.453  0.00  0.00    +0.000 N 
ATOM      3  C   UNL     1       5.491   0.465  -0.386  0.00  0.00    +0.000 C 
ATOM      4  O   UNL     1       6.680   0.705  -0.589  0.00  0.00    +0.000 OA
ENDROOT
BRANCH   3   5
ATOM      5  C   UNL     1       5.003   0.350   0.998  0.00  0.00    +0.000 A 
ATOM      6  C   UNL     1       4.177  -0.663   1.458  0.00  0.00    +0.000 A 
ATOM      7  S   UNL     1       3.835  -0.565   3.128  0.00  0.00    +0.000 S 
ATOM      8  C   UNL     1       4.910   0.738   3.321  0.00  0.00    +0.000 A 
ATOM      9  N   UNL     1       5.191   1.237   4.554  0.00  0.00    +0.000 NA
ATOM     10  C   UNL     1       6.087   2.167   4.554  0.00  0.00    +0.000 A 
ATOM     11  N   UNL     1       6.689   2.676   3.431  0.00  0.00    +0.000 N 
ATOM     12  C   UNL     1       6.324   2.306   2.153  0.00  0.00    +0.000 A 
ATOM     13  O   UNL     1       6.687   2.956   1.180  0.00  0.00    +0.000 OA
ATOM     14  C   UNL     1       5.430   1.164   2.112  0.00  0.00    +0.000 A 
ATOM     15  H   UNL     1       7.325   3.456   3.497  0.00  0.00    +0.000 HD
ENDBRANCH   3   5
BRANCH   2  16
ATOM     16  C   UNL     1       3.147   0.244  -1.266  0.00  0.00    +0.000 C 
BRANCH  16  17
ATOM     17  C   UNL     1       2.263   0.377  -2.476  0.00  0.00    +0.000 A 
ATOM     18  C   UNL     1       1.854  -0.765  -3.180  0.00  0.00    +0.000 A 
ATOM     19  C   UNL     1       0.945  -0.659  -4.224  0.00  0.00    +0.000 A 
ATOM     20  C   UNL     1       0.413   0.584  -4.583  0.00  0.00    +0.000 A 
ATOM     21  C   UNL     1       0.867   1.737  -3.914  0.00  0.00    +0.000 A 
ATOM     22  C   UNL     1       1.785   1.630  -2.874  0.00  0.00    +0.000 A 
BRANCH  20  23
ATOM     23  C   UNL     1      -0.645   0.687  -5.660  0.00  0.00    +0.000 C 
BRANCH  23  24
ATOM     24  N   UNL     1      -1.820  -0.146  -5.374  0.00  0.00    +0.000 NA
ATOM     25  C   UNL     1      -2.564   0.298  -4.190  0.00  0.00    +0.000 C 
ATOM     26  C   UNL     1      -4.011   0.416  -4.636  0.00  0.00    +0.000 C 
ATOM     27  N   UNL     1      -3.951   0.550  -6.092  0.00  0.00    +0.000 NA
ATOM     28  C   UNL     1      -2.757  -0.183  -6.484  0.00  0.00    +0.000 C 
ATOM     29  H   UNL     1      -3.805   1.528  -6.325  0.00  0.00    +0.000 HD
ENDBRANCH  23  24
ENDBRANCH  20  23
ENDBRANCH  16  17
ENDBRANCH   2  16
TORSDOF 5
