REMARK  Name = 
REMARK  8 active torsions:
REMARK  status: ('A' for Active; 'I' for Inactive)
REMARK    1  A    between atoms: C_1  and  O_2
REMARK    2  A    between atoms: O_2  and  C_3
REMARK    3  A    between atoms: C_5  and  C_6
REMARK    4  A    between atoms: C_11  and  N_12
REMARK    5  A    between atoms: N_12  and  C_13
REMARK    6  A    between atoms: C_13  and  C_14
REMARK    7  A    between atoms: C_18  and  N_19
REMARK    8  A    between atoms: N_22  and  C_23
REMARK                            x       y       z     vdW  Elec       q    Type
REMARK                         _______ _______ _______ _____ _____    ______ ____
ROOT
ATOM      1  N   UNL     1       4.634   0.723   1.012  0.00  0.00    +0.000 N 
ATOM      2  H   UNL     1       5.530   0.548   1.459  0.00  0.00    +0.000 HD
ENDROOT
BRANCH   1   8
ATOM      3  C   UNL     1       3.043  -0.716  -0.321  0.00  0.00    +0.000 A 
ATOM      4  C   UNL     1       2.873  -1.606  -1.391  0.00  0.00    +0.000 A 
ATOM      5  C   UNL     1       3.954  -2.033  -2.165  0.00  0.00    +0.000 A 
ATOM      6  C   UNL     1       5.228  -1.552  -1.866  0.00  0.00    +0.000 A 
ATOM      7  C   UNL     1       5.407  -0.662  -0.794  0.00  0.00    +0.000 A 
ATOM      8  C   UNL     1       4.334  -0.237   0.018  0.00  0.00    +0.000 A 
BRANCH   5   9
ATOM      9  C   UNL     1       3.648  -2.981  -3.281  0.00  0.00    +0.000 C 
ATOM     10  N   UNL     1       4.666  -3.397  -4.089  0.00  0.00    +0.000 N 
ATOM     11  O   UNL     1       2.510  -3.390  -3.481  0.00  0.00    +0.000 OA
ATOM     12  H   UNL     1       5.628  -3.102  -4.018  0.00  0.00    +0.000 HD
ATOM     13  H   UNL     1       4.417  -4.024  -4.842  0.00  0.00    +0.000 HD
ENDBRANCH   5   9
BRANCH   3  15
ATOM     14  C   UNL     1       0.796  -1.056   0.435  0.00  0.00    +0.000 C 
ATOM     15  O   UNL     1       1.967  -0.255   0.397  0.00  0.00    +0.000 OA
ENDBRANCH   3  15
ENDBRANCH   1   8
BRANCH   1  16
ATOM     16  C   UNL     1       3.597   1.092   1.966  0.00  0.00    +0.000 C 
BRANCH  16  17
ATOM     17  C   UNL     1       4.052   2.113   2.982  0.00  0.00    +0.000 A 
ATOM     18  C   UNL     1       4.041   3.473   2.651  0.00  0.00    +0.000 A 
ATOM     19  C   UNL     1       4.241   4.431   3.638  0.00  0.00    +0.000 A 
ATOM     20  C   UNL     1       4.464   4.034   4.958  0.00  0.00    +0.000 A 
ATOM     21  C   UNL     1       4.508   2.680   5.330  0.00  0.00    +0.000 A 
ATOM     22  C   UNL     1       4.321   1.733   4.311  0.00  0.00    +0.000 A 
BRANCH  21  23
ATOM     23  N   UNL     1       4.609   2.339   6.667  0.00  0.00    +0.000 N 
ATOM     24  C   UNL     1       4.106   1.056   7.178  0.00  0.00    +0.000 C 
ATOM     25  C   UNL     1       3.635   1.240   8.641  0.00  0.00    +0.000 C 
ATOM     26  N   UNL     1       4.693   1.783   9.525  0.00  0.00    +0.000 NA
ATOM     27  C   UNL     1       4.168   1.997  10.872  0.00  0.00    +0.000 C 
ATOM     28  C   UNL     1       5.200   3.056   8.957  0.00  0.00    +0.000 C 
ATOM     29  C   UNL     1       5.684   2.917   7.492  0.00  0.00    +0.000 C 
ENDBRANCH  21  23
ENDBRANCH  16  17
ENDBRANCH   1  16
TORSDOF 6
