REMARK  Name = 
REMARK  5 active torsions:
REMARK  status: ('A' for Active; 'I' for Inactive)
REMARK    1  A    between atoms: N_1  and  C_2
REMARK    2  A    between atoms: C_2  and  C_3
REMARK    3  A    between atoms: C_3  and  C_4
REMARK    4  A    between atoms: C_7  and  C_8
REMARK    5  A    between atoms: C_8  and  N_9
REMARK                            x       y       z     vdW  Elec       q    Type
REMARK                         _______ _______ _______ _____ _____    ______ ____
ROOT
ATOM      1  C   UNL     1       4.767   1.229  -0.530  0.00  0.00    +0.000 A 
ATOM      2  C   UNL     1       5.529   2.353  -0.859  0.00  0.00    +0.000 A 
ATOM      3  C   UNL     1       6.930   2.302  -0.780  0.00  0.00    +0.000 A 
ATOM      4  C   UNL     1       7.581   1.128  -0.361  0.00  0.00    +0.000 A 
ATOM      5  C   UNL     1       6.795   0.013  -0.030  0.00  0.00    +0.000 A 
ATOM      6  C   UNL     1       5.411   0.058  -0.127  0.00  0.00    +0.000 A 
ENDROOT
BRANCH   1   7
ATOM      7  C   UNL     1       3.260   1.289  -0.618  0.00  0.00    +0.000 C 
BRANCH   7   8
ATOM      8  C   UNL     1       2.715   0.852  -1.974  0.00  0.00    +0.000 C 
BRANCH   8   9
ATOM      9  N   UNL     1       1.243   0.890  -1.979  0.00  0.00    +0.000 NA
ATOM     10  H   UNL     1       0.912   0.615  -2.908  0.00  0.00    +0.000 HD
ATOM     11  H   UNL     1       0.948   1.864  -1.822  0.00  0.00    +0.000 HD
ENDBRANCH   8   9
ENDBRANCH   7   8
ENDBRANCH   1   7
BRANCH   4  12
ATOM     12  C   UNL     1       9.091   1.074  -0.294  0.00  0.00    +0.000 C 
BRANCH  12  13
ATOM     13  N   UNL     1       9.629   1.451   1.002  0.00  0.00    +0.000 N 
ATOM     14  C   UNL     1       9.515   2.712   1.540  0.00  0.00    +0.000 A 
ATOM     15  C   UNL     1      10.210   2.738   2.726  0.00  0.00    +0.000 A 
ATOM     16  C   UNL     1      11.043   1.591   2.723  0.00  0.00    +0.000 A 
ATOM     17  C   UNL     1      12.189   1.233   3.454  0.00  0.00    +0.000 A 
ATOM     18  C   UNL     1      12.803   0.007   3.179  0.00  0.00    +0.000 A 
ATOM     19 CL   UNL     1      14.332  -0.344   3.889  0.00  0.00    +0.000 Cl
ATOM     20  C   UNL     1      12.224  -0.906   2.304  0.00  0.00    +0.000 A 
ATOM     21  C   UNL     1      11.072  -0.572   1.579  0.00  0.00    +0.000 A 
ATOM     22  C   UNL     1      10.559   0.728   1.731  0.00  0.00    +0.000 A 
ENDBRANCH  12  13
ENDBRANCH   4  12
TORSDOF 5
