REMARK  Name = 
REMARK  9 active torsions:
REMARK  status: ('A' for Active; 'I' for Inactive)
REMARK    1  A    between atoms: N_1  and  C_2
REMARK    2  A    between atoms: C_2  and  C_3
REMARK    3  A    between atoms: C_3  and  N_4
REMARK    4  A    between atoms: C_7  and  C_8
REMARK    5  A    between atoms: N_10  and  C_11
REMARK    6  A    between atoms: C_11  and  C_12
REMARK    7  A    between atoms: C_15  and  C_16
REMARK    8  A    between atoms: C_16  and  N_17
REMARK    9  A    between atoms: C_18  and  C_20
REMARK                            x       y       z     vdW  Elec       q    Type
REMARK                         _______ _______ _______ _____ _____    ______ ____
ROOT
ATOM      1  C   UNL     1       9.526   0.102  -5.304  0.00  0.00    +0.000 A 
ATOM      2  C   UNL     1       9.109   1.439  -5.312  0.00  0.00    +0.000 A 
ATOM      3  C   UNL     1       9.419   2.273  -6.390  0.00  0.00    +0.000 A 
ATOM      4  C   UNL     1      10.135   1.781  -7.489  0.00  0.00    +0.000 A 
ATOM      5  C   UNL     1      10.579   0.452  -7.465  0.00  0.00    +0.000 A 
ATOM      6  C   UNL     1      10.269  -0.382  -6.388  0.00  0.00    +0.000 A 
ENDROOT
BRANCH   1   7
ATOM      7  C   UNL     1       9.142  -0.811  -4.173  0.00  0.00    +0.000 C 
BRANCH   7  10
ATOM      8  C   UNL     1       7.337  -2.324  -3.510  0.00  0.00    +0.000 C 
ATOM      9  O   UNL     1       7.896  -2.573  -2.446  0.00  0.00    +0.000 OA
ATOM     10  N   UNL     1       7.862  -1.438  -4.420  0.00  0.00    +0.000 N 
ATOM     11  H   UNL     1       7.390  -1.246  -5.294  0.00  0.00    +0.000 HD
BRANCH   8  15
ATOM     12  N   UNL     1       5.856  -5.189  -4.811  0.00  0.00    +0.000 NA
ATOM     13  C   UNL     1       6.004  -5.235  -3.344  0.00  0.00    +0.000 C 
ATOM     14  C   UNL     1       5.464  -3.901  -2.863  0.00  0.00    +0.000 C 
ATOM     15  C   UNL     1       5.997  -2.931  -3.910  0.00  0.00    +0.000 C 
ATOM     16  C   UNL     1       6.119  -3.782  -5.178  0.00  0.00    +0.000 C 
BRANCH  12  17
ATOM     17  C   UNL     1       4.523  -5.669  -5.223  0.00  0.00    +0.000 C 
BRANCH  17  18
ATOM     18  C   UNL     1       4.359  -5.795  -6.753  0.00  0.00    +0.000 C 
BRANCH  18  19
ATOM     19  N   UNL     1       3.021  -6.271  -7.114  0.00  0.00    +0.000 NA
ATOM     20  H   UNL     1       2.945  -6.305  -8.130  0.00  0.00    +0.000 HD
ATOM     21  H   UNL     1       2.323  -5.598  -6.799  0.00  0.00    +0.000 HD
ENDBRANCH  18  19
ENDBRANCH  17  18
ENDBRANCH  12  17
ENDBRANCH   8  15
ENDBRANCH   7  10
ENDBRANCH   1   7
BRANCH   4  22
ATOM     22  C   UNL     1      10.443   2.664  -8.668  0.00  0.00    +0.000 C 
BRANCH  22  23
ATOM     23  N   UNL     1      11.698   3.349  -8.503  0.00  0.00    +0.000 N 
ATOM     24  C   UNL     1      12.118   4.275  -9.424  0.00  0.00    +0.000 C 
ATOM     25  O   UNL     1      11.424   4.593 -10.386  0.00  0.00    +0.000 OA
ATOM     26  H   UNL     1      12.369   2.942  -7.858  0.00  0.00    +0.000 HD
BRANCH  24  27
ATOM     27  C   UNL     1      13.412   4.919  -9.169  0.00  0.00    +0.000 A 
ATOM     28  C   UNL     1      13.687   6.154  -9.743  0.00  0.00    +0.000 A 
ATOM     29  S   UNL     1      15.207   6.789  -9.304  0.00  0.00    +0.000 S 
ATOM     30  C   UNL     1      15.574   5.413  -8.375  0.00  0.00    +0.000 A 
ATOM     31  N   UNL     1      16.767   5.304  -7.729  0.00  0.00    +0.000 NA
ATOM     32  C   UNL     1      16.927   4.195  -7.088  0.00  0.00    +0.000 A 
ATOM     33  N   UNL     1      16.000   3.187  -7.029  0.00  0.00    +0.000 N 
ATOM     34  C   UNL     1      14.772   3.264  -7.641  0.00  0.00    +0.000 A 
ATOM     35  O   UNL     1      13.950   2.359  -7.538  0.00  0.00    +0.000 OA
ATOM     36  C   UNL     1      14.545   4.488  -8.385  0.00  0.00    +0.000 A 
ATOM     37  H   UNL     1      16.185   2.345  -6.503  0.00  0.00    +0.000 HD
ENDBRANCH  24  27
ENDBRANCH  22  23
ENDBRANCH   4  22
TORSDOF 9
