REMARK  Name = 
REMARK  7 active torsions:
REMARK  status: ('A' for Active; 'I' for Inactive)
REMARK    1  A    between atoms: C_1  and  N_2
REMARK    2  A    between atoms: N_2  and  C_3
REMARK    3  A    between atoms: C_3  and  C_4
REMARK    4  A    between atoms: C_7  and  C_8
REMARK    5  A    between atoms: C_8  and  O_9
REMARK    6  A    between atoms: O_9  and  C_10
REMARK    7  A    between atoms: C_18  and  C_20
REMARK                            x       y       z     vdW  Elec       q    Type
REMARK                         _______ _______ _______ _____ _____    ______ ____
ROOT
ATOM      1  C   UNL     1       1.067   0.405   0.437  0.00  0.00    +0.000 C 
ATOM      2  N   UNL     1       2.413   0.064  -0.014  0.00  0.00    +0.000 N 
ATOM      3  C   UNL     1       2.971  -1.107   0.528  0.00  0.00    +0.000 C 
ATOM      4  O   UNL     1       2.353  -1.787   1.346  0.00  0.00    +0.000 OA
ENDROOT
BRANCH   3   5
ATOM      5  C   UNL     1       4.329  -1.507   0.140  0.00  0.00    +0.000 A 
ATOM      6  C   UNL     1       5.415  -0.649   0.080  0.00  0.00    +0.000 A 
ATOM      7  S   UNL     1       6.878  -1.426  -0.331  0.00  0.00    +0.000 S 
ATOM      8  C   UNL     1       6.134  -2.953  -0.301  0.00  0.00    +0.000 A 
ATOM      9  N   UNL     1       6.862  -4.092  -0.467  0.00  0.00    +0.000 NA
ATOM     10  C   UNL     1       6.172  -5.180  -0.346  0.00  0.00    +0.000 A 
ATOM     11  N   UNL     1       4.822  -5.232  -0.113  0.00  0.00    +0.000 N 
ATOM     12  C   UNL     1       4.024  -4.111  -0.077  0.00  0.00    +0.000 A 
ATOM     13  O   UNL     1       2.803  -4.199  -0.115  0.00  0.00    +0.000 OA
ATOM     14  C   UNL     1       4.772  -2.863  -0.079  0.00  0.00    +0.000 A 
ATOM     15  H   UNL     1       4.335  -6.115  -0.098  0.00  0.00    +0.000 HD
ENDBRANCH   3   5
BRANCH   2  16
ATOM     16  C   UNL     1       3.011   0.798  -1.135  0.00  0.00    +0.000 C 
BRANCH  16  17
ATOM     17  C   UNL     1       2.118   1.739  -1.886  0.00  0.00    +0.000 A 
ATOM     18  C   UNL     1       1.323   1.302  -2.944  0.00  0.00    +0.000 A 
ATOM     19  C   UNL     1       0.505   2.208  -3.608  0.00  0.00    +0.000 A 
ATOM     20  C   UNL     1       0.481   3.533  -3.179  0.00  0.00    +0.000 A 
ATOM     21  N   UNL     1       1.247   3.981  -2.153  0.00  0.00    +0.000 NA
ATOM     22  C   UNL     1       2.049   3.085  -1.541  0.00  0.00    +0.000 A 
BRANCH  20  23
ATOM     23  C   UNL     1      -0.417   4.535  -3.861  0.00  0.00    +0.000 C 
BRANCH  23  24
ATOM     24  O   UNL     1       0.271   5.083  -4.986  0.00  0.00    +0.000 OA
BRANCH  24  25
ATOM     25  C   UNL     1      -0.382   6.063  -5.673  0.00  0.00    +0.000 A 
ATOM     26  C   UNL     1      -1.696   6.477  -5.474  0.00  0.00    +0.000 A 
ATOM     27  C   UNL     1      -2.228   7.488  -6.275  0.00  0.00    +0.000 A 
ATOM     28  C   UNL     1      -1.425   8.051  -7.251  0.00  0.00    +0.000 A 
ATOM     29  N   UNL     1      -0.149   7.677  -7.475  0.00  0.00    +0.000 NA
ATOM     30  C   UNL     1       0.340   6.695  -6.679  0.00  0.00    +0.000 A 
ENDBRANCH  24  25
ENDBRANCH  23  24
ENDBRANCH  20  23
ENDBRANCH  16  17
ENDBRANCH   2  16
TORSDOF 6
