REMARK  Name = 
REMARK  5 active torsions:
REMARK  status: ('A' for Active; 'I' for Inactive)
REMARK    1  A    between atoms: N_1  and  C_2
REMARK    2  A    between atoms: C_2  and  C_3
REMARK    3  A    between atoms: C_6  and  O_7
REMARK    4  A    between atoms: O_7  and  C_8
REMARK    5  A    between atoms: C_8  and  C_9
REMARK                            x       y       z     vdW  Elec       q    Type
REMARK                         _______ _______ _______ _____ _____    ______ ____
ROOT
ATOM      1  C   UNL     1       2.854  -1.196  -0.478  0.00  0.00    +0.000 A 
ATOM      2  C   UNL     1       4.026  -1.311  -1.239  0.00  0.00    +0.000 A 
ATOM      3  C   UNL     1       4.472  -2.562  -1.674  0.00  0.00    +0.000 A 
ATOM      4  C   UNL     1       3.761  -3.715  -1.345  0.00  0.00    +0.000 A 
ATOM      5  C   UNL     1       2.567  -3.604  -0.633  0.00  0.00    +0.000 A 
ATOM      6  C   UNL     1       2.122  -2.355  -0.192  0.00  0.00    +0.000 A 
ENDROOT
BRANCH   1   7
ATOM      7  C   UNL     1       2.402   0.139   0.054  0.00  0.00    +0.000 C 
BRANCH   7   8
ATOM      8  N   UNL     1       2.139   1.089  -1.017  0.00  0.00    +0.000 NA
ATOM      9  H   UNL     1       1.771   1.948  -0.614  0.00  0.00    +0.000 HD
ATOM     10  H   UNL     1       1.403   0.712  -1.614  0.00  0.00    +0.000 HD
ENDBRANCH   7   8
ENDBRANCH   1   7
BRANCH   4  11
ATOM     11  O   UNL     1       4.318  -4.892  -1.763  0.00  0.00    +0.000 OA
BRANCH  11  12
ATOM     12  C   UNL     1       3.895  -6.053  -1.041  0.00  0.00    +0.000 C 
BRANCH  12  13
ATOM     13  C   UNL     1       4.904  -7.164  -1.216  0.00  0.00    +0.000 A 
ATOM     14  C   UNL     1       6.243  -6.946  -0.880  0.00  0.00    +0.000 A 
ATOM     15  C   UNL     1       7.148  -7.999  -0.998  0.00  0.00    +0.000 A 
ATOM     16  C   UNL     1       6.688  -9.228  -1.443  0.00  0.00    +0.000 A 
ATOM     17  F   UNL     1       7.531 -10.260  -1.566  0.00  0.00    +0.000 F 
ATOM     18  C   UNL     1       5.347  -9.371  -1.750  0.00  0.00    +0.000 A 
ATOM     19  N   UNL     1       4.442  -8.370  -1.639  0.00  0.00    +0.000 NA
ENDBRANCH  12  13
ENDBRANCH  11  12
ENDBRANCH   4  11
TORSDOF 5
