REMARK  Name = 
REMARK  5 active torsions:
REMARK  status: ('A' for Active; 'I' for Inactive)
REMARK    1  A    between atoms: C_2  and  C_4
REMARK    2  A    between atoms: C_7  and  O_8
REMARK    3  A    between atoms: O_8  and  C_9
REMARK    4  A    between atoms: C_9  and  C_10
REMARK    5  A    between atoms: C_14  and  C_15
REMARK                            x       y       z     vdW  Elec       q    Type
REMARK                         _______ _______ _______ _____ _____    ______ ____
ROOT
ATOM      1  C   UNL     1       4.981   1.421  -5.826  0.00  0.00    +0.000 C 
ENDROOT
BRANCH   1   2
ATOM      2  C   UNL     1       6.014   1.383  -6.931  0.00  0.00    +0.000 A 
ATOM      3  C   UNL     1       6.440   2.577  -7.528  0.00  0.00    +0.000 A 
ATOM      4  C   UNL     1       7.383   2.556  -8.555  0.00  0.00    +0.000 A 
ATOM      5  C   UNL     1       7.920   1.344  -8.988  0.00  0.00    +0.000 A 
ATOM      6  C   UNL     1       7.517   0.137  -8.402  0.00  0.00    +0.000 A 
ATOM      7  C   UNL     1       6.537   0.169  -7.399  0.00  0.00    +0.000 A 
BRANCH   6   8
ATOM      8  C   UNL     1       8.181  -1.183  -8.743  0.00  0.00    +0.000 C 
ATOM      9  C   UNL     1       9.662  -1.158  -8.333  0.00  0.00    +0.000 C 
ATOM     10  C   UNL     1      10.337  -2.469  -8.698  0.00  0.00    +0.000 C 
ATOM     11  O   UNL     1      10.178  -2.748 -10.088  0.00  0.00    +0.000 OA
ATOM     12  C   UNL     1       8.806  -2.889 -10.459  0.00  0.00    +0.000 C 
ATOM     13  C   UNL     1       8.041  -1.594 -10.213  0.00  0.00    +0.000 C 
ENDBRANCH   6   8
ENDBRANCH   1   2
BRANCH   1  14
ATOM     14  O   UNL     1       5.155   0.305  -4.948  0.00  0.00    +0.000 OA
BRANCH  14  18
ATOM     15  C   UNL     1       2.485   0.212  -1.823  0.00  0.00    +0.000 A 
ATOM     16  C   UNL     1       3.437  -0.801  -1.950  0.00  0.00    +0.000 A 
ATOM     17  C   UNL     1       4.332  -0.761  -3.018  0.00  0.00    +0.000 A 
ATOM     18  C   UNL     1       4.242   0.293  -3.918  0.00  0.00    +0.000 A 
ATOM     19  N   UNL     1       3.326   1.278  -3.828  0.00  0.00    +0.000 NA
ATOM     20  C   UNL     1       2.461   1.211  -2.787  0.00  0.00    +0.000 A 
BRANCH  15  22
ATOM     21  N   UNL     1       1.839  -0.314   0.459  0.00  0.00    +0.000 N 
ATOM     22  C   UNL     1       1.501   0.275  -0.727  0.00  0.00    +0.000 C 
ATOM     23  O   UNL     1       0.438   0.869  -0.854  0.00  0.00    +0.000 OA
ATOM     24  H   UNL     1       1.204  -0.156   1.233  0.00  0.00    +0.000 HD
ATOM     25  H   UNL     1       2.789  -0.578   0.685  0.00  0.00    +0.000 HD
ENDBRANCH  15  22
ENDBRANCH  14  18
ENDBRANCH   1  14
TORSDOF 5
