REMARK  Name = 
REMARK  4 active torsions:
REMARK  status: ('A' for Active; 'I' for Inactive)
REMARK    1  A    between atoms: C_2  and  C_4
REMARK    2  A    between atoms: C_7  and  N_8
REMARK    3  A    between atoms: N_8  and  C_9
REMARK    4  A    between atoms: C_9  and  C_10
REMARK                            x       y       z     vdW  Elec       q    Type
REMARK                         _______ _______ _______ _____ _____    ______ ____
ROOT
ATOM      1  N   UNL     1       5.462   4.480   1.288  0.00  0.00    +0.000 N 
ATOM      2  H   UNL     1       6.458   4.277   1.242  0.00  0.00    +0.000 HD
ENDROOT
BRANCH   1   6
ATOM      3  C   UNL     1       3.576   2.793  -2.094  0.00  0.00    +0.000 A 
ATOM      4  C   UNL     1       3.527   4.179  -1.901  0.00  0.00    +0.000 A 
ATOM      5  C   UNL     1       4.128   4.756  -0.773  0.00  0.00    +0.000 A 
ATOM      6  C   UNL     1       4.798   3.965   0.158  0.00  0.00    +0.000 A 
ATOM      7  C   UNL     1       4.843   2.578  -0.046  0.00  0.00    +0.000 A 
ATOM      8  C   UNL     1       4.222   1.991  -1.153  0.00  0.00    +0.000 A 
BRANCH   3  10
ATOM      9  N   UNL     1       2.809   2.876  -4.406  0.00  0.00    +0.000 N 
ATOM     10  C   UNL     1       2.935   2.136  -3.263  0.00  0.00    +0.000 C 
ATOM     11  O   UNL     1       2.570   0.970  -3.225  0.00  0.00    +0.000 OA
ATOM     12  H   UNL     1       2.474   2.378  -5.221  0.00  0.00    +0.000 HD
ATOM     13  H   UNL     1       3.330   3.726  -4.557  0.00  0.00    +0.000 HD
ENDBRANCH   3  10
ENDBRANCH   1   6
BRANCH   1  14
ATOM     14  C   UNL     1       5.089   5.724   1.985  0.00  0.00    +0.000 C 
ATOM     15  C   UNL     1       4.989   5.575   3.501  0.00  0.00    +0.000 C 
ATOM     16  C   UNL     1       3.756   5.840   2.702  0.00  0.00    +0.000 C 
BRANCH  14  17
ATOM     17  C   UNL     1       5.761   7.001   1.477  0.00  0.00    +0.000 A 
ATOM     18  C   UNL     1       5.015   8.063   0.924  0.00  0.00    +0.000 A 
ATOM     19  C   UNL     1       5.620   9.260   0.534  0.00  0.00    +0.000 A 
ATOM     20  C   UNL     1       6.991   9.407   0.677  0.00  0.00    +0.000 A 
ATOM     21  F   UNL     1       7.572  10.561   0.324  0.00  0.00    +0.000 F 
ATOM     22  C   UNL     1       7.766   8.377   1.191  0.00  0.00    +0.000 A 
ATOM     23  C   UNL     1       7.153   7.184   1.587  0.00  0.00    +0.000 A 
ENDBRANCH  14  17
ENDBRANCH   1  14
TORSDOF 4
