REMARK  Name = 
REMARK  6 active torsions:
REMARK  status: ('A' for Active; 'I' for Inactive)
REMARK    1  A    between atoms: C_2  and  C_20
REMARK    2  A    between atoms: N_3  and  C_4
REMARK    3  A    between atoms: C_4  and  C_5
REMARK    4  A    between atoms: C_8  and  O_9
REMARK    5  A    between atoms: O_9  and  C_10
REMARK    6  A    between atoms: C_10  and  C_11
REMARK                            x       y       z     vdW  Elec       q    Type
REMARK                         _______ _______ _______ _____ _____    ______ ____
ROOT
ATOM      1  C   UNL     1       2.375   1.741  -1.758  0.00  0.00    +0.000 C 
ENDROOT
BRANCH   1   2
ATOM      2  C   UNL     1       3.302   2.660  -2.512  0.00  0.00    +0.000 A 
ATOM      3  C   UNL     1       3.047   4.036  -2.575  0.00  0.00    +0.000 A 
ATOM      4  C   UNL     1       3.924   4.902  -3.243  0.00  0.00    +0.000 A 
ATOM      5  C   UNL     1       5.064   4.400  -3.871  0.00  0.00    +0.000 A 
ATOM      6  C   UNL     1       5.291   3.022  -3.862  0.00  0.00    +0.000 A 
ATOM      7  C   UNL     1       4.422   2.157  -3.187  0.00  0.00    +0.000 A 
BRANCH   5   8
ATOM      8  O   UNL     1       5.995   5.137  -4.553  0.00  0.00    +0.000 OA
BRANCH   8   9
ATOM      9  C   UNL     1       6.113   6.505  -4.179  0.00  0.00    +0.000 C 
BRANCH   9  10
ATOM     10  C   UNL     1       7.189   7.222  -5.003  0.00  0.00    +0.000 C 
ATOM     11  O   UNL     1       6.895   8.199  -5.696  0.00  0.00    +0.000 OA
ATOM     12  N   UNL     1       8.493   6.791  -4.890  0.00  0.00    +0.000 N 
ATOM     13  C   UNL     1       8.994   5.678  -4.108  0.00  0.00    +0.000 C 
ATOM     14  C   UNL     1      10.430   6.082  -3.819  0.00  0.00    +0.000 C 
ATOM     15  C   UNL     1      10.856   6.809  -5.092  0.00  0.00    +0.000 C 
ATOM     16  C   UNL     1       9.569   7.449  -5.609  0.00  0.00    +0.000 C 
ENDBRANCH   9  10
ENDBRANCH   8   9
ENDBRANCH   5   8
ENDBRANCH   1   2
BRANCH   1  19
ATOM     17  O   UNL     1       0.444  -0.094  -0.970  0.00  0.00    +0.000 OA
ATOM     18  C   UNL     1       0.386   0.358  -2.109  0.00  0.00    +0.000 C 
ATOM     19  N   UNL     1       1.337   1.216  -2.609  0.00  0.00    +0.000 N 
ATOM     20  H   UNL     1       1.141   1.731  -3.459  0.00  0.00    +0.000 HD
BRANCH  18  21
ATOM     21  C   UNL     1      -0.675  -0.042  -3.039  0.00  0.00    +0.000 A 
ATOM     22  C   UNL     1      -1.331  -1.255  -2.870  0.00  0.00    +0.000 A 
ATOM     23  S   UNL     1      -2.487  -1.580  -4.081  0.00  0.00    +0.000 S 
ATOM     24  C   UNL     1      -2.191  -0.085  -4.842  0.00  0.00    +0.000 A 
ATOM     25  N   UNL     1      -2.873   0.281  -5.963  0.00  0.00    +0.000 NA
ATOM     26  C   UNL     1      -2.577   1.458  -6.405  0.00  0.00    +0.000 A 
ATOM     27  N   UNL     1      -1.663   2.302  -5.829  0.00  0.00    +0.000 N 
ATOM     28  C   UNL     1      -0.927   1.965  -4.713  0.00  0.00    +0.000 A 
ATOM     29  O   UNL     1      -0.095   2.729  -4.246  0.00  0.00    +0.000 OA
ATOM     30  C   UNL     1      -1.224   0.648  -4.181  0.00  0.00    +0.000 A 
ATOM     31  H   UNL     1      -1.478   3.212  -6.227  0.00  0.00    +0.000 HD
ENDBRANCH  18  21
ENDBRANCH   1  19
TORSDOF 6
