REMARK  Name = 
REMARK  5 active torsions:
REMARK  status: ('A' for Active; 'I' for Inactive)
REMARK    1  A    between atoms: N_1  and  C_2
REMARK    2  A    between atoms: C_4  and  N_5
REMARK    3  A    between atoms: C_4  and  C_16
REMARK    4  A    between atoms: N_5  and  C_6
REMARK    5  A    between atoms: C_9  and  C_10
REMARK                            x       y       z     vdW  Elec       q    Type
REMARK                         _______ _______ _______ _____ _____    ______ ____
ROOT
ATOM      1  C   UNL     1       2.090   0.031   0.307  0.00  0.00    +0.000 C 
ATOM      2  C   UNL     1       3.053  -1.084   0.730  0.00  0.00    +0.000 C 
ATOM      3  C   UNL     1       4.176  -0.029   1.035  0.00  0.00    +0.000 C 
ATOM      4  C   UNL     1       3.102   1.087   0.782  0.00  0.00    +0.000 C 
ENDROOT
BRANCH   3   5
ATOM      5  C   UNL     1       5.462  -0.116   0.165  0.00  0.00    +0.000 C 
ATOM      6  C   UNL     1       5.195   0.124  -1.328  0.00  0.00    +0.000 C 
ATOM      7  C   UNL     1       6.462   0.013  -2.169  0.00  0.00    +0.000 C 
ATOM      8  C   UNL     1       7.111  -1.351  -1.983  0.00  0.00    +0.000 C 
ATOM      9  C   UNL     1       7.424  -1.607  -0.514  0.00  0.00    +0.000 C 
ATOM     10  C   UNL     1       6.185  -1.465   0.370  0.00  0.00    +0.000 C 
ENDBRANCH   3   5
BRANCH   1  11
ATOM     11  N   UNL     1       1.953   0.057  -1.148  0.00  0.00    +0.000 NA
ATOM     12  H   UNL     1       1.907  -0.855  -1.599  0.00  0.00    +0.000 HD
ATOM     13  H   UNL     1       2.626   0.617  -1.665  0.00  0.00    +0.000 HD
ENDBRANCH   1  11
BRANCH   3  14
ATOM     14  N   UNL     1       4.503  -0.079   2.458  0.00  0.00    +0.000 N 
ATOM     15  H   UNL     1       4.392  -1.004   2.866  0.00  0.00    +0.000 HD
BRANCH  14  16
ATOM     16  C   UNL     1       5.427   0.717   3.178  0.00  0.00    +0.000 A 
ATOM     17  C   UNL     1       5.782   2.009   2.786  0.00  0.00    +0.000 A 
ATOM     18  C   UNL     1       6.740   2.740   3.499  0.00  0.00    +0.000 A 
ATOM     19  C   UNL     1       7.365   2.193   4.628  0.00  0.00    +0.000 A 
ATOM     20  C   UNL     1       6.991   0.905   5.040  0.00  0.00    +0.000 A 
ATOM     21  C   UNL     1       6.032   0.183   4.325  0.00  0.00    +0.000 A 
BRANCH  19  22
ATOM     22  C   UNL     1       8.412   2.957   5.400  0.00  0.00    +0.000 C 
ATOM     23  F   UNL     1       8.688   4.186   4.881  0.00  0.00    +0.000 F 
ATOM     24  F   UNL     1       8.056   3.173   6.697  0.00  0.00    +0.000 F 
ATOM     25  F   UNL     1       9.605   2.299   5.448  0.00  0.00    +0.000 F 
ENDBRANCH  19  22
ENDBRANCH  14  16
ENDBRANCH   3  14
TORSDOF 5
