REMARK  Name = 
REMARK  7 active torsions:
REMARK  status: ('A' for Active; 'I' for Inactive)
REMARK    1  A    between atoms: C_1  and  S_2
REMARK    2  A    between atoms: S_2  and  C_3
REMARK    3  A    between atoms: N_5  and  C_6
REMARK    4  A    between atoms: C_6  and  C_7
REMARK    5  A    between atoms: C_10  and  C_11
REMARK    6  A    between atoms: C_11  and  C_12
REMARK    7  A    between atoms: C_12  and  N_13
REMARK                            x       y       z     vdW  Elec       q    Type
REMARK                         _______ _______ _______ _____ _____    ______ ____
ROOT
ATOM      1  C   UNL     1       4.575  -1.225   4.654  0.00  0.00    +0.000 C 
ENDROOT
BRANCH   1   4
ATOM      2  C   UNL     1       4.069  -1.560   1.078  0.00  0.00    +0.000 A 
ATOM      3  C   UNL     1       4.874  -1.566   2.190  0.00  0.00    +0.000 A 
ATOM      4  N   UNL     1       4.071  -1.370   3.289  0.00  0.00    +0.000 N 
ATOM      5  C   UNL     1       2.743  -1.313   2.900  0.00  0.00    +0.000 A 
ATOM      6  C   UNL     1       1.561  -1.167   3.647  0.00  0.00    +0.000 A 
ATOM      7  C   UNL     1       0.344  -1.111   2.963  0.00  0.00    +0.000 A 
ATOM      8  C   UNL     1       0.299  -1.203   1.576  0.00  0.00    +0.000 A 
ATOM      9  C   UNL     1       1.476  -1.358   0.838  0.00  0.00    +0.000 A 
ATOM     10  C   UNL     1       2.721  -1.415   1.503  0.00  0.00    +0.000 A 
BRANCH   2  12
ATOM     11  C   UNL     1       4.966   0.027  -0.932  0.00  0.00    +0.000 C 
ATOM     12  S   UNL     1       4.624  -1.711  -0.571  0.00  0.00    +0.000 S 
ENDBRANCH   2  12
ENDBRANCH   1   4
BRANCH   1  13
ATOM     13  C   UNL     1       4.897   0.220   4.950  0.00  0.00    +0.000 A 
ATOM     14  C   UNL     1       3.912   1.083   5.450  0.00  0.00    +0.000 A 
ATOM     15  C   UNL     1       4.152   2.455   5.550  0.00  0.00    +0.000 A 
ATOM     16  C   UNL     1       5.381   2.992   5.150  0.00  0.00    +0.000 A 
ATOM     17  C   UNL     1       6.398   2.122   4.738  0.00  0.00    +0.000 A 
ATOM     18  C   UNL     1       6.157   0.750   4.634  0.00  0.00    +0.000 A 
BRANCH  16  19
ATOM     19  C   UNL     1       5.574   4.488   5.092  0.00  0.00    +0.000 C 
BRANCH  19  20
ATOM     20  C   UNL     1       6.049   5.100   6.411  0.00  0.00    +0.000 C 
BRANCH  20  21
ATOM     21  N   UNL     1       6.173   6.552   6.282  0.00  0.00    +0.000 NA
ATOM     22  H   UNL     1       6.869   6.776   5.572  0.00  0.00    +0.000 HD
ATOM     23  H   UNL     1       6.516   6.944   7.156  0.00  0.00    +0.000 HD
ENDBRANCH  20  21
ENDBRANCH  19  20
ENDBRANCH  16  19
ENDBRANCH   1  13
TORSDOF 6
