REMARK  Name = 
REMARK  5 active torsions:
REMARK  status: ('A' for Active; 'I' for Inactive)
REMARK    1  A    between atoms: C_2  and  C_4
REMARK    2  A    between atoms: C_7  and  N_8
REMARK    3  A    between atoms: N_8  and  C_9
REMARK    4  A    between atoms: C_9  and  C_10
REMARK    5  A    between atoms: C_15  and  C_16
REMARK                            x       y       z     vdW  Elec       q    Type
REMARK                         _______ _______ _______ _____ _____    ______ ____
ROOT
ATOM      1  C   UNL     1       4.482  -4.932   3.731  0.00  0.00    +0.000 C 
ENDROOT
BRANCH   1   2
ATOM      2  C   UNL     1       5.178  -5.720   4.822  0.00  0.00    +0.000 A 
ATOM      3  C   UNL     1       5.956  -5.077   5.788  0.00  0.00    +0.000 A 
ATOM      4  C   UNL     1       6.570  -5.825   6.783  0.00  0.00    +0.000 A 
ATOM      5  F   UNL     1       7.313  -5.202   7.708  0.00  0.00    +0.000 F 
ATOM      6  C   UNL     1       6.424  -7.209   6.846  0.00  0.00    +0.000 A 
ATOM      7  C   UNL     1       5.663  -7.899   5.888  0.00  0.00    +0.000 A 
ATOM      8  C   UNL     1       5.057  -7.124   4.877  0.00  0.00    +0.000 A 
BRANCH   7   9
ATOM      9  C   UNL     1       5.498  -9.371   5.940  0.00  0.00    +0.000 A 
ATOM     10  C   UNL     1       4.328 -10.010   5.500  0.00  0.00    +0.000 A 
ATOM     11  C   UNL     1       4.205 -11.399   5.557  0.00  0.00    +0.000 A 
ATOM     12  C   UNL     1       5.259 -12.131   6.069  0.00  0.00    +0.000 A 
ATOM     13  N   UNL     1       6.403 -11.574   6.512  0.00  0.00    +0.000 NA
ATOM     14  C   UNL     1       6.493 -10.222   6.432  0.00  0.00    +0.000 A 
ENDBRANCH   7   9
ENDBRANCH   1   2
BRANCH   1  15
ATOM     15  N   UNL     1       3.047  -5.186   3.813  0.00  0.00    +0.000 N 
ATOM     16  H   UNL     1       2.684  -4.978   4.739  0.00  0.00    +0.000 HD
BRANCH  15  20
ATOM     17  C   UNL     1       0.658  -3.443   0.955  0.00  0.00    +0.000 A 
ATOM     18  C   UNL     1       2.026  -3.224   0.959  0.00  0.00    +0.000 A 
ATOM     19  N   UNL     1       2.854  -3.768   1.894  0.00  0.00    +0.000 NA
ATOM     20  C   UNL     1       2.274  -4.540   2.838  0.00  0.00    +0.000 A 
ATOM     21  C   UNL     1       0.886  -4.748   2.814  0.00  0.00    +0.000 A 
ATOM     22  N   UNL     1       0.042  -4.210   1.894  0.00  0.00    +0.000 NA
BRANCH  17  24
ATOM     23  N   UNL     1      -1.531  -3.094  -0.018  0.00  0.00    +0.000 N 
ATOM     24  C   UNL     1      -0.188  -2.842  -0.111  0.00  0.00    +0.000 C 
ATOM     25  O   UNL     1       0.282  -2.167  -1.018  0.00  0.00    +0.000 OA
ATOM     26  H   UNL     1      -2.158  -2.727  -0.721  0.00  0.00    +0.000 HD
ATOM     27  H   UNL     1      -1.889  -3.665   0.739  0.00  0.00    +0.000 HD
ENDBRANCH  17  24
ENDBRANCH  15  20
ENDBRANCH   1  15
TORSDOF 5
