REMARK  Name = 
REMARK  7 active torsions:
REMARK  status: ('A' for Active; 'I' for Inactive)
REMARK    1  A    between atoms: C_1  and  C_2
REMARK    2  A    between atoms: C_2  and  N_3
REMARK    3  A    between atoms: C_2  and  C_21
REMARK    4  A    between atoms: C_4  and  C_6
REMARK    5  A    between atoms: C_9  and  C_10
REMARK    6  A    between atoms: C_10  and  N_11
REMARK    7  A    between atoms: C_12  and  C_14
REMARK                            x       y       z     vdW  Elec       q    Type
REMARK                         _______ _______ _______ _____ _____    ______ ____
ROOT
ATOM      1  N   UNL     1       1.036   0.032  -0.051  0.00  0.00    +0.000 N 
ATOM      2  C   UNL     1       0.307   0.325   1.082  0.00  0.00    +0.000 C 
ATOM      3  O   UNL     1       0.771   0.326   2.212  0.00  0.00    +0.000 OA
ATOM      4  H   UNL     1       0.679   0.309  -0.962  0.00  0.00    +0.000 HD
ENDROOT
BRANCH   2   5
ATOM      5  C   UNL     1      -1.113   0.671   0.866  0.00  0.00    +0.000 A 
ATOM      6  C   UNL     1      -1.758   1.535   1.745  0.00  0.00    +0.000 A 
ATOM      7  C   UNL     1      -3.092   1.866   1.522  0.00  0.00    +0.000 A 
ATOM      8  C   UNL     1      -3.755   1.302   0.431  0.00  0.00    +0.000 A 
ATOM      9  N   UNL     1      -3.149   0.443  -0.428  0.00  0.00    +0.000 NA
ATOM     10  C   UNL     1      -1.849   0.140  -0.186  0.00  0.00    +0.000 A 
BRANCH   8  11
ATOM     11  C   UNL     1      -5.186   1.680   0.135  0.00  0.00    +0.000 C 
BRANCH  11  12
ATOM     12  N   UNL     1      -5.270   2.830  -0.736  0.00  0.00    +0.000 N 
ATOM     13  C   UNL     1      -5.423   4.112  -0.271  0.00  0.00    +0.000 C 
ATOM     14  O   UNL     1      -5.479   4.391   0.924  0.00  0.00    +0.000 OA
ATOM     15  H   UNL     1      -5.072   2.707  -1.724  0.00  0.00    +0.000 HD
BRANCH  13  16
ATOM     16  C   UNL     1      -5.516   5.108  -1.311  0.00  0.00    +0.000 A 
ATOM     17  N   UNL     1      -5.532   4.865  -2.608  0.00  0.00    +0.000 NA
ATOM     18  N   UNL     1      -5.662   6.072  -3.260  0.00  0.00    +0.000 NA
ATOM     19  C   UNL     1      -5.715   7.016  -2.348  0.00  0.00    +0.000 A 
ATOM     20  N   UNL     1      -5.628   6.457  -1.111  0.00  0.00    +0.000 N 
ATOM     21  H   UNL     1      -5.645   6.922  -0.215  0.00  0.00    +0.000 HD
ENDBRANCH  13  16
ENDBRANCH  11  12
ENDBRANCH   8  11
ENDBRANCH   2   5
BRANCH   1  23
ATOM     22  C   UNL     1       2.786  -1.316  -1.069  0.00  0.00    +0.000 C 
ATOM     23  C   UNL     1       2.445  -0.279  -0.000  0.00  0.00    +0.000 C 
BRANCH  23  24
ATOM     24  C   UNL     1       3.234   1.000  -0.144  0.00  0.00    +0.000 A 
ATOM     25  C   UNL     1       4.127   1.463   0.810  0.00  0.00    +0.000 A 
ATOM     26  S   UNL     1       4.960   2.876   0.329  0.00  0.00    +0.000 S 
ATOM     27  C   UNL     1       4.144   2.921  -1.163  0.00  0.00    +0.000 A 
ATOM     28  N   UNL     1       4.426   3.864  -2.105  0.00  0.00    +0.000 NA
ATOM     29  C   UNL     1       3.749   3.739  -3.197  0.00  0.00    +0.000 A 
ATOM     30  N   UNL     1       2.790   2.784  -3.425  0.00  0.00    +0.000 N 
ATOM     31  C   UNL     1       2.383   1.895  -2.459  0.00  0.00    +0.000 A 
ATOM     32  O   UNL     1       1.390   1.189  -2.599  0.00  0.00    +0.000 OA
ATOM     33  C   UNL     1       3.208   1.913  -1.264  0.00  0.00    +0.000 A 
ATOM     34  H   UNL     1       2.255   2.788  -4.282  0.00  0.00    +0.000 HD
ENDBRANCH  23  24
ENDBRANCH   1  23
TORSDOF 6
