REMARK  Name = 
REMARK  7 active torsions:
REMARK  status: ('A' for Active; 'I' for Inactive)
REMARK    1  A    between atoms: C_1  and  C_2
REMARK    2  A    between atoms: C_2  and  N_3
REMARK    3  A    between atoms: C_2  and  C_17
REMARK    4  A    between atoms: C_4  and  C_6
REMARK    5  A    between atoms: N_12  and  C_13
REMARK    6  A    between atoms: C_20  and  O_21
REMARK    7  A    between atoms: O_21  and  C_22
REMARK                            x       y       z     vdW  Elec       q    Type
REMARK                         _______ _______ _______ _____ _____    ______ ____
ROOT
ATOM      1  C   UNL     1       2.921   1.444   0.471  0.00  0.00    +0.000 C 
ATOM      2  C   UNL     1       2.453   0.092  -0.071  0.00  0.00    +0.000 C 
ENDROOT
BRANCH   2   3
ATOM      3  C   UNL     1       2.893  -1.109   0.755  0.00  0.00    +0.000 A 
ATOM      4  C   UNL     1       3.053  -2.345   0.107  0.00  0.00    +0.000 A 
ATOM      5  C   UNL     1       3.383  -3.499   0.823  0.00  0.00    +0.000 A 
ATOM      6  C   UNL     1       3.620  -3.427   2.195  0.00  0.00    +0.000 A 
ATOM      7  C   UNL     1       3.414  -2.219   2.862  0.00  0.00    +0.000 A 
ATOM      8  C   UNL     1       3.045  -1.071   2.150  0.00  0.00    +0.000 A 
BRANCH   6   9
ATOM      9  O   UNL     1       3.982  -4.501   2.979  0.00  0.00    +0.000 OA
BRANCH   9  10
ATOM     10  C   UNL     1       4.801  -5.483   2.463  0.00  0.00    +0.000 A 
ATOM     11  C   UNL     1       5.785  -5.265   1.503  0.00  0.00    +0.000 A 
ATOM     12  C   UNL     1       6.504  -6.355   1.046  0.00  0.00    +0.000 A 
ATOM     13  N   UNL     1       6.347  -7.609   1.521  0.00  0.00    +0.000 NA
ATOM     14  C   UNL     1       5.435  -7.777   2.502  0.00  0.00    +0.000 A 
ATOM     15  C   UNL     1       4.645  -6.756   3.002  0.00  0.00    +0.000 A 
ENDBRANCH   9  10
ENDBRANCH   6   9
ENDBRANCH   2   3
BRANCH   2  16
ATOM     16  N   UNL     1       1.009   0.065  -0.192  0.00  0.00    +0.000 N 
ATOM     17  C   UNL     1       0.327   0.641  -1.231  0.00  0.00    +0.000 C 
ATOM     18  O   UNL     1       0.893   1.278  -2.115  0.00  0.00    +0.000 OA
ATOM     19  H   UNL     1       0.520  -0.572   0.429  0.00  0.00    +0.000 HD
BRANCH  17  20
ATOM     20  C   UNL     1      -1.135   0.496  -1.206  0.00  0.00    +0.000 A 
ATOM     21  C   UNL     1      -1.932   1.408  -1.884  0.00  0.00    +0.000 A 
ATOM     22  S   UNL     1      -3.602   1.097  -1.735  0.00  0.00    +0.000 S 
ATOM     23  C   UNL     1      -3.317  -0.292  -0.792  0.00  0.00    +0.000 A 
ATOM     24  N   UNL     1      -4.345  -1.058  -0.348  0.00  0.00    +0.000 NA
ATOM     25  C   UNL     1      -3.985  -2.097   0.333  0.00  0.00    +0.000 A 
ATOM     26  N   UNL     1      -2.688  -2.446   0.630  0.00  0.00    +0.000 N 
ATOM     27  C   UNL     1      -2.391  -3.623   1.423  0.00  0.00    +0.000 C 
ATOM     28  C   UNL     1      -1.611  -1.666   0.220  0.00  0.00    +0.000 A 
ATOM     29  O   UNL     1      -0.454  -1.926   0.528  0.00  0.00    +0.000 OA
ATOM     30  C   UNL     1      -1.970  -0.501  -0.573  0.00  0.00    +0.000 A 
ENDBRANCH  17  20
ENDBRANCH   2  16
TORSDOF 5
