REMARK  Name = 
REMARK  5 active torsions:
REMARK  status: ('A' for Active; 'I' for Inactive)
REMARK    1  A    between atoms: C_2  and  C_4
REMARK    2  A    between atoms: C_7  and  N_8
REMARK    3  A    between atoms: N_8  and  C_9
REMARK    4  A    between atoms: C_9  and  C_10
REMARK    5  A    between atoms: C_14  and  C_15
REMARK                            x       y       z     vdW  Elec       q    Type
REMARK                         _______ _______ _______ _____ _____    ______ ____
ROOT
ATOM      1  N   UNL     1       4.505  -3.507  -5.080  0.00  0.00    +0.000 N 
ATOM      2  H   UNL     1       3.819  -3.861  -5.738  0.00  0.00    +0.000 HD
ENDROOT
BRANCH   1   6
ATOM      3  C   UNL     1       3.824   0.399  -4.015  0.00  0.00    +0.000 A 
ATOM      4  C   UNL     1       4.047  -0.567  -3.050  0.00  0.00    +0.000 A 
ATOM      5  N   UNL     1       4.236  -1.877  -3.359  0.00  0.00    +0.000 NA
ATOM      6  C   UNL     1       4.203  -2.206  -4.667  0.00  0.00    +0.000 A 
ATOM      7  C   UNL     1       3.971  -1.211  -5.628  0.00  0.00    +0.000 A 
ATOM      8  N   UNL     1       3.765   0.103  -5.342  0.00  0.00    +0.000 NA
BRANCH   3  10
ATOM      9  N   UNL     1       3.392   2.701  -4.623  0.00  0.00    +0.000 N 
ATOM     10  C   UNL     1       3.651   1.820  -3.609  0.00  0.00    +0.000 C 
ATOM     11  O   UNL     1       3.734   2.182  -2.443  0.00  0.00    +0.000 OA
ATOM     12  H   UNL     1       3.259   3.679  -4.408  0.00  0.00    +0.000 HD
ATOM     13  H   UNL     1       3.323   2.371  -5.579  0.00  0.00    +0.000 HD
ENDBRANCH   3  10
ENDBRANCH   1   6
BRANCH   1  14
ATOM     14  C   UNL     1       4.787  -4.467  -4.019  0.00  0.00    +0.000 C 
BRANCH  14  15
ATOM     15  C   UNL     1       5.717  -5.535  -4.552  0.00  0.00    +0.000 A 
ATOM     16  C   UNL     1       6.952  -5.167  -5.105  0.00  0.00    +0.000 A 
ATOM     17  C   UNL     1       7.851  -6.135  -5.537  0.00  0.00    +0.000 A 
ATOM     18  C   UNL     1       7.540  -7.487  -5.393  0.00  0.00    +0.000 A 
ATOM     19  C   UNL     1       6.329  -7.901  -4.806  0.00  0.00    +0.000 A 
ATOM     20  C   UNL     1       5.414  -6.901  -4.418  0.00  0.00    +0.000 A 
BRANCH  19  21
ATOM     21  C   UNL     1       6.044  -9.327  -4.553  0.00  0.00    +0.000 A 
ATOM     22  C   UNL     1       7.041 -10.247  -4.218  0.00  0.00    +0.000 A 
ATOM     23  N   UNL     1       6.803 -11.556  -3.952  0.00  0.00    +0.000 NA
ATOM     24  C   UNL     1       5.508 -11.925  -4.023  0.00  0.00    +0.000 A 
ATOM     25  C   UNL     1       4.503 -11.028  -4.347  0.00  0.00    +0.000 A 
ATOM     26  N   UNL     1       4.744  -9.720  -4.612  0.00  0.00    +0.000 NA
ENDBRANCH  19  21
ENDBRANCH  14  15
ENDBRANCH   1  14
TORSDOF 5
