REMARK  Name = 
REMARK  5 active torsions:
REMARK  status: ('A' for Active; 'I' for Inactive)
REMARK    1  A    between atoms: N_1  and  C_2
REMARK    2  A    between atoms: C_2  and  C_3
REMARK    3  A    between atoms: C_6  and  O_7
REMARK    4  A    between atoms: O_7  and  C_8
REMARK    5  A    between atoms: C_8  and  C_9
REMARK                            x       y       z     vdW  Elec       q    Type
REMARK                         _______ _______ _______ _____ _____    ______ ____
ROOT
ATOM      1  C   UNL     1       2.911   0.836   1.061  0.00  0.00    +0.000 A 
ATOM      2  C   UNL     1       2.866   2.229   0.912  0.00  0.00    +0.000 A 
ATOM      3  C   UNL     1       3.123   3.076   1.995  0.00  0.00    +0.000 A 
ATOM      4  C   UNL     1       3.424   2.539   3.246  0.00  0.00    +0.000 A 
ATOM      5  C   UNL     1       3.515   1.154   3.392  0.00  0.00    +0.000 A 
ATOM      6  C   UNL     1       3.253   0.306   2.311  0.00  0.00    +0.000 A 
ENDROOT
BRANCH   1   7
ATOM      7  C   UNL     1       2.557  -0.068  -0.092  0.00  0.00    +0.000 C 
BRANCH   7   8
ATOM      8  N   UNL     1       3.405   0.172  -1.254  0.00  0.00    +0.000 NA
ATOM      9  H   UNL     1       3.214  -0.540  -1.956  0.00  0.00    +0.000 HD
ATOM     10  H   UNL     1       4.377   0.053  -0.978  0.00  0.00    +0.000 HD
ENDBRANCH   7   8
ENDBRANCH   1   7
BRANCH   4  11
ATOM     11  O   UNL     1       3.690   3.269   4.373  0.00  0.00    +0.000 OA
BRANCH  11  12
ATOM     12  C   UNL     1       2.978   4.508   4.478  0.00  0.00    +0.000 C 
BRANCH  12  13
ATOM     13  C   UNL     1       3.307   5.191   5.789  0.00  0.00    +0.000 A 
ATOM     14  N   UNL     1       4.356   6.046   5.798  0.00  0.00    +0.000 NA
ATOM     15  C   UNL     1       4.622   6.662   6.963  0.00  0.00    +0.000 A 
ATOM     16  C   UNL     1       3.886   6.472   8.107  0.00  0.00    +0.000 A 
ATOM     17  C   UNL     1       2.838   5.589   7.997  0.00  0.00    +0.000 A 
ATOM     18  N   UNL     1       2.524   4.941   6.859  0.00  0.00    +0.000 NA
ENDBRANCH  12  13
ENDBRANCH  11  12
ENDBRANCH   4  11
TORSDOF 5
