REMARK  Name = 
REMARK  6 active torsions:
REMARK  status: ('A' for Active; 'I' for Inactive)
REMARK    1  A    between atoms: C_1  and  C_2
REMARK    2  A    between atoms: C_2  and  C_3
REMARK    3  A    between atoms: C_2  and  N_4
REMARK    4  A    between atoms: C_2  and  C_14
REMARK    5  A    between atoms: N_4  and  C_5
REMARK    6  A    between atoms: C_8  and  C_9
REMARK                            x       y       z     vdW  Elec       q    Type
REMARK                         _______ _______ _______ _____ _____    ______ ____
ROOT
ATOM      1  N   UNL     1       2.865  -1.157  -0.766  0.00  0.00    +0.000 N 
ATOM      2  H   UNL     1       2.736  -1.935  -0.122  0.00  0.00    +0.000 HD
ENDROOT
BRANCH   1   3
ATOM      3  C   UNL     1       2.501  -1.527  -2.064  0.00  0.00    +0.000 A 
ATOM      4  C   UNL     1       2.333  -0.627  -3.117  0.00  0.00    +0.000 A 
ATOM      5  C   UNL     1       2.035  -1.054  -4.409  0.00  0.00    +0.000 A 
ATOM      6  C   UNL     1       1.937  -2.411  -4.645  0.00  0.00    +0.000 A 
ATOM      7  N   UNL     1       2.129  -3.354  -3.686  0.00  0.00    +0.000 NA
ATOM      8  C   UNL     1       2.422  -2.879  -2.440  0.00  0.00    +0.000 A 
BRANCH   6   9
ATOM      9  C   UNL     1       1.626  -2.870  -6.035  0.00  0.00    +0.000 C 
ATOM     10  N   UNL     1       1.571  -4.218  -6.227  0.00  0.00    +0.000 N 
ATOM     11  O   UNL     1       1.436  -2.086  -6.960  0.00  0.00    +0.000 OA
ATOM     12  H   UNL     1       1.752  -4.844  -5.451  0.00  0.00    +0.000 HD
ATOM     13  H   UNL     1       1.390  -4.577  -7.153  0.00  0.00    +0.000 HD
ENDBRANCH   6   9
ENDBRANCH   1   3
BRANCH   1  15
ATOM     14  C   UNL     1       0.923   0.139   0.032  0.00  0.00    +0.000 C 
ATOM     15  C   UNL     1       2.461   0.123  -0.117  0.00  0.00    +0.000 C 
ATOM     16  C   UNL     1       3.033   0.107   1.328  0.00  0.00    +0.000 C 
BRANCH  15  17
ATOM     17  C   UNL     1       3.057   1.355  -0.821  0.00  0.00    +0.000 A 
ATOM     18  C   UNL     1       2.251   2.386  -1.347  0.00  0.00    +0.000 A 
ATOM     19  C   UNL     1       2.813   3.482  -2.009  0.00  0.00    +0.000 A 
ATOM     20  C   UNL     1       4.194   3.580  -2.138  0.00  0.00    +0.000 A 
ATOM     21 CL   UNL     1       4.882   4.941  -2.932  0.00  0.00    +0.000 Cl
ATOM     22  C   UNL     1       5.017   2.579  -1.633  0.00  0.00    +0.000 A 
ATOM     23  C   UNL     1       4.453   1.472  -0.991  0.00  0.00    +0.000 A 
ENDBRANCH  15  17
ENDBRANCH   1  15
TORSDOF 4
