REMARK  Name = 
REMARK  5 active torsions:
REMARK  status: ('A' for Active; 'I' for Inactive)
REMARK    1  A    between atoms: C_2  and  C_4
REMARK    2  A    between atoms: C_7  and  N_8
REMARK    3  A    between atoms: N_8  and  C_9
REMARK    4  A    between atoms: C_9  and  C_10
REMARK    5  A    between atoms: C_12  and  N_13
REMARK                            x       y       z     vdW  Elec       q    Type
REMARK                         _______ _______ _______ _____ _____    ______ ____
ROOT
ATOM      1  N   UNL     1       5.657  -1.651  -4.400  0.00  0.00    +0.000 N 
ATOM      2  H   UNL     1       5.964  -2.291  -3.674  0.00  0.00    +0.000 HD
ENDROOT
BRANCH   1   6
ATOM      3  C   UNL     1       4.184   1.886  -2.921  0.00  0.00    +0.000 A 
ATOM      4  C   UNL     1       3.457   1.143  -3.835  0.00  0.00    +0.000 A 
ATOM      5  N   UNL     1       3.892  -0.051  -4.318  0.00  0.00    +0.000 NA
ATOM      6  C   UNL     1       5.079  -0.499  -3.858  0.00  0.00    +0.000 A 
ATOM      7  C   UNL     1       5.790   0.260  -2.917  0.00  0.00    +0.000 A 
ATOM      8  N   UNL     1       5.377   1.458  -2.423  0.00  0.00    +0.000 NA
BRANCH   3  10
ATOM      9  N   UNL     1       4.514   3.927  -1.662  0.00  0.00    +0.000 N 
ATOM     10  C   UNL     1       3.688   3.221  -2.493  0.00  0.00    +0.000 C 
ATOM     11  O   UNL     1       2.615   3.673  -2.875  0.00  0.00    +0.000 OA
ATOM     12  H   UNL     1       4.250   4.858  -1.374  0.00  0.00    +0.000 HD
ATOM     13  H   UNL     1       5.413   3.544  -1.393  0.00  0.00    +0.000 HD
ENDBRANCH   3  10
ENDBRANCH   1   6
BRANCH   1  14
ATOM     14  C   UNL     1       4.874  -2.343  -5.428  0.00  0.00    +0.000 C 
BRANCH  14  15
ATOM     15  C   UNL     1       5.802  -3.068  -6.386  0.00  0.00    +0.000 A 
ATOM     16  C   UNL     1       6.736  -2.339  -7.110  0.00  0.00    +0.000 A 
ATOM     17  C   UNL     1       7.564  -3.010  -7.992  0.00  0.00    +0.000 A 
ATOM     18  N   UNL     1       7.449  -4.342  -8.129  0.00  0.00    +0.000 NA
ATOM     19  C   UNL     1       6.513  -4.968  -7.396  0.00  0.00    +0.000 A 
ATOM     20  N   UNL     1       5.675  -4.401  -6.520  0.00  0.00    +0.000 NA
BRANCH  17  21
ATOM     21  N   UNL     1       8.539  -2.348  -8.708  0.00  0.00    +0.000 N 
ATOM     22  C   UNL     1       8.398  -0.962  -9.171  0.00  0.00    +0.000 C 
ATOM     23  C   UNL     1       8.438  -0.902 -10.709  0.00  0.00    +0.000 C 
ATOM     24  O   UNL     1       9.604  -1.551 -11.238  0.00  0.00    +0.000 OA
ATOM     25  C   UNL     1       9.610  -2.938 -10.857  0.00  0.00    +0.000 C 
ATOM     26  C   UNL     1       9.638  -3.099  -9.331  0.00  0.00    +0.000 C 
ENDBRANCH  17  21
ENDBRANCH  14  15
ENDBRANCH   1  14
TORSDOF 5
