REMARK  Name = 
REMARK  5 active torsions:
REMARK  status: ('A' for Active; 'I' for Inactive)
REMARK    1  A    between atoms: C_2  and  C_3
REMARK    2  A    between atoms: C_6  and  N_7
REMARK    3  A    between atoms: N_7  and  C_8
REMARK    4  A    between atoms: C_8  and  C_9
REMARK    5  A    between atoms: C_13  and  C_14
REMARK                            x       y       z     vdW  Elec       q    Type
REMARK                         _______ _______ _______ _____ _____    ______ ____
ROOT
ATOM      1  C   UNL     1       8.714  -1.018   0.008  0.00  0.00    +0.000 C 
ATOM      2  C   UNL     1       8.917  -1.632  -1.370  0.00  0.00    +0.000 C 
ATOM      3  C   UNL     1       8.972  -2.497  -0.156  0.00  0.00    +0.000 C 
ENDROOT
BRANCH   1   4
ATOM      4  C   UNL     1       9.798  -0.140   0.610  0.00  0.00    +0.000 A 
ATOM      5  C   UNL     1      10.373  -0.407   1.861  0.00  0.00    +0.000 A 
ATOM      6  C   UNL     1      11.197   0.527   2.487  0.00  0.00    +0.000 A 
ATOM      7  C   UNL     1      11.446   1.757   1.877  0.00  0.00    +0.000 A 
ATOM      8  C   UNL     1      10.902   2.070   0.620  0.00  0.00    +0.000 A 
ATOM      9  C   UNL     1      10.123   1.083  -0.006  0.00  0.00    +0.000 A 
BRANCH   8  10
ATOM     10  C   UNL     1      11.034   3.418   0.026  0.00  0.00    +0.000 A 
ATOM     11  C   UNL     1      10.954   4.567   0.838  0.00  0.00    +0.000 A 
ATOM     12  C   UNL     1      11.021   5.855   0.300  0.00  0.00    +0.000 A 
ATOM     13  C   UNL     1      11.149   6.026  -1.076  0.00  0.00    +0.000 A 
ATOM     14  C   UNL     1      11.217   4.912  -1.907  0.00  0.00    +0.000 A 
ATOM     15  C   UNL     1      11.165   3.630  -1.358  0.00  0.00    +0.000 A 
ATOM     16  F   UNL     1      11.231   2.591  -2.205  0.00  0.00    +0.000 F 
ENDBRANCH   8  10
ENDBRANCH   1   4
BRANCH   1  17
ATOM     17  N   UNL     1       7.376  -0.411   0.145  0.00  0.00    +0.000 N 
ATOM     18  H   UNL     1       7.321   0.511  -0.285  0.00  0.00    +0.000 HD
BRANCH  17  22
ATOM     19  C   UNL     1       4.742  -0.690   3.296  0.00  0.00    +0.000 A 
ATOM     20  N   UNL     1       5.846  -1.448   3.384  0.00  0.00    +0.000 NA
ATOM     21  C   UNL     1       6.727  -1.326   2.365  0.00  0.00    +0.000 A 
ATOM     22  C   UNL     1       6.569  -0.478   1.286  0.00  0.00    +0.000 A 
ATOM     23  C   UNL     1       5.381   0.245   1.324  0.00  0.00    +0.000 A 
ATOM     24  N   UNL     1       4.459   0.177   2.305  0.00  0.00    +0.000 NA
BRANCH  19  26
ATOM     25  N   UNL     1       2.925  -0.947   5.143  0.00  0.00    +0.000 NA
ATOM     26  C   UNL     1       3.748  -0.842   4.330  0.00  0.00    +0.000 C 
ENDBRANCH  19  26
ENDBRANCH  17  22
ENDBRANCH   1  17
TORSDOF 5
