REMARK  Name = 
REMARK  11 active torsions:
REMARK  status: ('A' for Active; 'I' for Inactive)
REMARK    1  A    between atoms: C_1  and  C_2
REMARK    2  A    between atoms: C_2  and  C_3
REMARK    3  A    between atoms: C_3  and  N_4
REMARK    4  A    between atoms: N_4  and  C_5
REMARK    5  A    between atoms: C_5  and  C_6
REMARK    6  A    between atoms: C_5  and  C_18
REMARK    7  A    between atoms: C_6  and  C_8
REMARK    8  A    between atoms: C_21  and  C_22
REMARK    9  A    between atoms: C_22  and  N_23
REMARK   10  A    between atoms: N_23  and  C_24
REMARK   11  A    between atoms: C_27  and  O_28
REMARK                            x       y       z     vdW  Elec       q    Type
REMARK                         _______ _______ _______ _____ _____    ______ ____
ROOT
ATOM      1  C   UNL     1      15.626  -4.724  10.696  0.00  0.00    +0.000 C 
ENDROOT
BRANCH   1   2
ATOM      2  C   UNL     1      15.268  -4.162   9.318  0.00  0.00    +0.000 A 
ATOM      3  C   UNL     1      14.061  -3.474   9.122  0.00  0.00    +0.000 A 
ATOM      4  C   UNL     1      13.774  -2.873   7.889  0.00  0.00    +0.000 A 
ATOM      5  C   UNL     1      14.683  -2.947   6.823  0.00  0.00    +0.000 A 
ATOM      6  C   UNL     1      15.859  -3.683   7.001  0.00  0.00    +0.000 A 
ATOM      7  C   UNL     1      16.140  -4.296   8.225  0.00  0.00    +0.000 A 
BRANCH   5   8
ATOM      8  C   UNL     1      14.383  -2.304   5.487  0.00  0.00    +0.000 C 
BRANCH   8   9
ATOM      9  N   UNL     1      14.189  -0.850   5.596  0.00  0.00    +0.000 NA
ATOM     10  H   UNL     1      15.022  -0.459   6.043  0.00  0.00    +0.000 HD
BRANCH   9  11
ATOM     11  C   UNL     1      14.006  -0.217   4.281  0.00  0.00    +0.000 C 
ATOM     12  C   UNL     1      12.688  -0.656   3.601  0.00  0.00    +0.000 C 
ATOM     13  C   UNL     1      11.864   0.606   3.381  0.00  0.00    +0.000 C 
ATOM     14  C   UNL     1      12.379   1.564   4.442  0.00  0.00    +0.000 C 
ATOM     15  C   UNL     1      13.878   1.313   4.406  0.00  0.00    +0.000 C 
BRANCH  14  16
ATOM     16  O   UNL     1      12.051   2.908   4.143  0.00  0.00    +0.000 OA
ATOM     17  H   UNL     1      12.419   3.130   3.272  0.00  0.00    +0.000 HD
ENDBRANCH  14  16
ENDBRANCH   9  11
ENDBRANCH   8   9
ENDBRANCH   5   8
ENDBRANCH   1   2
BRANCH   1  18
ATOM     18  N   UNL     1      15.127  -6.115  10.825  0.00  0.00    +0.000 NA
ATOM     19  H   UNL     1      14.136  -6.116  10.584  0.00  0.00    +0.000 HD
BRANCH  18  20
ATOM     20  C   UNL     1      15.290  -6.703  12.162  0.00  0.00    +0.000 C 
BRANCH  20  22
ATOM     21  C   UNL     1      14.801  -8.842  13.477  0.00  0.00    +0.000 C 
ATOM     22  C   UNL     1      14.654  -8.101  12.155  0.00  0.00    +0.000 C 
ENDBRANCH  20  22
ENDBRANCH  18  20
ENDBRANCH   1  18
BRANCH   1  23
ATOM     23  C   UNL     1      17.162  -4.579  10.939  0.00  0.00    +0.000 C 
ATOM     24  O   UNL     1      17.930  -5.541  10.949  0.00  0.00    +0.000 OA
BRANCH  23  25
ATOM     25  C   UNL     1      17.704  -3.225  11.162  0.00  0.00    +0.000 A 
ATOM     26  C   UNL     1      17.026  -2.202  11.803  0.00  0.00    +0.000 A 
ATOM     27  S   UNL     1      18.015  -0.839  12.112  0.00  0.00    +0.000 S 
ATOM     28  C   UNL     1      19.353  -1.563  11.346  0.00  0.00    +0.000 A 
ATOM     29  N   UNL     1      20.570  -0.961  11.321  0.00  0.00    +0.000 NA
ATOM     30  C   UNL     1      21.479  -1.647  10.703  0.00  0.00    +0.000 A 
ATOM     31  N   UNL     1      21.272  -2.839  10.065  0.00  0.00    +0.000 N 
ATOM     32  C   UNL     1      20.022  -3.415   9.951  0.00  0.00    +0.000 A 
ATOM     33  O   UNL     1      19.798  -4.300   9.136  0.00  0.00    +0.000 OA
ATOM     34  C   UNL     1      19.018  -2.779  10.785  0.00  0.00    +0.000 A 
ATOM     35  H   UNL     1      21.993  -3.256   9.496  0.00  0.00    +0.000 HD
ENDBRANCH  23  25
ENDBRANCH   1  23
TORSDOF 10
