REMARK  Name = 
REMARK  5 active torsions:
REMARK  status: ('A' for Active; 'I' for Inactive)
REMARK    1  A    between atoms: C_2  and  C_17
REMARK    2  A    between atoms: N_3  and  C_4
REMARK    3  A    between atoms: C_4  and  C_5
REMARK    4  A    between atoms: C_8  and  C_9
REMARK    5  A    between atoms: C_9  and  C_10
REMARK                            x       y       z     vdW  Elec       q    Type
REMARK                         _______ _______ _______ _____ _____    ______ ____
ROOT
ATOM      1  O   UNL     1       5.225   4.336  10.829  0.00  0.00    +0.000 OA
ATOM      2  C   UNL     1       6.316   4.705  11.251  0.00  0.00    +0.000 C 
ATOM      3  N   UNL     1       6.762   5.993  11.135  0.00  0.00    +0.000 N 
ATOM      4  H   UNL     1       7.651   6.268  11.527  0.00  0.00    +0.000 HD
ENDROOT
BRANCH   2   5
ATOM      5  C   UNL     1       7.264   3.771  11.869  0.00  0.00    +0.000 A 
ATOM      6  C   UNL     1       7.223   2.419  11.564  0.00  0.00    +0.000 A 
ATOM      7  S   UNL     1       8.449   1.517  12.337  0.00  0.00    +0.000 S 
ATOM      8  C   UNL     1       9.047   2.896  13.133  0.00  0.00    +0.000 A 
ATOM      9  N   UNL     1      10.126   2.823  13.960  0.00  0.00    +0.000 NA
ATOM     10  C   UNL     1      10.458   3.947  14.505  0.00  0.00    +0.000 A 
ATOM     11  N   UNL     1       9.801   5.134  14.312  0.00  0.00    +0.000 N 
ATOM     12  C   UNL     1       8.705   5.257  13.492  0.00  0.00    +0.000 A 
ATOM     13  O   UNL     1       8.147   6.337  13.342  0.00  0.00    +0.000 OA
ATOM     14  C   UNL     1       8.314   4.029  12.826  0.00  0.00    +0.000 A 
ATOM     15  H   UNL     1      10.107   5.980  14.770  0.00  0.00    +0.000 HD
ENDBRANCH   2   5
BRANCH   3  16
ATOM     16  C   UNL     1       5.955   7.065  10.607  0.00  0.00    +0.000 C 
BRANCH  16  17
ATOM     17  C   UNL     1       6.108   7.218   9.113  0.00  0.00    +0.000 A 
ATOM     18  C   UNL     1       5.310   6.465   8.258  0.00  0.00    +0.000 A 
ATOM     19  C   UNL     1       5.429   6.651   6.885  0.00  0.00    +0.000 A 
ATOM     20  C   UNL     1       6.347   7.576   6.386  0.00  0.00    +0.000 A 
ATOM     21  C   UNL     1       7.130   8.256   7.314  0.00  0.00    +0.000 A 
ATOM     22  N   UNL     1       7.036   8.096   8.655  0.00  0.00    +0.000 NA
BRANCH  20  23
ATOM     23  C   UNL     1       6.444   7.846   4.907  0.00  0.00    +0.000 C 
BRANCH  23  24
ATOM     24  C   UNL     1       7.835   7.574   4.293  0.00  0.00    +0.000 C 
ATOM     25  C   UNL     1       8.279   6.120   4.380  0.00  0.00    +0.000 C 
ATOM     26  C   UNL     1       7.622   5.475   3.177  0.00  0.00    +0.000 C 
ATOM     27  C   UNL     1       7.590   6.582   2.137  0.00  0.00    +0.000 C 
ATOM     28  N   UNL     1       7.857   7.838   2.843  0.00  0.00    +0.000 NA
ATOM     29  H   UNL     1       7.190   8.559   2.573  0.00  0.00    +0.000 HD
ENDBRANCH  23  24
ENDBRANCH  20  23
ENDBRANCH  16  17
ENDBRANCH   3  16
TORSDOF 5
