REMARK  Name = 
REMARK  9 active torsions:
REMARK  status: ('A' for Active; 'I' for Inactive)
REMARK    1  A    between atoms: C_1  and  C_2
REMARK    2  A    between atoms: C_2  and  N_3
REMARK    3  A    between atoms: C_2  and  C_19
REMARK    4  A    between atoms: N_3  and  C_4
REMARK    5  A    between atoms: C_4  and  C_5
REMARK    6  A    between atoms: C_8  and  C_9
REMARK    7  A    between atoms: C_9  and  C_10
REMARK    8  A    between atoms: C_10  and  N_11
REMARK    9  A    between atoms: N_11  and  C_12
REMARK                            x       y       z     vdW  Elec       q    Type
REMARK                         _______ _______ _______ _____ _____    ______ ____
ROOT
ATOM      1  C   UNL     1       0.471  -0.726   1.206  0.00  0.00    +0.000 C 
ENDROOT
BRANCH   1   2
ATOM      2  C   UNL     1      -1.026  -0.775   1.127  0.00  0.00    +0.000 A 
ATOM      3  C   UNL     1      -1.759  -1.938   1.392  0.00  0.00    +0.000 A 
ATOM      4  C   UNL     1      -3.154  -1.900   1.410  0.00  0.00    +0.000 A 
ATOM      5  C   UNL     1      -3.793  -0.692   1.159  0.00  0.00    +0.000 A 
ATOM      6  N   UNL     1      -3.095   0.437   0.877  0.00  0.00    +0.000 NA
ATOM      7  C   UNL     1      -1.751   0.378   0.868  0.00  0.00    +0.000 A 
BRANCH   5   8
ATOM      8  C   UNL     1      -5.306  -0.578   1.233  0.00  0.00    +0.000 C 
BRANCH   8   9
ATOM      9  C   UNL     1      -5.741   0.872   0.968  0.00  0.00    +0.000 C 
BRANCH   9  10
ATOM     10  N   UNL     1      -7.182   1.135   1.084  0.00  0.00    +0.000 NA
ATOM     11  H   UNL     1      -7.498   0.958   2.038  0.00  0.00    +0.000 HD
BRANCH  10  12
ATOM     12  C   UNL     1      -7.472   2.541   0.722  0.00  0.00    +0.000 C 
ATOM     13  C   UNL     1      -6.896   3.595   1.668  0.00  0.00    +0.000 C 
ATOM     14  C   UNL     1      -7.993   3.816   2.684  0.00  0.00    +0.000 C 
ATOM     15  N   UNL     1      -9.237   3.749   1.917  0.00  0.00    +0.000 NA
ATOM     16  C   UNL     1      -8.984   2.841   0.779  0.00  0.00    +0.000 C 
ATOM     17  H   UNL     1      -9.445   4.677   1.547  0.00  0.00    +0.000 HD
ENDBRANCH  10  12
ENDBRANCH   9  10
ENDBRANCH   8   9
ENDBRANCH   5   8
ENDBRANCH   1   2
BRANCH   1  18
ATOM     18  N   UNL     1       1.104  -1.720   0.342  0.00  0.00    +0.000 NA
ATOM     19  H   UNL     1       0.788  -1.555  -0.615  0.00  0.00    +0.000 HD
BRANCH  18  21
ATOM     20  C   UNL     1       3.184  -1.850   1.742  0.00  0.00    +0.000 C 
ATOM     21  C   UNL     1       2.571  -1.617   0.354  0.00  0.00    +0.000 C 
BRANCH  21  22
ATOM     22  C   UNL     1       3.094  -2.638  -0.639  0.00  0.00    +0.000 A 
ATOM     23  C   UNL     1       2.783  -3.990  -0.609  0.00  0.00    +0.000 A 
ATOM     24  S   UNL     1       3.525  -4.888  -1.854  0.00  0.00    +0.000 S 
ATOM     25  C   UNL     1       4.295  -3.501  -2.473  0.00  0.00    +0.000 A 
ATOM     26  N   UNL     1       5.106  -3.573  -3.561  0.00  0.00    +0.000 NA
ATOM     27  C   UNL     1       5.625  -2.443  -3.910  0.00  0.00    +0.000 A 
ATOM     28  N   UNL     1       5.414  -1.249  -3.268  0.00  0.00    +0.000 N 
ATOM     29  C   UNL     1       4.608  -1.126  -2.158  0.00  0.00    +0.000 A 
ATOM     30  O   UNL     1       4.456  -0.046  -1.597  0.00  0.00    +0.000 OA
ATOM     31  C   UNL     1       3.992  -2.371  -1.735  0.00  0.00    +0.000 A 
ATOM     32  H   UNL     1       5.860  -0.403  -3.589  0.00  0.00    +0.000 HD
ENDBRANCH  21  22
ENDBRANCH  18  21
ENDBRANCH   1  18
TORSDOF 8
