REMARK  Name = 
REMARK  9 active torsions:
REMARK  status: ('A' for Active; 'I' for Inactive)
REMARK    1  A    between atoms: C_1  and  C_2
REMARK    2  A    between atoms: C_2  and  C_3
REMARK    3  A    between atoms: C_2  and  N_4
REMARK    4  A    between atoms: C_5  and  C_7
REMARK    5  A    between atoms: C_10  and  O_11
REMARK    6  A    between atoms: O_11  and  C_12
REMARK    7  A    between atoms: C_12  and  C_13
REMARK    8  A    between atoms: C_13  and  C_16
REMARK    9  A    between atoms: C_20  and  C_21
REMARK                            x       y       z     vdW  Elec       q    Type
REMARK                         _______ _______ _______ _____ _____    ______ ____
ROOT
ATOM      1  C   UNL     1       4.878   2.096  -2.137  0.00  0.00    +0.000 A 
ATOM      2  C   UNL     1       4.269   3.346  -2.121  0.00  0.00    +0.000 A 
ATOM      3  C   UNL     1       4.588   4.260  -3.124  0.00  0.00    +0.000 A 
ATOM      4  C   UNL     1       5.505   3.907  -4.112  0.00  0.00    +0.000 A 
ATOM      5  C   UNL     1       6.076   2.637  -4.031  0.00  0.00    +0.000 A 
ATOM      6  N   UNL     1       5.790   1.717  -3.074  0.00  0.00    +0.000 NA
ENDROOT
BRANCH   1   8
ATOM      7  N   UNL     1       5.174  -0.123  -1.175  0.00  0.00    +0.000 N 
ATOM      8  C   UNL     1       4.518   1.089  -1.088  0.00  0.00    +0.000 C 
ATOM      9  O   UNL     1       3.682   1.356  -0.227  0.00  0.00    +0.000 OA
ATOM     10  H   UNL     1       5.926  -0.189  -1.858  0.00  0.00    +0.000 HD
BRANCH   7  12
ATOM     11  C   UNL     1       5.152  -2.559  -0.948  0.00  0.00    +0.000 C 
ATOM     12  C   UNL     1       4.931  -1.218  -0.253  0.00  0.00    +0.000 C 
ATOM     13  C   UNL     1       5.829  -1.121   0.978  0.00  0.00    +0.000 C 
ENDBRANCH   7  12
ENDBRANCH   1   8
BRANCH   4  14
ATOM     14  O   UNL     1       5.903   4.696  -5.156  0.00  0.00    +0.000 OA
BRANCH  14  15
ATOM     15  C   UNL     1       5.299   6.000  -5.231  0.00  0.00    +0.000 C 
BRANCH  15  16
ATOM     16  C   UNL     1       5.818   6.786  -6.447  0.00  0.00    +0.000 C 
ATOM     17  F   UNL     1       7.171   6.926  -6.325  0.00  0.00    +0.000 F 
ATOM     18  F   UNL     1       5.625   6.037  -7.571  0.00  0.00    +0.000 F 
BRANCH  16  19
ATOM     19  C   UNL     1       5.124   8.136  -6.554  0.00  0.00    +0.000 A 
ATOM     20  C   UNL     1       3.935   8.275  -7.291  0.00  0.00    +0.000 A 
ATOM     21  C   UNL     1       3.299   9.514  -7.391  0.00  0.00    +0.000 A 
ATOM     22  C   UNL     1       3.844  10.633  -6.761  0.00  0.00    +0.000 A 
ATOM     23  C   UNL     1       5.025  10.513  -6.024  0.00  0.00    +0.000 A 
ATOM     24  C   UNL     1       5.660   9.269  -5.919  0.00  0.00    +0.000 A 
BRANCH  23  25
ATOM     25  C   UNL     1       5.584  11.665  -5.374  0.00  0.00    +0.000 C 
ATOM     26  N   UNL     1       6.030  12.590  -4.841  0.00  0.00    +0.000 NA
ENDBRANCH  23  25
ENDBRANCH  16  19
ENDBRANCH  15  16
ENDBRANCH  14  15
ENDBRANCH   4  14
TORSDOF 7
