REMARK  Name = 
REMARK  6 active torsions:
REMARK  status: ('A' for Active; 'I' for Inactive)
REMARK    1  A    between atoms: N_1  and  C_2
REMARK    2  A    between atoms: C_2  and  C_3
REMARK    3  A    between atoms: C_3  and  C_4
REMARK    4  A    between atoms: N_7  and  C_8
REMARK    5  A    between atoms: C_8  and  N_9
REMARK    6  A    between atoms: C_14  and  C_15
REMARK                            x       y       z     vdW  Elec       q    Type
REMARK                         _______ _______ _______ _____ _____    ______ ____
ROOT
ATOM      1  N   UNL     1       7.625   2.497  -2.590  0.00  0.00    +0.000 N 
ATOM      2  C   UNL     1       8.056   1.975  -3.788  0.00  0.00    +0.000 A 
ATOM      3  C   UNL     1       8.554   3.004  -4.554  0.00  0.00    +0.000 A 
ATOM      4  C   UNL     1       8.422   4.205  -3.806  0.00  0.00    +0.000 A 
ATOM      5  C   UNL     1       8.714   5.562  -4.087  0.00  0.00    +0.000 A 
ATOM      6  C   UNL     1       8.443   6.547  -3.125  0.00  0.00    +0.000 A 
ATOM      7  C   UNL     1       7.931   6.171  -1.880  0.00  0.00    +0.000 A 
ATOM      8  C   UNL     1       7.664   4.833  -1.571  0.00  0.00    +0.000 A 
ATOM      9  C   UNL     1       7.884   3.863  -2.560  0.00  0.00    +0.000 A 
ENDROOT
BRANCH   6  10
ATOM     10  C   UNL     1       8.658   8.005  -3.368  0.00  0.00    +0.000 C 
ATOM     11  N   UNL     1       9.185   8.404  -4.564  0.00  0.00    +0.000 N 
ATOM     12  O   UNL     1       8.368   8.846  -2.524  0.00  0.00    +0.000 OA
ATOM     13  H   UNL     1       9.457   7.791  -5.315  0.00  0.00    +0.000 HD
ATOM     14  H   UNL     1       9.307   9.400  -4.696  0.00  0.00    +0.000 HD
ENDBRANCH   6  10
BRANCH   1  15
ATOM     15  C   UNL     1       7.066   1.695  -1.492  0.00  0.00    +0.000 C 
BRANCH  15  19
ATOM     16  C   UNL     1       4.316   1.674   0.386  0.00  0.00    +0.000 C 
ATOM     17  C   UNL     1       4.660   3.039  -0.204  0.00  0.00    +0.000 C 
ATOM     18  C   UNL     1       4.833   2.720  -1.676  0.00  0.00    +0.000 C 
ATOM     19  N   UNL     1       5.616   1.476  -1.686  0.00  0.00    +0.000 NA
ATOM     20  C   UNL     1       5.054   0.693  -0.550  0.00  0.00    +0.000 C 
BRANCH  16  21
ATOM     21  C   UNL     1       2.779   1.524   0.408  0.00  0.00    +0.000 C 
BRANCH  21  22
ATOM     22  C   UNL     1       2.237   0.227   1.002  0.00  0.00    +0.000 C 
BRANCH  22  23
ATOM     23  N   UNL     1       2.636   0.059   2.392  0.00  0.00    +0.000 NA
ATOM     24  H   UNL     1       2.158  -0.756   2.778  0.00  0.00    +0.000 HD
ATOM     25  H   UNL     1       2.310   0.855   2.940  0.00  0.00    +0.000 HD
ENDBRANCH  22  23
ENDBRANCH  21  22
ENDBRANCH  16  21
ENDBRANCH  15  19
ENDBRANCH   1  15
TORSDOF 6
