REMARK  Name = 
REMARK  7 active torsions:
REMARK  status: ('A' for Active; 'I' for Inactive)
REMARK    1  A    between atoms: C_1  and  C_2
REMARK    2  A    between atoms: C_4  and  C_5
REMARK    3  A    between atoms: C_5  and  N_6
REMARK    4  A    between atoms: C_7  and  C_9
REMARK    5  A    between atoms: C_21  and  C_22
REMARK    6  A    between atoms: C_22  and  N_23
REMARK    7  A    between atoms: C_24  and  C_26
REMARK                            x       y       z     vdW  Elec       q    Type
REMARK                         _______ _______ _______ _____ _____    ______ ____
ROOT
ATOM      1  C   UNL     1       2.570   0.200  -0.010  0.00  0.00    +0.000 C 
ATOM      2  C   UNL     1       1.069   0.081   0.007  0.00  0.00    +0.000 A 
ATOM      3  C   UNL     1       0.308   1.269   0.011  0.00  0.00    +0.000 A 
ATOM      4  C   UNL     1      -1.093   1.246   0.033  0.00  0.00    +0.000 A 
ATOM      5  C   UNL     1      -1.738   0.007   0.004  0.00  0.00    +0.000 A 
ATOM      6  C   UNL     1      -0.997  -1.180   0.004  0.00  0.00    +0.000 A 
ATOM      7  C   UNL     1       0.410  -1.166   0.028  0.00  0.00    +0.000 A 
ENDROOT
BRANCH   4   8
ATOM      8  C   UNL     1      -1.882   2.532   0.041  0.00  0.00    +0.000 C 
BRANCH   8   9
ATOM      9  N   UNL     1      -2.142   2.992  -1.300  0.00  0.00    +0.000 N 
ATOM     10  C   UNL     1      -2.728   4.208  -1.544  0.00  0.00    +0.000 C 
ATOM     11  O   UNL     1      -3.016   4.986  -0.638  0.00  0.00    +0.000 OA
ATOM     12  H   UNL     1      -2.116   2.293  -2.035  0.00  0.00    +0.000 HD
BRANCH  10  13
ATOM     13  C   UNL     1      -2.939   4.563  -2.955  0.00  0.00    +0.000 A 
ATOM     14  C   UNL     1      -3.071   5.897  -3.318  0.00  0.00    +0.000 A 
ATOM     15  S   UNL     1      -3.259   6.134  -4.997  0.00  0.00    +0.000 S 
ATOM     16  C   UNL     1      -3.221   4.460  -5.294  0.00  0.00    +0.000 A 
ATOM     17  N   UNL     1      -3.356   3.970  -6.556  0.00  0.00    +0.000 NA
ATOM     18  C   UNL     1      -3.341   2.681  -6.634  0.00  0.00    +0.000 A 
ATOM     19  N   UNL     1      -3.195   1.837  -5.565  0.00  0.00    +0.000 N 
ATOM     20  C   UNL     1      -3.024   2.286  -4.276  0.00  0.00    +0.000 A 
ATOM     21  O   UNL     1      -2.850   1.502  -3.349  0.00  0.00    +0.000 OA
ATOM     22  C   UNL     1      -3.049   3.730  -4.131  0.00  0.00    +0.000 A 
ATOM     23  H   UNL     1      -3.182   0.836  -5.693  0.00  0.00    +0.000 HD
ENDBRANCH  10  13
ENDBRANCH   8   9
ENDBRANCH   4   8
BRANCH   7  24
ATOM     24  C   UNL     1       1.140  -2.494   0.046  0.00  0.00    +0.000 C 
BRANCH  24  25
ATOM     25  N   UNL     1       1.303  -3.028  -1.285  0.00  0.00    +0.000 N 
ATOM     26  C   UNL     1       1.963  -4.211  -1.535  0.00  0.00    +0.000 C 
ATOM     27  O   UNL     1       2.464  -4.892  -0.642  0.00  0.00    +0.000 OA
ATOM     28  H   UNL     1       0.775  -2.599  -2.028  0.00  0.00    +0.000 HD
BRANCH  26  29
ATOM     29  C   UNL     1       2.013  -4.592  -2.932  0.00  0.00    +0.000 A 
ATOM     30  C   UNL     1       1.595  -3.932  -4.079  0.00  0.00    +0.000 A 
ATOM     31  C   UNL     1       1.910  -4.738  -5.200  0.00  0.00    +0.000 A 
ATOM     32  C   UNL     1       2.514  -5.877  -4.722  0.00  0.00    +0.000 A 
ATOM     33  N   UNL     1       2.571  -5.783  -3.355  0.00  0.00    +0.000 N 
ATOM     34  H   UNL     1       2.972  -6.473  -2.730  0.00  0.00    +0.000 HD
ENDBRANCH  26  29
ENDBRANCH  24  25
ENDBRANCH   7  24
TORSDOF 6
