REMARK  Name = 
REMARK  11 active torsions:
REMARK  status: ('A' for Active; 'I' for Inactive)
REMARK    1  A    between atoms: C_1  and  O_2
REMARK    2  A    between atoms: O_2  and  C_3
REMARK    3  A    between atoms: C_10  and  C_11
REMARK    4  A    between atoms: N_13  and  C_14
REMARK    5  A    between atoms: C_14  and  C_15
REMARK    6  A    between atoms: C_18  and  O_19
REMARK    7  A    between atoms: O_19  and  C_20
REMARK    8  A    between atoms: C_20  and  C_21
REMARK    9  A    between atoms: C_21  and  C_22
REMARK   10  A    between atoms: C_21  and  C_23
REMARK   11  A    between atoms: C_21  and  C_24
REMARK                            x       y       z     vdW  Elec       q    Type
REMARK                         _______ _______ _______ _____ _____    ______ ____
ROOT
ATOM      1  C   UNL     1       1.690  -0.649  -3.148  0.00  0.00    +0.000 A 
ATOM      2  C   UNL     1       1.814  -2.044  -3.183  0.00  0.00    +0.000 A 
ATOM      3  C   UNL     1       0.708  -2.875  -2.961  0.00  0.00    +0.000 A 
ATOM      4  C   UNL     1      -0.548  -2.326  -2.704  0.00  0.00    +0.000 A 
ATOM      5  C   UNL     1      -0.684  -0.936  -2.690  0.00  0.00    +0.000 A 
ATOM      6  C   UNL     1       0.420  -0.102  -2.923  0.00  0.00    +0.000 A 
ENDROOT
BRANCH   1   7
ATOM      7  C   UNL     1       2.914   0.220  -3.319  0.00  0.00    +0.000 C 
BRANCH   7  10
ATOM      8  C   UNL     1       4.442   0.723  -5.203  0.00  0.00    +0.000 C 
ATOM      9  O   UNL     1       5.437   0.693  -4.479  0.00  0.00    +0.000 OA
ATOM     10  N   UNL     1       3.186   0.491  -4.709  0.00  0.00    +0.000 N 
ATOM     11  H   UNL     1       2.390   0.704  -5.288  0.00  0.00    +0.000 HD
BRANCH   8  19
ATOM     12  C   UNL     1       2.147   0.937  -7.750  0.00  0.00    +0.000 A 
ATOM     13  N   UNL     1       1.472   1.022  -8.912  0.00  0.00    +0.000 NA
ATOM     14  C   UNL     1       2.173   1.243 -10.027  0.00  0.00    +0.000 A 
ATOM     15  N   UNL     1       3.491   1.389 -10.131  0.00  0.00    +0.000 NA
ATOM     16  C   UNL     1       4.126   1.285  -8.948  0.00  0.00    +0.000 A 
ATOM     17  S   UNL     1       5.811   1.469  -8.879  0.00  0.00    +0.000 S 
ATOM     18  C   UNL     1       5.823   1.219  -7.197  0.00  0.00    +0.000 A 
ATOM     19  C   UNL     1       4.556   0.998  -6.650  0.00  0.00    +0.000 A 
ATOM     20  C   UNL     1       3.545   1.059  -7.705  0.00  0.00    +0.000 A 
BRANCH  12  22
ATOM     21  C   UNL     1       0.146   0.219  -6.775  0.00  0.00    +0.000 C 
ATOM     22  O   UNL     1       1.413   0.841  -6.587  0.00  0.00    +0.000 OA
ENDBRANCH  12  22
ENDBRANCH   8  19
ENDBRANCH   7  10
ENDBRANCH   1   7
BRANCH   4  23
ATOM     23  O   UNL     1      -1.697  -3.032  -2.452  0.00  0.00    +0.000 OA
BRANCH  23  24
ATOM     24  C   UNL     1      -1.585  -4.464  -2.446  0.00  0.00    +0.000 C 
BRANCH  24  25
ATOM     25  C   UNL     1      -2.953  -5.141  -2.132  0.00  0.00    +0.000 C 
ATOM     26  C   UNL     1      -3.432  -4.673  -0.742  0.00  0.00    +0.000 C 
ATOM     27  C   UNL     1      -3.997  -4.706  -3.181  0.00  0.00    +0.000 C 
BRANCH  25  28
ATOM     28  C   UNL     1      -2.800  -6.670  -2.152  0.00  0.00    +0.000 A 
ATOM     29  C   UNL     1      -3.891  -7.512  -1.916  0.00  0.00    +0.000 A 
ATOM     30  C   UNL     1      -3.711  -8.893  -1.931  0.00  0.00    +0.000 A 
ATOM     31  C   UNL     1      -2.450  -9.413  -2.178  0.00  0.00    +0.000 A 
ATOM     32  C   UNL     1      -1.418  -8.524  -2.409  0.00  0.00    +0.000 A 
ATOM     33  N   UNL     1      -1.567  -7.179  -2.404  0.00  0.00    +0.000 NA
ENDBRANCH  25  28
ENDBRANCH  24  25
ENDBRANCH  23  24
ENDBRANCH   4  23
TORSDOF 8
