REMARK  Name = 
REMARK  10 active torsions:
REMARK  status: ('A' for Active; 'I' for Inactive)
REMARK    1  A    between atoms: C_1  and  N_2
REMARK    2  A    between atoms: N_2  and  C_3
REMARK    3  A    between atoms: N_2  and  C_24
REMARK    4  A    between atoms: C_3  and  C_4
REMARK    5  A    between atoms: C_7  and  C_8
REMARK    6  A    between atoms: C_8  and  N_9
REMARK    7  A    between atoms: C_10  and  C_12
REMARK    8  A    between atoms: C_24  and  C_25
REMARK    9  A    between atoms: C_24  and  C_27
REMARK   10  A    between atoms: C_25  and  O_26
REMARK                            x       y       z     vdW  Elec       q    Type
REMARK                         _______ _______ _______ _____ _____    ______ ____
ROOT
ATOM      1  C   UNL     1       2.472   2.285  -0.971  0.00  0.00    +0.000 A 
ATOM      2  C   UNL     1       1.869   1.831  -2.146  0.00  0.00    +0.000 A 
ATOM      3  C   UNL     1       1.541   2.732  -3.152  0.00  0.00    +0.000 A 
ATOM      4  C   UNL     1       1.791   4.084  -2.949  0.00  0.00    +0.000 A 
ATOM      5  N   UNL     1       2.382   4.553  -1.818  0.00  0.00    +0.000 NA
ATOM      6  C   UNL     1       2.720   3.648  -0.869  0.00  0.00    +0.000 A 
ENDROOT
BRANCH   1   7
ATOM      7  C   UNL     1       2.862   1.329   0.136  0.00  0.00    +0.000 C 
BRANCH   7   9
ATOM      8  C   UNL     1       4.545   0.132  -1.131  0.00  0.00    +0.000 C 
ATOM      9  N   UNL     1       4.284   0.899   0.098  0.00  0.00    +0.000 NA
BRANCH   9  10
ATOM     10  C   UNL     1       4.603   0.056   1.302  0.00  0.00    +0.000 C 
BRANCH  10  11
ATOM     11  C   UNL     1       4.314   0.764   2.634  0.00  0.00    +0.000 A 
ATOM     12  C   UNL     1       4.922   1.975   2.958  0.00  0.00    +0.000 A 
ATOM     13  C   UNL     1       4.679   2.539   4.208  0.00  0.00    +0.000 A 
ATOM     14  C   UNL     1       3.829   1.890   5.096  0.00  0.00    +0.000 A 
ATOM     15  C   UNL     1       3.257   0.695   4.699  0.00  0.00    +0.000 A 
ATOM     16  N   UNL     1       3.487   0.118   3.498  0.00  0.00    +0.000 NA
ENDBRANCH  10  11
BRANCH  10  17
ATOM     17  C   UNL     1       6.086  -0.431   1.359  0.00  0.00    +0.000 C 
BRANCH  17  18
ATOM     18  O   UNL     1       6.348  -1.337   2.437  0.00  0.00    +0.000 OA
ATOM     19  H   UNL     1       5.934  -0.977   3.243  0.00  0.00    +0.000 HD
ENDBRANCH  17  18
ENDBRANCH  10  17
ENDBRANCH   9  10
ENDBRANCH   7   9
ENDBRANCH   1   7
BRANCH   4  20
ATOM     20  C   UNL     1       1.438   5.087  -4.020  0.00  0.00    +0.000 C 
BRANCH  20  21
ATOM     21  N   UNL     1       2.547   5.348  -4.908  0.00  0.00    +0.000 N 
ATOM     22  C   UNL     1       2.713   4.700  -6.101  0.00  0.00    +0.000 C 
ATOM     23  O   UNL     1       1.905   3.874  -6.518  0.00  0.00    +0.000 OA
ATOM     24  H   UNL     1       3.342   5.808  -4.474  0.00  0.00    +0.000 HD
BRANCH  22  25
ATOM     25  C   UNL     1       3.877   5.107  -6.900  0.00  0.00    +0.000 A 
ATOM     26  C   UNL     1       3.874   4.913  -8.275  0.00  0.00    +0.000 A 
ATOM     27  S   UNL     1       5.267   5.514  -9.055  0.00  0.00    +0.000 S 
ATOM     28  C   UNL     1       5.947   6.010  -7.576  0.00  0.00    +0.000 A 
ATOM     29  N   UNL     1       7.170   6.607  -7.532  0.00  0.00    +0.000 NA
ATOM     30  C   UNL     1       7.579   6.898  -6.342  0.00  0.00    +0.000 A 
ATOM     31  N   UNL     1       6.876   6.648  -5.193  0.00  0.00    +0.000 N 
ATOM     32  C   UNL     1       5.620   6.093  -5.193  0.00  0.00    +0.000 A 
ATOM     33  O   UNL     1       4.989   5.954  -4.152  0.00  0.00    +0.000 OA
ATOM     34  C   UNL     1       5.119   5.729  -6.505  0.00  0.00    +0.000 A 
ATOM     35  H   UNL     1       7.244   6.909  -4.290  0.00  0.00    +0.000 HD
ENDBRANCH  22  25
ENDBRANCH  20  21
ENDBRANCH   4  20
TORSDOF 9
