REMARK  Name = 
REMARK  6 active torsions:
REMARK  status: ('A' for Active; 'I' for Inactive)
REMARK    1  A    between atoms: C_1  and  C_2
REMARK    2  A    between atoms: C_4  and  C_5
REMARK    3  A    between atoms: C_10  and  N_11
REMARK    4  A    between atoms: N_11  and  C_12
REMARK    5  A    between atoms: C_12  and  C_13
REMARK    6  A    between atoms: C_17  and  C_18
REMARK                            x       y       z     vdW  Elec       q    Type
REMARK                         _______ _______ _______ _____ _____    ______ ____
ROOT
ATOM      1  N   UNL     1       0.831  -2.429   0.003  0.00  0.00    +0.000 N 
ATOM      2  H   UNL     1       0.384  -2.300   0.896  0.00  0.00    +0.000 HD
ENDROOT
BRANCH   1   9
ATOM      3  C   UNL     1      -2.047  -1.802   0.100  0.00  0.00    +0.000 C 
ATOM      4  C   UNL     1      -1.246  -1.964  -1.161  0.00  0.00    +0.000 A 
ATOM      5  C   UNL     1      -1.910  -1.830  -2.395  0.00  0.00    +0.000 A 
ATOM      6  C   UNL     1      -1.215  -1.962  -3.594  0.00  0.00    +0.000 A 
ATOM      7  C   UNL     1       0.139  -2.210  -3.501  0.00  0.00    +0.000 A 
ATOM      8  N   UNL     1       0.810  -2.339  -2.329  0.00  0.00    +0.000 NA
ATOM      9  C   UNL     1       0.132  -2.231  -1.166  0.00  0.00    +0.000 A 
BRANCH   6  10
ATOM     10  C   UNL     1      -1.948  -1.830  -4.877  0.00  0.00    +0.000 C 
ATOM     11  N   UNL     1      -1.264  -1.968  -6.052  0.00  0.00    +0.000 N 
ATOM     12  O   UNL     1      -3.151  -1.604  -4.897  0.00  0.00    +0.000 OA
ATOM     13  H   UNL     1      -0.280  -2.160  -6.152  0.00  0.00    +0.000 HD
ATOM     14  H   UNL     1      -1.809  -1.875  -6.901  0.00  0.00    +0.000 HD
ENDBRANCH   6  10
ENDBRANCH   1   9
BRANCH   1  15
ATOM     15  C   UNL     1       2.276  -2.603   0.004  0.00  0.00    +0.000 C 
BRANCH  15  16
ATOM     16  C   UNL     1       2.694  -4.063  -0.050  0.00  0.00    +0.000 A 
ATOM     17  C   UNL     1       2.872  -4.685  -1.283  0.00  0.00    +0.000 A 
ATOM     18  C   UNL     1       3.283  -6.009  -1.319  0.00  0.00    +0.000 A 
ATOM     19  C   UNL     1       3.513  -6.679  -0.124  0.00  0.00    +0.000 A 
ATOM     20  C   UNL     1       3.335  -6.007   1.086  0.00  0.00    +0.000 A 
ATOM     21  N   UNL     1       2.918  -4.712   1.128  0.00  0.00    +0.000 NA
BRANCH  20  22
ATOM     22  C   UNL     1       3.595  -6.653   2.392  0.00  0.00    +0.000 A 
ATOM     23  C   UNL     1       4.568  -7.663   2.541  0.00  0.00    +0.000 A 
ATOM     24  C   UNL     1       4.797  -8.291   3.768  0.00  0.00    +0.000 A 
ATOM     25  C   UNL     1       4.062  -7.911   4.886  0.00  0.00    +0.000 A 
ATOM     26  C   UNL     1       3.108  -6.904   4.769  0.00  0.00    +0.000 A 
ATOM     27 CL   UNL     1       2.200  -6.432   6.154  0.00  0.00    +0.000 Cl
ATOM     28  C   UNL     1       2.877  -6.279   3.541  0.00  0.00    +0.000 A 
ENDBRANCH  20  22
ENDBRANCH  15  16
ENDBRANCH   1  15
TORSDOF 5
