REMARK  Name = 
REMARK  7 active torsions:
REMARK  status: ('A' for Active; 'I' for Inactive)
REMARK    1  A    between atoms: C_2  and  C_4
REMARK    2  A    between atoms: C_7  and  N_8
REMARK    3  A    between atoms: N_8  and  C_9
REMARK    4  A    between atoms: C_9  and  C_10
REMARK    5  A    between atoms: C_10  and  C_13
REMARK    6  A    between atoms: C_17  and  N_18
REMARK    7  A    between atoms: N_18  and  C_19
REMARK                            x       y       z     vdW  Elec       q    Type
REMARK                         _______ _______ _______ _____ _____    ______ ____
ROOT
ATOM      1  C   UNL     1       5.392   4.871  -5.832  0.00  0.00    +0.000 C 
ATOM      2  F   UNL     1       6.747   4.758  -5.978  0.00  0.00    +0.000 F 
ATOM      3  F   UNL     1       4.862   3.919  -6.656  0.00  0.00    +0.000 F 
ENDROOT
BRANCH   1   4
ATOM      4  C   UNL     1       4.884   6.263  -6.152  0.00  0.00    +0.000 A 
ATOM      5  C   UNL     1       3.603   6.440  -6.689  0.00  0.00    +0.000 A 
ATOM      6  C   UNL     1       3.086   7.720  -6.848  0.00  0.00    +0.000 A 
ATOM      7  C   UNL     1       3.844   8.839  -6.481  0.00  0.00    +0.000 A 
ATOM      8  C   UNL     1       5.136   8.695  -5.967  0.00  0.00    +0.000 A 
ATOM      9  C   UNL     1       5.643   7.397  -5.809  0.00  0.00    +0.000 A 
BRANCH   8  10
ATOM     10  N   UNL     1       5.894   9.789  -5.500  0.00  0.00    +0.000 N 
ATOM     11  H   UNL     1       6.848   9.529  -5.259  0.00  0.00    +0.000 HD
BRANCH  10  12
ATOM     12  C   UNL     1       5.760  11.160  -5.891  0.00  0.00    +0.000 C 
ATOM     13  C   UNL     1       6.737  11.570  -7.019  0.00  0.00    +0.000 C 
ATOM     14  C   UNL     1       6.995  12.871  -6.230  0.00  0.00    +0.000 C 
ATOM     15  C   UNL     1       6.561  12.108  -4.962  0.00  0.00    +0.000 C 
ENDBRANCH  10  12
ENDBRANCH   8  10
ENDBRANCH   1   4
BRANCH   1  16
ATOM     16  C   UNL     1       5.029   4.531  -4.362  0.00  0.00    +0.000 C 
BRANCH  16  17
ATOM     17  N   UNL     1       5.349   3.149  -3.969  0.00  0.00    +0.000 N 
ATOM     18  H   UNL     1       6.114   2.714  -4.481  0.00  0.00    +0.000 HD
BRANCH  17  22
ATOM     19  C   UNL     1       4.525   1.576  -0.215  0.00  0.00    +0.000 A 
ATOM     20  C   UNL     1       4.212   2.908  -0.436  0.00  0.00    +0.000 A 
ATOM     21  C   UNL     1       4.517   3.463  -1.679  0.00  0.00    +0.000 A 
ATOM     22  C   UNL     1       5.138   2.699  -2.671  0.00  0.00    +0.000 A 
ATOM     23  C   UNL     1       5.406   1.367  -2.331  0.00  0.00    +0.000 A 
ATOM     24  N   UNL     1       5.132   0.783  -1.136  0.00  0.00    +0.000 NA
BRANCH  19  26
ATOM     25  N   UNL     1       4.545  -0.361   1.242  0.00  0.00    +0.000 N 
ATOM     26  C   UNL     1       4.165   0.943   1.093  0.00  0.00    +0.000 C 
ATOM     27  O   UNL     1       3.566   1.546   1.978  0.00  0.00    +0.000 OA
ATOM     28  H   UNL     1       4.329  -0.850   2.099  0.00  0.00    +0.000 HD
ATOM     29  H   UNL     1       5.048  -0.824   0.494  0.00  0.00    +0.000 HD
ENDBRANCH  19  26
ENDBRANCH  17  22
ENDBRANCH  16  17
ENDBRANCH   1  16
TORSDOF 7
