REMARK  Name = 
REMARK  4 active torsions:
REMARK  status: ('A' for Active; 'I' for Inactive)
REMARK    1  A    between atoms: C_2  and  C_4
REMARK    2  A    between atoms: C_7  and  N_8
REMARK    3  A    between atoms: N_8  and  C_9
REMARK    4  A    between atoms: C_9  and  C_10
REMARK                            x       y       z     vdW  Elec       q    Type
REMARK                         _______ _______ _______ _____ _____    ______ ____
ROOT
ATOM      1  C   UNL     1       7.225  -4.340  -2.059  0.00  0.00    +0.000 A 
ATOM      2  C   UNL     1       6.373  -3.276  -1.744  0.00  0.00    +0.000 A 
ATOM      3  C   UNL     1       5.878  -3.138  -0.439  0.00  0.00    +0.000 A 
ATOM      4  C   UNL     1       6.206  -4.067   0.557  0.00  0.00    +0.000 A 
ATOM      5  C   UNL     1       7.127  -5.069   0.242  0.00  0.00    +0.000 A 
ATOM      6  C   UNL     1       7.616  -5.224  -1.056  0.00  0.00    +0.000 A 
ENDROOT
BRANCH   1   8
ATOM      7  N   UNL     1       7.748  -3.558  -4.310  0.00  0.00    +0.000 N 
ATOM      8  C   UNL     1       7.696  -4.606  -3.439  0.00  0.00    +0.000 C 
ATOM      9  O   UNL     1       8.054  -5.727  -3.789  0.00  0.00    +0.000 OA
ATOM     10  H   UNL     1       8.163  -3.752  -5.213  0.00  0.00    +0.000 HD
ATOM     11  H   UNL     1       7.715  -2.599  -4.003  0.00  0.00    +0.000 HD
ENDBRANCH   1   8
BRANCH   4  12
ATOM     12  N   UNL     1       5.639  -3.950   1.848  0.00  0.00    +0.000 N 
ATOM     13  H   UNL     1       4.849  -3.310   1.858  0.00  0.00    +0.000 HD
BRANCH  12  14
ATOM     14  C   UNL     1       5.475  -5.144   2.719  0.00  0.00    +0.000 C 
ATOM     15  C   UNL     1       4.845  -6.419   2.167  0.00  0.00    +0.000 C 
ATOM     16  C   UNL     1       4.047  -5.551   3.077  0.00  0.00    +0.000 C 
BRANCH  14  17
ATOM     17  C   UNL     1       6.512  -5.287   3.834  0.00  0.00    +0.000 A 
ATOM     18  C   UNL     1       6.455  -4.498   4.996  0.00  0.00    +0.000 A 
ATOM     19  C   UNL     1       7.306  -4.736   6.081  0.00  0.00    +0.000 A 
ATOM     20  C   UNL     1       8.249  -5.758   6.018  0.00  0.00    +0.000 A 
ATOM     21  C   UNL     1       8.369  -6.516   4.860  0.00  0.00    +0.000 A 
ATOM     22  C   UNL     1       7.514  -6.276   3.784  0.00  0.00    +0.000 A 
ENDBRANCH  14  17
ENDBRANCH  12  14
ENDBRANCH   4  12
TORSDOF 4
