REMARK  Name = 
REMARK  11 active torsions:
REMARK  status: ('A' for Active; 'I' for Inactive)
REMARK    1  A    between atoms: C_1  and  C_2
REMARK    2  A    between atoms: C_5  and  O_6
REMARK    3  A    between atoms: O_6  and  C_7
REMARK    4  A    between atoms: C_9  and  N_10
REMARK    5  A    between atoms: N_10  and  C_11
REMARK    6  A    between atoms: C_11  and  C_12
REMARK    7  A    between atoms: C_12  and  C_13
REMARK    8  A    between atoms: C_12  and  C_14
REMARK    9  A    between atoms: C_12  and  C_15
REMARK   10  A    between atoms: C_18  and  C_19
REMARK   11  A    between atoms: C_25  and  C_26
REMARK                            x       y       z     vdW  Elec       q    Type
REMARK                         _______ _______ _______ _____ _____    ______ ____
ROOT
ATOM      1  C   UNL     1       4.382   2.470  -0.718  0.00  0.00    +0.000 A 
ATOM      2  C   UNL     1       4.941   1.344  -1.328  0.00  0.00    +0.000 A 
ATOM      3  C   UNL     1       5.297   1.350  -2.682  0.00  0.00    +0.000 A 
ATOM      4  C   UNL     1       5.169   2.553  -3.387  0.00  0.00    +0.000 A 
ATOM      5  C   UNL     1       4.620   3.703  -2.790  0.00  0.00    +0.000 A 
ATOM      6  C   UNL     1       4.231   3.647  -1.444  0.00  0.00    +0.000 A 
ENDROOT
BRANCH   5   7
ATOM      7  C   UNL     1       4.435   4.974  -3.577  0.00  0.00    +0.000 C 
ATOM      8  F   UNL     1       4.775   4.855  -4.892  0.00  0.00    +0.000 F 
ATOM      9  F   UNL     1       3.143   5.405  -3.570  0.00  0.00    +0.000 F 
ATOM     10  F   UNL     1       5.177   6.007  -3.093  0.00  0.00    +0.000 F 
ENDBRANCH   5   7
BRANCH   3  11
ATOM     11  N   UNL     1       5.889   0.245  -3.318  0.00  0.00    +0.000 N 
ATOM     12  H   UNL     1       5.833   0.345  -4.327  0.00  0.00    +0.000 HD
BRANCH  11  13
ATOM     13  C   UNL     1       5.503  -1.098  -2.851  0.00  0.00    +0.000 C 
BRANCH  13  14
ATOM     14  C   UNL     1       6.179  -2.256  -3.654  0.00  0.00    +0.000 C 
ATOM     15  C   UNL     1       5.758  -2.156  -5.141  0.00  0.00    +0.000 C 
ATOM     16  C   UNL     1       7.717  -2.119  -3.595  0.00  0.00    +0.000 C 
BRANCH  14  17
ATOM     17  C   UNL     1       5.774  -3.611  -3.015  0.00  0.00    +0.000 A 
ATOM     18  C   UNL     1       5.085  -4.607  -3.728  0.00  0.00    +0.000 A 
ATOM     19  C   UNL     1       4.735  -5.823  -3.130  0.00  0.00    +0.000 A 
ATOM     20  C   UNL     1       5.070  -6.084  -1.800  0.00  0.00    +0.000 A 
ATOM     21  C   UNL     1       5.741  -5.106  -1.065  0.00  0.00    +0.000 A 
ATOM     22  C   UNL     1       6.091  -3.890  -1.668  0.00  0.00    +0.000 A 
BRANCH  20  23
ATOM     23  C   UNL     1       4.674  -7.393  -1.218  0.00  0.00    +0.000 C 
ATOM     24  N   UNL     1       5.395  -7.857  -0.153  0.00  0.00    +0.000 N 
ATOM     25  O   UNL     1       3.762  -8.057  -1.693  0.00  0.00    +0.000 OA
ATOM     26  H   UNL     1       6.285  -7.466   0.120  0.00  0.00    +0.000 HD
ATOM     27  H   UNL     1       5.180  -8.796   0.155  0.00  0.00    +0.000 HD
ENDBRANCH  20  23
ENDBRANCH  14  17
ENDBRANCH  13  14
ENDBRANCH  11  13
ENDBRANCH   3  11
BRANCH   1  28
ATOM     28  O   UNL     1       3.973   2.496   0.594  0.00  0.00    +0.000 OA
BRANCH  28  33
ATOM     29  C   UNL     1       3.576   0.937   3.801  0.00  0.00    +0.000 C 
ATOM     30  C   UNL     1       2.821   1.328   2.545  0.00  0.00    +0.000 C 
ATOM     31  N   UNL     1       1.949   0.224   2.073  0.00  0.00    +0.000 NA
ATOM     32  C   UNL     1       2.316   0.547   0.682  0.00  0.00    +0.000 C 
ATOM     33  C   UNL     1       3.602   1.234   1.205  0.00  0.00    +0.000 C 
ATOM     34  H   UNL     1       0.960   0.342   2.290  0.00  0.00    +0.000 HD
ENDBRANCH  28  33
ENDBRANCH   1  28
TORSDOF 8
