REMARK  Name = 
REMARK  8 active torsions:
REMARK  status: ('A' for Active; 'I' for Inactive)
REMARK    1  A    between atoms: N_1  and  C_2
REMARK    2  A    between atoms: C_2  and  C_3
REMARK    3  A    between atoms: C_3  and  N_4
REMARK    4  A    between atoms: C_3  and  C_17
REMARK    5  A    between atoms: C_5  and  C_7
REMARK    6  A    between atoms: C_20  and  C_21
REMARK    7  A    between atoms: C_21  and  N_22
REMARK    8  A    between atoms: C_23  and  C_25
REMARK                            x       y       z     vdW  Elec       q    Type
REMARK                         _______ _______ _______ _____ _____    ______ ____
ROOT
ATOM      1  C   UNL     1       2.921  -0.102  -1.464  0.00  0.00    +0.000 C 
ENDROOT
BRANCH   1   2
ATOM      2  C   UNL     1       4.451  -0.046  -1.524  0.00  0.00    +0.000 A 
ATOM      3  C   UNL     1       5.110   0.110  -2.750  0.00  0.00    +0.000 A 
ATOM      4  C   UNL     1       6.509   0.178  -2.809  0.00  0.00    +0.000 A 
ATOM      5  C   UNL     1       7.283   0.093  -1.644  0.00  0.00    +0.000 A 
ATOM      6  C   UNL     1       6.628  -0.036  -0.414  0.00  0.00    +0.000 A 
ATOM      7  C   UNL     1       5.233  -0.116  -0.358  0.00  0.00    +0.000 A 
BRANCH   5   8
ATOM      8  C   UNL     1       8.788   0.125  -1.708  0.00  0.00    +0.000 C 
BRANCH   8   9
ATOM      9  N   UNL     1       9.320   1.464  -1.591  0.00  0.00    +0.000 N 
ATOM     10  C   UNL     1      10.686   1.656  -1.536  0.00  0.00    +0.000 C 
ATOM     11  O   UNL     1      11.485   0.724  -1.575  0.00  0.00    +0.000 OA
ATOM     12  H   UNL     1       8.706   2.243  -1.787  0.00  0.00    +0.000 HD
BRANCH  10  13
ATOM     13  C   UNL     1      11.116   3.115  -1.444  0.00  0.00    +0.000 C 
ATOM     14  C   UNL     1      12.622   3.290  -1.446  0.00  0.00    +0.000 C 
ATOM     15  C   UNL     1      12.979   3.116   0.014  0.00  0.00    +0.000 C 
ATOM     16  O   UNL     1      11.872   3.633   0.764  0.00  0.00    +0.000 OA
ATOM     17  C   UNL     1      10.729   3.712  -0.103  0.00  0.00    +0.000 C 
ENDBRANCH  10  13
ENDBRANCH   8   9
ENDBRANCH   5   8
ENDBRANCH   1   2
BRANCH   1  18
ATOM     18  N   UNL     1       2.454   1.097  -0.784  0.00  0.00    +0.000 N 
ATOM     19  C   UNL     1       1.140   1.465  -0.670  0.00  0.00    +0.000 C 
ATOM     20  O   UNL     1       0.229   0.864  -1.229  0.00  0.00    +0.000 OA
ATOM     21  H   UNL     1       3.141   1.568  -0.210  0.00  0.00    +0.000 HD
BRANCH  19  22
ATOM     22  C   UNL     1       0.891   2.668   0.137  0.00  0.00    +0.000 A 
ATOM     23  C   UNL     1      -0.260   3.417  -0.057  0.00  0.00    +0.000 A 
ATOM     24  S   UNL     1      -0.329   4.822   0.911  0.00  0.00    +0.000 S 
ATOM     25  C   UNL     1       1.159   4.454   1.652  0.00  0.00    +0.000 A 
ATOM     26  N   UNL     1       1.704   5.279   2.588  0.00  0.00    +0.000 NA
ATOM     27  C   UNL     1       2.824   4.862   3.084  0.00  0.00    +0.000 A 
ATOM     28  N   UNL     1       3.437   3.686   2.738  0.00  0.00    +0.000 N 
ATOM     29  C   UNL     1       2.917   2.820   1.813  0.00  0.00    +0.000 A 
ATOM     30  O   UNL     1       3.484   1.766   1.547  0.00  0.00    +0.000 OA
ATOM     31  C   UNL     1       1.685   3.262   1.188  0.00  0.00    +0.000 A 
ATOM     32  H   UNL     1       4.304   3.406   3.173  0.00  0.00    +0.000 HD
ENDBRANCH  19  22
ENDBRANCH   1  18
BRANCH   1  33
ATOM     33  C   UNL     1       2.398  -1.401  -0.778  0.00  0.00    +0.000 C 
BRANCH  33  34
ATOM     34  N   UNL     1       2.832  -2.645  -1.428  0.00  0.00    +0.000 NA
ATOM     35  H   UNL     1       2.595  -3.431  -0.825  0.00  0.00    +0.000 HD
ATOM     36  H   UNL     1       3.849  -2.646  -1.514  0.00  0.00    +0.000 HD
ENDBRANCH  33  34
ENDBRANCH   1  33
TORSDOF 8
