REMARK  Name = 
REMARK  7 active torsions:
REMARK  status: ('A' for Active; 'I' for Inactive)
REMARK    1  A    between atoms: C_2  and  C_4
REMARK    2  A    between atoms: C_7  and  N_8
REMARK    3  A    between atoms: N_8  and  C_9
REMARK    4  A    between atoms: C_9  and  C_10
REMARK    5  A    between atoms: C_10  and  C_13
REMARK    6  A    between atoms: C_17  and  O_18
REMARK    7  A    between atoms: O_18  and  C_19
REMARK                            x       y       z     vdW  Elec       q    Type
REMARK                         _______ _______ _______ _____ _____    ______ ____
ROOT
ATOM      1  C   UNL     1       4.780   6.007  -1.166  0.00  0.00    +0.000 C 
ENDROOT
BRANCH   1   2
ATOM      2  C   UNL     1       5.555   7.203  -1.769  0.00  0.00    +0.000 C 
ATOM      3  F   UNL     1       6.882   7.054  -1.471  0.00  0.00    +0.000 F 
ATOM      4  F   UNL     1       5.476   7.118  -3.131  0.00  0.00    +0.000 F 
BRANCH   2   5
ATOM      5  C   UNL     1       5.007   8.521  -1.238  0.00  0.00    +0.000 A 
ATOM      6  C   UNL     1       3.978   9.216  -1.893  0.00  0.00    +0.000 A 
ATOM      7  C   UNL     1       3.424  10.363  -1.329  0.00  0.00    +0.000 A 
ATOM      8  C   UNL     1       3.895  10.847  -0.104  0.00  0.00    +0.000 A 
ATOM      9  C   UNL     1       4.950  10.195   0.545  0.00  0.00    +0.000 A 
ATOM     10  C   UNL     1       5.499   9.040  -0.025  0.00  0.00    +0.000 A 
BRANCH   9  11
ATOM     11  O   UNL     1       5.507  10.562   1.750  0.00  0.00    +0.000 OA
BRANCH  11  12
ATOM     12  C   UNL     1       5.483  11.951   2.169  0.00  0.00    +0.000 C 
ATOM     13  C   UNL     1       6.249  13.015   1.376  0.00  0.00    +0.000 C 
ATOM     14  O   UNL     1       7.002  13.427   2.542  0.00  0.00    +0.000 OA
ATOM     15  C   UNL     1       6.411  12.366   3.331  0.00  0.00    +0.000 C 
ENDBRANCH  11  12
ENDBRANCH   9  11
ENDBRANCH   2   5
ENDBRANCH   1   2
BRANCH   1  16
ATOM     16  N   UNL     1       5.174   4.673  -1.648  0.00  0.00    +0.000 N 
ATOM     17  H   UNL     1       5.443   4.612  -2.630  0.00  0.00    +0.000 HD
BRANCH  16  21
ATOM     18  C   UNL     1       3.314   1.251  -0.037  0.00  0.00    +0.000 A 
ATOM     19  C   UNL     1       2.868   2.514   0.350  0.00  0.00    +0.000 A 
ATOM     20  C   UNL     1       3.473   3.651  -0.185  0.00  0.00    +0.000 A 
ATOM     21  C   UNL     1       4.502   3.560  -1.138  0.00  0.00    +0.000 A 
ATOM     22  C   UNL     1       4.960   2.282  -1.482  0.00  0.00    +0.000 A 
ATOM     23  C   UNL     1       4.375   1.135  -0.937  0.00  0.00    +0.000 A 
BRANCH  18  25
ATOM     24  N   UNL     1       1.396   0.105   0.905  0.00  0.00    +0.000 N 
ATOM     25  C   UNL     1       2.702   0.032   0.532  0.00  0.00    +0.000 C 
ATOM     26  O   UNL     1       3.340  -1.021   0.637  0.00  0.00    +0.000 OA
ATOM     27  H   UNL     1       0.959  -0.756   1.202  0.00  0.00    +0.000 HD
ATOM     28  H   UNL     1       0.791   0.853   0.584  0.00  0.00    +0.000 HD
ENDBRANCH  18  25
ENDBRANCH  16  21
ENDBRANCH   1  16
TORSDOF 7
