REMARK  Name = 
REMARK  5 active torsions:
REMARK  status: ('A' for Active; 'I' for Inactive)
REMARK    1  A    between atoms: C_2  and  C_5
REMARK    2  A    between atoms: C_5  and  N_6
REMARK    3  A    between atoms: C_14  and  C_15
REMARK    4  A    between atoms: C_15  and  C_16
REMARK    5  A    between atoms: C_16  and  N_17
REMARK                            x       y       z     vdW  Elec       q    Type
REMARK                         _______ _______ _______ _____ _____    ______ ____
ROOT
ATOM      1  N   UNL     1       3.445  -2.947  -0.138  0.00  0.00    +0.000 NA
ATOM      2  C   UNL     1       4.825  -2.465  -0.367  0.00  0.00    +0.000 C 
ATOM      3  C   UNL     1       5.180  -2.132  -1.835  0.00  0.00    +0.000 C 
ATOM      4  N   UNL     1       4.817  -3.232  -2.738  0.00  0.00    +0.000 N 
ATOM      5  C   UNL     1       5.766  -3.956  -3.436  0.00  0.00    +0.000 A 
ATOM      6  C   UNL     1       7.001  -3.418  -3.816  0.00  0.00    +0.000 A 
ATOM      7  N   UNL     1       7.949  -4.080  -4.522  0.00  0.00    +0.000 NA
ATOM      8  C   UNL     1       7.616  -5.333  -4.877  0.00  0.00    +0.000 A 
ATOM      9  C   UNL     1       6.395  -5.912  -4.552  0.00  0.00    +0.000 A 
ATOM     10  N   UNL     1       5.474  -5.221  -3.826  0.00  0.00    +0.000 NA
ATOM     11  C   UNL     1       3.480  -3.813  -2.544  0.00  0.00    +0.000 C 
ATOM     12  C   UNL     1       3.199  -4.092  -1.050  0.00  0.00    +0.000 C 
ENDROOT
BRANCH   1  13
ATOM     13  C   UNL     1       2.421  -1.881  -0.316  0.00  0.00    +0.000 C 
BRANCH  13  15
ATOM     14  F   UNL     1       3.374  -0.721   1.590  0.00  0.00    +0.000 F 
ATOM     15  C   UNL     1       2.464  -0.629   0.598  0.00  0.00    +0.000 C 
ATOM     16  F   UNL     1       1.258  -0.412   1.172  0.00  0.00    +0.000 F 
ATOM     17  F   UNL     1       2.769   0.472  -0.131  0.00  0.00    +0.000 F 
ENDBRANCH  13  15
ENDBRANCH   1  13
BRANCH   9  18
ATOM     18  C   UNL     1       5.992  -7.305  -4.978  0.00  0.00    +0.000 C 
BRANCH  18  19
ATOM     19  C   UNL     1       6.986  -7.980  -5.922  0.00  0.00    +0.000 C 
BRANCH  19  20
ATOM     20  N   UNL     1       6.546  -9.311  -6.341  0.00  0.00    +0.000 N 
ATOM     21  C   UNL     1       7.477  -9.918  -7.217  0.00  0.00    +0.000 A 
ATOM     22  C   UNL     1       7.200 -11.180  -7.699  0.00  0.00    +0.000 A 
ATOM     23  C   UNL     1       8.142 -11.745  -8.533  0.00  0.00    +0.000 A 
ATOM     24  N   UNL     1       9.282 -11.131  -8.892  0.00  0.00    +0.000 NA
ATOM     25  C   UNL     1       9.463  -9.916  -8.361  0.00  0.00    +0.000 A 
ATOM     26  N   UNL     1       8.619  -9.279  -7.537  0.00  0.00    +0.000 NA
ATOM     27  H   UNL     1       5.635  -9.299  -6.794  0.00  0.00    +0.000 HD
ENDBRANCH  19  20
ENDBRANCH  18  19
ENDBRANCH   9  18
TORSDOF 5
