REMARK  Name = 
REMARK  6 active torsions:
REMARK  status: ('A' for Active; 'I' for Inactive)
REMARK    1  A    between atoms: N_1  and  C_2
REMARK    2  A    between atoms: C_2  and  C_3
REMARK    3  A    between atoms: C_6  and  O_7
REMARK    4  A    between atoms: O_7  and  C_8
REMARK    5  A    between atoms: C_8  and  C_9
REMARK    6  A    between atoms: C_12  and  C_13
REMARK                            x       y       z     vdW  Elec       q    Type
REMARK                         _______ _______ _______ _____ _____    ______ ____
ROOT
ATOM      1  C   UNL     1       3.545   5.720   3.082  0.00  0.00    +0.000 C 
ENDROOT
BRANCH   1   2
ATOM      2  C   UNL     1       3.833   6.683   4.208  0.00  0.00    +0.000 A 
ATOM      3  C   UNL     1       3.467   6.408   5.526  0.00  0.00    +0.000 A 
ATOM      4  N   UNL     1       3.666   7.274   6.555  0.00  0.00    +0.000 NA
ATOM      5  C   UNL     1       4.252   8.452   6.203  0.00  0.00    +0.000 A 
ATOM      6  C   UNL     1       4.612   8.743   4.897  0.00  0.00    +0.000 A 
ATOM      7  N   UNL     1       4.405   7.873   3.876  0.00  0.00    +0.000 NA
BRANCH   5   8
ATOM      8  C   UNL     1       4.499   9.462   7.270  0.00  0.00    +0.000 C 
ATOM      9  N   UNL     1       4.119   9.116   8.537  0.00  0.00    +0.000 N 
ATOM     10  O   UNL     1       5.015  10.547   7.031  0.00  0.00    +0.000 OA
ATOM     11  H   UNL     1       3.691   8.216   8.719  0.00  0.00    +0.000 HD
ATOM     12  H   UNL     1       4.261   9.772   9.291  0.00  0.00    +0.000 HD
ENDBRANCH   5   8
ENDBRANCH   1   2
BRANCH   1  13
ATOM     13  O   UNL     1       3.628   4.365   3.529  0.00  0.00    +0.000 OA
BRANCH  13  17
ATOM     14  C   UNL     1       2.814   1.220   0.892  0.00  0.00    +0.000 A 
ATOM     15  C   UNL     1       2.800   2.535   0.406  0.00  0.00    +0.000 A 
ATOM     16  C   UNL     1       3.075   3.616   1.249  0.00  0.00    +0.000 A 
ATOM     17  C   UNL     1       3.367   3.399   2.595  0.00  0.00    +0.000 A 
ATOM     18  C   UNL     1       3.405   2.089   3.080  0.00  0.00    +0.000 A 
ATOM     19  C   UNL     1       3.130   1.007   2.238  0.00  0.00    +0.000 A 
BRANCH  14  20
ATOM     20  C   UNL     1       2.449   0.069  -0.011  0.00  0.00    +0.000 C 
BRANCH  20  21
ATOM     21  N   UNL     1       3.313   0.006  -1.184  0.00  0.00    +0.000 NA
ATOM     22  H   UNL     1       3.106  -0.845  -1.703  0.00  0.00    +0.000 HD
ATOM     23  H   UNL     1       4.281  -0.074  -0.874  0.00  0.00    +0.000 HD
ENDBRANCH  20  21
ENDBRANCH  14  20
ENDBRANCH  13  17
ENDBRANCH   1  13
TORSDOF 6
