REMARK  Name = 
REMARK  4 active torsions:
REMARK  status: ('A' for Active; 'I' for Inactive)
REMARK    1  A    between atoms: C_2  and  C_3
REMARK    2  A    between atoms: C_6  and  C_7
REMARK    3  A    between atoms: C_7  and  C_8
REMARK    4  A    between atoms: C_13  and  N_14
REMARK                            x       y       z     vdW  Elec       q    Type
REMARK                         _______ _______ _______ _____ _____    ______ ____
ROOT
ATOM      1  C   UNL     1       4.082   1.427   0.820  0.00  0.00    +0.000 A 
ATOM      2  C   UNL     1       4.034   2.611   0.071  0.00  0.00    +0.000 A 
ATOM      3  C   UNL     1       3.928   3.847   0.704  0.00  0.00    +0.000 A 
ATOM      4  C   UNL     1       3.908   3.916   2.096  0.00  0.00    +0.000 A 
ATOM      5  F   UNL     1       3.718   5.121   2.657  0.00  0.00    +0.000 F 
ATOM      6  C   UNL     1       4.081   2.775   2.892  0.00  0.00    +0.000 A 
ATOM      7  C   UNL     1       4.195   1.546   2.218  0.00  0.00    +0.000 A 
ENDROOT
BRANCH   6   8
ATOM      8  N   UNL     1       4.067   2.757   4.283  0.00  0.00    +0.000 N 
ATOM      9  C   UNL     1       3.235   3.699   5.048  0.00  0.00    +0.000 C 
ATOM     10  C   UNL     1       4.071   4.779   5.766  0.00  0.00    +0.000 C 
ATOM     11  N   UNL     1       5.196   4.229   6.555  0.00  0.00    +0.000 NA
ATOM     12  C   UNL     1       6.045   3.431   5.646  0.00  0.00    +0.000 C 
ATOM     13  C   UNL     1       5.287   2.276   4.954  0.00  0.00    +0.000 C 
ATOM     14  H   UNL     1       4.806   3.596   7.254  0.00  0.00    +0.000 HD
ENDBRANCH   6   8
BRANCH   1  15
ATOM     15  C   UNL     1       3.797   0.071   0.170  0.00  0.00    +0.000 C 
ATOM     16  C   UNL     1       2.679  -0.770   0.800  0.00  0.00    +0.000 C 
ATOM     17  C   UNL     1       2.409  -0.045  -0.475  0.00  0.00    +0.000 C 
BRANCH  15  21
ATOM     18  C   UNL     1       6.993  -2.147  -1.815  0.00  0.00    +0.000 A 
ATOM     19  C   UNL     1       6.763  -2.324  -0.450  0.00  0.00    +0.000 A 
ATOM     20  C   UNL     1       5.756  -1.591   0.196  0.00  0.00    +0.000 A 
ATOM     21  C   UNL     1       4.953  -0.670  -0.503  0.00  0.00    +0.000 A 
ATOM     22  C   UNL     1       5.232  -0.489  -1.869  0.00  0.00    +0.000 A 
ATOM     23  C   UNL     1       6.232  -1.219  -2.522  0.00  0.00    +0.000 A 
BRANCH  18  25
ATOM     24  N   UNL     1       8.789  -3.556  -3.053  0.00  0.00    +0.000 NA
ATOM     25  C   UNL     1       7.993  -2.925  -2.496  0.00  0.00    +0.000 C 
ENDBRANCH  18  25
ENDBRANCH  15  21
ENDBRANCH   1  15
TORSDOF 4
