REMARK  Name = 
REMARK  6 active torsions:
REMARK  status: ('A' for Active; 'I' for Inactive)
REMARK    1  A    between atoms: C_2  and  C_25
REMARK    2  A    between atoms: N_3  and  C_4
REMARK    3  A    between atoms: C_4  and  C_5
REMARK    4  A    between atoms: C_8  and  C_9
REMARK    5  A    between atoms: C_9  and  N_10
REMARK    6  A    between atoms: C_11  and  C_13
REMARK                            x       y       z     vdW  Elec       q    Type
REMARK                         _______ _______ _______ _____ _____    ______ ____
ROOT
ATOM      1  C   UNL     1       3.196   3.102   1.840  0.00  0.00    +0.000 A 
ATOM      2  C   UNL     1       2.945   4.463   1.615  0.00  0.00    +0.000 A 
ATOM      3  C   UNL     1       3.740   5.446   2.216  0.00  0.00    +0.000 A 
ATOM      4  C   UNL     1       4.818   5.090   3.038  0.00  0.00    +0.000 A 
ATOM      5  C   UNL     1       5.071   3.730   3.260  0.00  0.00    +0.000 A 
ATOM      6  C   UNL     1       4.277   2.747   2.659  0.00  0.00    +0.000 A 
ENDROOT
BRANCH   1   7
ATOM      7  C   UNL     1       2.288   2.049   1.264  0.00  0.00    +0.000 C 
BRANCH   7  10
ATOM      8  O   UNL     1       0.906   0.145  -0.176  0.00  0.00    +0.000 OA
ATOM      9  C   UNL     1       1.877   0.670  -0.715  0.00  0.00    +0.000 C 
ATOM     10  N   UNL     1       2.647   1.627  -0.067  0.00  0.00    +0.000 N 
ATOM     11  H   UNL     1       3.421   2.053  -0.568  0.00  0.00    +0.000 HD
BRANCH   9  12
ATOM     12  C   UNL     1       2.300   0.313  -2.122  0.00  0.00    +0.000 A 
ATOM     13  N   UNL     1       1.523  -0.563  -2.796  0.00  0.00    +0.000 NA
ATOM     14  C   UNL     1       1.918  -0.865  -4.044  0.00  0.00    +0.000 A 
ATOM     15  C   UNL     1       3.042  -0.333  -4.627  0.00  0.00    +0.000 A 
ATOM     16  C   UNL     1       3.766   0.548  -3.852  0.00  0.00    +0.000 A 
ATOM     17  N   UNL     1       3.424   0.900  -2.597  0.00  0.00    +0.000 NA
ENDBRANCH   9  12
ENDBRANCH   7  10
ENDBRANCH   1   7
BRANCH   4  18
ATOM     18  C   UNL     1       5.673   6.143   3.697  0.00  0.00    +0.000 C 
BRANCH  18  19
ATOM     19  N   UNL     1       5.166   6.513   4.994  0.00  0.00    +0.000 N 
ATOM     20  C   UNL     1       5.764   7.508   5.728  0.00  0.00    +0.000 C 
ATOM     21  O   UNL     1       6.725   8.142   5.299  0.00  0.00    +0.000 OA
ATOM     22  H   UNL     1       4.539   5.860   5.454  0.00  0.00    +0.000 HD
BRANCH  20  23
ATOM     23  C   UNL     1       5.160   7.827   7.028  0.00  0.00    +0.000 A 
ATOM     24  C   UNL     1       5.361   9.082   7.590  0.00  0.00    +0.000 A 
ATOM     25  S   UNL     1       4.546   9.308   9.071  0.00  0.00    +0.000 S 
ATOM     26  C   UNL     1       3.940   7.719   9.042  0.00  0.00    +0.000 A 
ATOM     27  N   UNL     1       3.165   7.248  10.056  0.00  0.00    +0.000 NA
ATOM     28  C   UNL     1       2.805   6.015   9.923  0.00  0.00    +0.000 A 
ATOM     29  N   UNL     1       3.146   5.212   8.866  0.00  0.00    +0.000 N 
ATOM     30  C   UNL     1       3.898   5.654   7.804  0.00  0.00    +0.000 A 
ATOM     31  O   UNL     1       4.148   4.923   6.851  0.00  0.00    +0.000 OA
ATOM     32  C   UNL     1       4.340   7.031   7.910  0.00  0.00    +0.000 A 
ATOM     33  H   UNL     1       2.825   4.256   8.818  0.00  0.00    +0.000 HD
ENDBRANCH  20  23
ENDBRANCH  18  19
ENDBRANCH   4  18
TORSDOF 6
