REMARK  Name = 
REMARK  5 active torsions:
REMARK  status: ('A' for Active; 'I' for Inactive)
REMARK    1  A    between atoms: C_2  and  C_18
REMARK    2  A    between atoms: N_3  and  C_4
REMARK    3  A    between atoms: C_4  and  C_5
REMARK    4  A    between atoms: C_8  and  C_9
REMARK    5  A    between atoms: C_9  and  C_10
REMARK                            x       y       z     vdW  Elec       q    Type
REMARK                         _______ _______ _______ _____ _____    ______ ____
ROOT
ATOM      1  O   UNL     1       3.697  -0.255  -0.864  0.00  0.00    +0.000 OA
ATOM      2  C   UNL     1       2.908  -0.912  -1.534  0.00  0.00    +0.000 C 
ATOM      3  N   UNL     1       2.142  -1.922  -1.008  0.00  0.00    +0.000 N 
ATOM      4  H   UNL     1       1.621  -2.524  -1.633  0.00  0.00    +0.000 HD
ENDROOT
BRANCH   2   5
ATOM      5  C   UNL     1       2.687  -0.642  -2.958  0.00  0.00    +0.000 A 
ATOM      6  C   UNL     1       2.908   0.623  -3.493  0.00  0.00    +0.000 A 
ATOM      7  S   UNL     1       2.604   0.706  -5.172  0.00  0.00    +0.000 S 
ATOM      8  C   UNL     1       2.186  -0.945  -5.237  0.00  0.00    +0.000 A 
ATOM      9  N   UNL     1       1.845  -1.543  -6.411  0.00  0.00    +0.000 NA
ATOM     10  C   UNL     1       1.586  -2.801  -6.310  0.00  0.00    +0.000 A 
ATOM     11  N   UNL     1       1.622  -3.522  -5.146  0.00  0.00    +0.000 N 
ATOM     12  C   UNL     1       1.874  -2.944  -3.930  0.00  0.00    +0.000 A 
ATOM     13  O   UNL     1       1.722  -3.582  -2.895  0.00  0.00    +0.000 OA
ATOM     14  C   UNL     1       2.243  -1.540  -3.994  0.00  0.00    +0.000 A 
ATOM     15  H   UNL     1       1.358  -4.493  -5.117  0.00  0.00    +0.000 HD
ENDBRANCH   2   5
BRANCH   3  16
ATOM     16  C   UNL     1       2.239  -2.381   0.353  0.00  0.00    +0.000 C 
BRANCH  16  17
ATOM     17  C   UNL     1       3.205  -3.519   0.516  0.00  0.00    +0.000 A 
ATOM     18  C   UNL     1       4.557  -3.295   0.775  0.00  0.00    +0.000 A 
ATOM     19  C   UNL     1       5.421  -4.375   0.965  0.00  0.00    +0.000 A 
ATOM     20  C   UNL     1       4.911  -5.670   0.902  0.00  0.00    +0.000 A 
ATOM     21  N   UNL     1       3.604  -5.914   0.623  0.00  0.00    +0.000 NA
ATOM     22  C   UNL     1       2.794  -4.844   0.431  0.00  0.00    +0.000 A 
BRANCH  20  23
ATOM     23  C   UNL     1       5.798  -6.867   1.196  0.00  0.00    +0.000 C 
BRANCH  23  24
ATOM     24  C   UNL     1       5.847  -7.247   2.663  0.00  0.00    +0.000 A 
ATOM     25  C   UNL     1       4.678  -7.638   3.335  0.00  0.00    +0.000 A 
ATOM     26  C   UNL     1       4.698  -7.907   4.705  0.00  0.00    +0.000 A 
ATOM     27  C   UNL     1       5.893  -7.823   5.414  0.00  0.00    +0.000 A 
ATOM     28  C   UNL     1       7.072  -7.489   4.749  0.00  0.00    +0.000 A 
ATOM     29  C   UNL     1       7.051  -7.201   3.381  0.00  0.00    +0.000 A 
ENDBRANCH  23  24
ENDBRANCH  20  23
ENDBRANCH  16  17
ENDBRANCH   3  16
TORSDOF 5
