REMARK  Name = 
REMARK  11 active torsions:
REMARK  status: ('A' for Active; 'I' for Inactive)
REMARK    1  A    between atoms: C_1  and  C_2
REMARK    2  A    between atoms: C_2  and  N_3
REMARK    3  A    between atoms: C_2  and  C_20
REMARK    4  A    between atoms: N_3  and  C_4
REMARK    5  A    between atoms: C_4  and  C_5
REMARK    6  A    between atoms: C_8  and  C_9
REMARK    7  A    between atoms: C_9  and  O_10
REMARK    8  A    between atoms: C_9  and  C_11
REMARK    9  A    between atoms: C_11  and  N_12
REMARK   10  A    between atoms: C_15  and  O_16
REMARK   11  A    between atoms: C_20  and  C_22
REMARK                            x       y       z     vdW  Elec       q    Type
REMARK                         _______ _______ _______ _____ _____    ______ ____
ROOT
ATOM      1  C   UNL     1       0.509  -0.863  -1.063  0.00  0.00    +0.000 C 
ENDROOT
BRANCH   1   2
ATOM      2  C   UNL     1      -0.992  -0.929  -1.046  0.00  0.00    +0.000 A 
ATOM      3  C   UNL     1      -1.668  -1.826  -1.882  0.00  0.00    +0.000 A 
ATOM      4  C   UNL     1      -3.057  -1.904  -1.852  0.00  0.00    +0.000 A 
ATOM      5  C   UNL     1      -3.792  -1.086  -0.983  0.00  0.00    +0.000 A 
ATOM      6  C   UNL     1      -3.108  -0.176  -0.161  0.00  0.00    +0.000 A 
ATOM      7  C   UNL     1      -1.721  -0.095  -0.195  0.00  0.00    +0.000 A 
BRANCH   5   8
ATOM      8  C   UNL     1      -5.298  -1.199  -0.941  0.00  0.00    +0.000 C 
BRANCH   8   9
ATOM      9  O   UNL     1      -5.681  -1.641   0.363  0.00  0.00    +0.000 OA
ATOM     10  H   UNL     1      -5.431  -0.943   0.988  0.00  0.00    +0.000 HD
ENDBRANCH   8   9
BRANCH   8  11
ATOM     11  C   UNL     1      -5.983   0.143  -1.318  0.00  0.00    +0.000 C 
BRANCH  11  12
ATOM     12  N   UNL     1      -7.452   0.095  -1.284  0.00  0.00    +0.000 NA
ATOM     13  C   UNL     1      -8.021  -0.880  -2.222  0.00  0.00    +0.000 C 
ATOM     14  C   UNL     1      -9.420  -0.360  -2.546  0.00  0.00    +0.000 C 
ATOM     15  C   UNL     1      -9.515   0.977  -1.822  0.00  0.00    +0.000 C 
ATOM     16  C   UNL     1      -8.060   1.388  -1.631  0.00  0.00    +0.000 C 
BRANCH  15  17
ATOM     17  O   UNL     1     -10.134   0.779  -0.548  0.00  0.00    +0.000 OA
ATOM     18  H   UNL     1      -9.496   0.239  -0.039  0.00  0.00    +0.000 HD
ENDBRANCH  15  17
ENDBRANCH  11  12
ENDBRANCH   8  11
ENDBRANCH   5   8
ENDBRANCH   1   2
BRANCH   1  19
ATOM     19  N   UNL     1       0.970  -0.474  -2.393  0.00  0.00    +0.000 NA
ATOM     20  H   UNL     1       0.603   0.461  -2.590  0.00  0.00    +0.000 HD
BRANCH  19  22
ATOM     21  C   UNL     1       2.809  -0.116  -3.911  0.00  0.00    +0.000 C 
ATOM     22  C   UNL     1       2.444  -0.426  -2.461  0.00  0.00    +0.000 C 
BRANCH  22  23
ATOM     23  C   UNL     1       2.995   0.656  -1.492  0.00  0.00    +0.000 C 
ATOM     24  O   UNL     1       2.443   1.750  -1.392  0.00  0.00    +0.000 OA
BRANCH  23  25
ATOM     25  C   UNL     1       4.186   0.337  -0.694  0.00  0.00    +0.000 A 
ATOM     26  C   UNL     1       5.210  -0.471  -1.153  0.00  0.00    +0.000 A 
ATOM     27  S   UNL     1       6.537  -0.553  -0.078  0.00  0.00    +0.000 S 
ATOM     28  C   UNL     1       5.773   0.487   1.038  0.00  0.00    +0.000 A 
ATOM     29  N   UNL     1       6.399   0.882   2.177  0.00  0.00    +0.000 NA
ATOM     30  C   UNL     1       5.709   1.700   2.905  0.00  0.00    +0.000 A 
ATOM     31  N   UNL     1       4.437   2.117   2.612  0.00  0.00    +0.000 N 
ATOM     32  C   UNL     1       3.706   1.603   1.568  0.00  0.00    +0.000 A 
ATOM     33  O   UNL     1       2.485   1.710   1.521  0.00  0.00    +0.000 OA
ATOM     34  C   UNL     1       4.496   0.823   0.627  0.00  0.00    +0.000 A 
ATOM     35  H   UNL     1       3.920   2.675   3.280  0.00  0.00    +0.000 HD
ENDBRANCH  23  25
ENDBRANCH  22  23
ENDBRANCH  19  22
ENDBRANCH   1  19
TORSDOF 10
