REMARK  Name = 
REMARK  4 active torsions:
REMARK  status: ('A' for Active; 'I' for Inactive)
REMARK    1  A    between atoms: C_2  and  C_4
REMARK    2  A    between atoms: N_8  and  C_9
REMARK    3  A    between atoms: C_9  and  C_10
REMARK    4  A    between atoms: C_14  and  C_15
REMARK                            x       y       z     vdW  Elec       q    Type
REMARK                         _______ _______ _______ _____ _____    ______ ____
ROOT
ATOM      1  C   UNL     1       5.546  -4.674   3.246  0.00  0.00    +0.000 C 
ENDROOT
BRANCH   1   6
ATOM      2  C   UNL     1       7.692  -0.827   0.623  0.00  0.00    +0.000 A 
ATOM      3  C   UNL     1       7.329  -2.092   0.175  0.00  0.00    +0.000 A 
ATOM      4  C   UNL     1       6.603  -2.929   1.024  0.00  0.00    +0.000 A 
ATOM      5  C   UNL     1       6.269  -2.496   2.303  0.00  0.00    +0.000 A 
ATOM      6  N   UNL     1       5.504  -3.229   3.179  0.00  0.00    +0.000 N 
ATOM      7  N   UNL     1       6.626  -1.276   2.748  0.00  0.00    +0.000 NA
ATOM      8  C   UNL     1       7.335  -0.473   1.913  0.00  0.00    +0.000 A 
ATOM      9  H   UNL     1       5.457  -2.748   4.073  0.00  0.00    +0.000 HD
BRANCH   2  11
ATOM     10  N   UNL     1       8.314   0.041  -1.561  0.00  0.00    +0.000 N 
ATOM     11  C   UNL     1       8.450   0.129  -0.208  0.00  0.00    +0.000 C 
ATOM     12  O   UNL     1       9.157   0.991   0.306  0.00  0.00    +0.000 OA
ATOM     13  H   UNL     1       8.760   0.769  -2.102  0.00  0.00    +0.000 HD
ATOM     14  H   UNL     1       7.562  -0.472  -1.996  0.00  0.00    +0.000 HD
ENDBRANCH   2  11
ENDBRANCH   1   6
BRANCH   1  15
ATOM     15  C   UNL     1       6.604  -5.248   4.159  0.00  0.00    +0.000 A 
ATOM     16  C   UNL     1       7.546  -4.495   4.865  0.00  0.00    +0.000 A 
ATOM     17  C   UNL     1       8.455  -5.122   5.717  0.00  0.00    +0.000 A 
ATOM     18  C   UNL     1       8.407  -6.504   5.907  0.00  0.00    +0.000 A 
ATOM     19  C   UNL     1       7.445  -7.296   5.259  0.00  0.00    +0.000 A 
ATOM     20  C   UNL     1       6.586  -6.643   4.354  0.00  0.00    +0.000 A 
BRANCH  19  21
ATOM     21  C   UNL     1       7.253  -8.725   5.596  0.00  0.00    +0.000 A 
ATOM     22  C   UNL     1       7.439  -9.173   6.927  0.00  0.00    +0.000 A 
ATOM     23  C   UNL     1       7.137 -10.480   7.308  0.00  0.00    +0.000 A 
ATOM     24  C   UNL     1       6.636 -11.377   6.371  0.00  0.00    +0.000 A 
ATOM     25  C   UNL     1       6.456 -10.958   5.061  0.00  0.00    +0.000 A 
ATOM     26  F   UNL     1       5.958 -11.816   4.163  0.00  0.00    +0.000 F 
ATOM     27  C   UNL     1       6.773  -9.662   4.664  0.00  0.00    +0.000 A 
ENDBRANCH  19  21
ENDBRANCH   1  15
TORSDOF 4
