REMARK  Name = 
REMARK  7 active torsions:
REMARK  status: ('A' for Active; 'I' for Inactive)
REMARK    1  A    between atoms: C_2  and  C_3
REMARK    2  A    between atoms: C_6  and  N_7
REMARK    3  A    between atoms: N_7  and  C_8
REMARK    4  A    between atoms: C_8  and  C_9
REMARK    5  A    between atoms: C_9  and  C_12
REMARK    6  A    between atoms: C_16  and  O_17
REMARK    7  A    between atoms: O_17  and  C_18
REMARK                            x       y       z     vdW  Elec       q    Type
REMARK                         _______ _______ _______ _____ _____    ______ ____
ROOT
ATOM      1  C   UNL     1       5.000   2.928   0.117  0.00  0.00    +0.000 C 
ATOM      2  F   UNL     1       5.641   2.246   1.110  0.00  0.00    +0.000 F 
ATOM      3  F   UNL     1       5.435   2.368  -1.052  0.00  0.00    +0.000 F 
ENDROOT
BRANCH   1   4
ATOM      4  C   UNL     1       5.269   4.419   0.182  0.00  0.00    +0.000 A 
ATOM      5  C   UNL     1       5.302   5.194  -0.985  0.00  0.00    +0.000 A 
ATOM      6  C   UNL     1       5.411   6.583  -0.905  0.00  0.00    +0.000 A 
ATOM      7  C   UNL     1       5.501   7.213   0.339  0.00  0.00    +0.000 A 
ATOM      8  C   UNL     1       5.509   6.449   1.504  0.00  0.00    +0.000 A 
ATOM      9  C   UNL     1       5.391   5.061   1.425  0.00  0.00    +0.000 A 
BRANCH   8  10
ATOM     10  O   UNL     1       5.576   6.956   2.776  0.00  0.00    +0.000 OA
BRANCH  10  11
ATOM     11  C   UNL     1       6.146   8.269   2.973  0.00  0.00    +0.000 C 
ATOM     12  C   UNL     1       7.650   8.450   2.724  0.00  0.00    +0.000 C 
ATOM     13  O   UNL     1       7.866   8.945   4.066  0.00  0.00    +0.000 OA
ATOM     14  C   UNL     1       6.506   8.612   4.426  0.00  0.00    +0.000 C 
ENDBRANCH  10  11
ENDBRANCH   8  10
ENDBRANCH   1   4
BRANCH   1  15
ATOM     15  C   UNL     1       3.470   2.690   0.238  0.00  0.00    +0.000 C 
BRANCH  15  16
ATOM     16  N   UNL     1       3.080   1.272   0.140  0.00  0.00    +0.000 N 
ATOM     17  H   UNL     1       3.570   0.771  -0.606  0.00  0.00    +0.000 HD
BRANCH  16  21
ATOM     18  C   UNL     1      -0.960   0.040   0.413  0.00  0.00    +0.000 A 
ATOM     19  C   UNL     1      -0.557   1.235   1.013  0.00  0.00    +0.000 A 
ATOM     20  C   UNL     1       0.771   1.670   0.907  0.00  0.00    +0.000 A 
ATOM     21  C   UNL     1       1.719   0.935   0.184  0.00  0.00    +0.000 A 
ATOM     22  C   UNL     1       1.286  -0.272  -0.394  0.00  0.00    +0.000 A 
ATOM     23  F   UNL     1       2.163  -1.021  -1.082  0.00  0.00    +0.000 F 
ATOM     24  C   UNL     1      -0.032  -0.717  -0.299  0.00  0.00    +0.000 A 
BRANCH  18  26
ATOM     25  N   UNL     1      -3.414  -0.771   0.650  0.00  0.00    +0.000 NA
ATOM     26  C   UNL     1      -2.316  -0.411   0.540  0.00  0.00    +0.000 C 
ENDBRANCH  18  26
ENDBRANCH  16  21
ENDBRANCH  15  16
ENDBRANCH   1  15
TORSDOF 7
