REMARK  Name = 
REMARK  7 active torsions:
REMARK  status: ('A' for Active; 'I' for Inactive)
REMARK    1  A    between atoms: C_1  and  C_2
REMARK    2  A    between atoms: C_4  and  C_5
REMARK    3  A    between atoms: C_10  and  O_11
REMARK    4  A    between atoms: O_11  and  C_12
REMARK    5  A    between atoms: C_12  and  C_13
REMARK    6  A    between atoms: C_18  and  C_19
REMARK    7  A    between atoms: C_23  and  C_24
REMARK                            x       y       z     vdW  Elec       q    Type
REMARK                         _______ _______ _______ _____ _____    ______ ____
ROOT
ATOM      1  C   UNL     1       2.750  -4.034   0.042  0.00  0.00    +0.000 A 
ATOM      2  C   UNL     1       2.989  -4.710  -1.153  0.00  0.00    +0.000 A 
ATOM      3  C   UNL     1       3.443  -6.023  -1.101  0.00  0.00    +0.000 A 
ATOM      4  C   UNL     1       3.640  -6.624   0.136  0.00  0.00    +0.000 A 
ATOM      5  F   UNL     1       4.074  -7.893   0.168  0.00  0.00    +0.000 F 
ATOM      6  C   UNL     1       3.385  -5.907   1.304  0.00  0.00    +0.000 A 
ATOM      7  N   UNL     1       2.935  -4.620   1.257  0.00  0.00    +0.000 NA
ENDROOT
BRANCH   6   8
ATOM      8  C   UNL     1       3.602  -6.446   2.662  0.00  0.00    +0.000 A 
ATOM      9  C   UNL     1       2.805  -6.023   3.735  0.00  0.00    +0.000 A 
ATOM     10  C   UNL     1       3.043  -6.527   5.003  0.00  0.00    +0.000 A 
ATOM     11  N   UNL     1       4.019  -7.413   5.286  0.00  0.00    +0.000 NA
ATOM     12  C   UNL     1       4.810  -7.827   4.259  0.00  0.00    +0.000 A 
ATOM     13  C   UNL     1       4.621  -7.367   2.952  0.00  0.00    +0.000 A 
BRANCH  12  14
ATOM     14  C   UNL     1       5.950  -8.800   4.529  0.00  0.00    +0.000 C 
ATOM     15  F   UNL     1       6.089  -9.162   5.836  0.00  0.00    +0.000 F 
ATOM     16  F   UNL     1       5.817  -9.968   3.833  0.00  0.00    +0.000 F 
ATOM     17  F   UNL     1       7.163  -8.294   4.155  0.00  0.00    +0.000 F 
ENDBRANCH  12  14
ENDBRANCH   6   8
BRANCH   1  18
ATOM     18  C   UNL     1       2.359  -2.570   0.026  0.00  0.00    +0.000 C 
BRANCH  18  19
ATOM     19  O   UNL     1       0.949  -2.405  -0.041  0.00  0.00    +0.000 OA
BRANCH  19  26
ATOM     20  C   UNL     1       2.528   0.360   0.020  0.00  0.00    +0.000 C 
ATOM     21  C   UNL     1       1.045   0.111  -0.004  0.00  0.00    +0.000 A 
ATOM     22  C   UNL     1       0.239   1.275  -0.009  0.00  0.00    +0.000 A 
ATOM     23  C   UNL     1      -1.162   1.226  -0.040  0.00  0.00    +0.000 A 
ATOM     24  C   UNL     1      -1.779  -0.021  -0.059  0.00  0.00    +0.000 A 
ATOM     25  C   UNL     1      -0.996  -1.184  -0.050  0.00  0.00    +0.000 A 
ATOM     26  C   UNL     1       0.411  -1.143  -0.026  0.00  0.00    +0.000 A 
BRANCH  23  27
ATOM     27  C   UNL     1      -1.896   2.526  -0.054  0.00  0.00    +0.000 C 
ATOM     28  N   UNL     1      -3.262   2.512  -0.081  0.00  0.00    +0.000 N 
ATOM     29  O   UNL     1      -1.300   3.596  -0.043  0.00  0.00    +0.000 OA
ATOM     30  H   UNL     1      -3.836   1.687  -0.079  0.00  0.00    +0.000 HD
ATOM     31  H   UNL     1      -3.723   3.413  -0.084  0.00  0.00    +0.000 HD
ENDBRANCH  23  27
ENDBRANCH  19  26
ENDBRANCH  18  19
ENDBRANCH   1  18
TORSDOF 6
