REMARK  Name = 
REMARK  6 active torsions:
REMARK  status: ('A' for Active; 'I' for Inactive)
REMARK    1  A    between atoms: C_2  and  C_4
REMARK    2  A    between atoms: C_7  and  N_8
REMARK    3  A    between atoms: N_8  and  C_9
REMARK    4  A    between atoms: C_9  and  C_10
REMARK    5  A    between atoms: C_14  and  C_15
REMARK    6  A    between atoms: C_20  and  C_21
REMARK                            x       y       z     vdW  Elec       q    Type
REMARK                         _______ _______ _______ _____ _____    ______ ____
ROOT
ATOM      1  C   UNL     1       5.328   4.972  -3.034  0.00  0.00    +0.000 C 
ATOM      2  C   UNL     1       4.940   6.070  -2.045  0.00  0.00    +0.000 C 
ATOM      3  C   UNL     1       4.817   6.334  -3.505  0.00  0.00    +0.000 C 
ENDROOT
BRANCH   1   4
ATOM      4  C   UNL     1       6.844   4.699  -3.098  0.00  0.00    +0.000 A 
ATOM      5  C   UNL     1       7.520   4.654  -4.318  0.00  0.00    +0.000 A 
ATOM      6  C   UNL     1       8.908   4.681  -4.345  0.00  0.00    +0.000 A 
ATOM      7  C   UNL     1       9.601   4.717  -3.145  0.00  0.00    +0.000 A 
ATOM      8  C   UNL     1       8.888   4.668  -1.949  0.00  0.00    +0.000 A 
ATOM      9  N   UNL     1       7.532   4.666  -1.922  0.00  0.00    +0.000 NA
BRANCH   8  10
ATOM     10  C   UNL     1       9.562   4.737  -0.639  0.00  0.00    +0.000 A 
ATOM     11  N   UNL     1      10.597   5.635  -0.607  0.00  0.00    +0.000 NA
ATOM     12  C   UNL     1      11.223   5.865   0.564  0.00  0.00    +0.000 A 
ATOM     13  C   UNL     1      10.884   5.237   1.741  0.00  0.00    +0.000 A 
ATOM     14  C   UNL     1       9.859   4.301   1.701  0.00  0.00    +0.000 A 
ATOM     15  C   UNL     1       9.186   4.017   0.494  0.00  0.00    +0.000 A 
BRANCH  15  16
ATOM     16  C   UNL     1       8.132   2.945   0.522  0.00  0.00    +0.000 C 
ATOM     17  F   UNL     1       7.701   2.451  -0.666  0.00  0.00    +0.000 F 
ATOM     18  F   UNL     1       8.597   1.838   1.187  0.00  0.00    +0.000 F 
ATOM     19  F   UNL     1       7.022   3.321   1.219  0.00  0.00    +0.000 F 
ENDBRANCH  15  16
ENDBRANCH   8  10
ENDBRANCH   1   4
BRANCH   1  20
ATOM     20  N   UNL     1       4.434   3.792  -3.261  0.00  0.00    +0.000 N 
ATOM     21  H   UNL     1       3.611   3.764  -2.670  0.00  0.00    +0.000 HD
BRANCH  20  25
ATOM     22  C   UNL     1       3.643   2.794  -7.182  0.00  0.00    +0.000 A 
ATOM     23  C   UNL     1       4.365   3.923  -6.865  0.00  0.00    +0.000 A 
ATOM     24  N   UNL     1       4.602   4.279  -5.588  0.00  0.00    +0.000 NA
ATOM     25  C   UNL     1       4.104   3.493  -4.603  0.00  0.00    +0.000 A 
ATOM     26  C   UNL     1       3.362   2.362  -4.947  0.00  0.00    +0.000 A 
ATOM     27  N   UNL     1       3.095   1.985  -6.232  0.00  0.00    +0.000 NA
BRANCH  22  29
ATOM     28  N   UNL     1       2.735   1.332  -8.883  0.00  0.00    +0.000 N 
ATOM     29  C   UNL     1       3.501   2.431  -8.615  0.00  0.00    +0.000 C 
ATOM     30  O   UNL     1       4.045   3.070  -9.508  0.00  0.00    +0.000 OA
ATOM     31  H   UNL     1       2.654   1.014  -9.839  0.00  0.00    +0.000 HD
ATOM     32  H   UNL     1       2.324   0.802  -8.128  0.00  0.00    +0.000 HD
ENDBRANCH  22  29
ENDBRANCH  20  25
ENDBRANCH   1  20
TORSDOF 6
