REMARK  Name = 
REMARK  10 active torsions:
REMARK  status: ('A' for Active; 'I' for Inactive)
REMARK    1  A    between atoms: C_1  and  O_2
REMARK    2  A    between atoms: O_2  and  C_3
REMARK    3  A    between atoms: C_10  and  C_11
REMARK    4  A    between atoms: N_13  and  C_14
REMARK    5  A    between atoms: C_14  and  C_15
REMARK    6  A    between atoms: C_18  and  O_19
REMARK    7  A    between atoms: O_19  and  C_20
REMARK    8  A    between atoms: C_20  and  C_21
REMARK    9  A    between atoms: C_21  and  C_22
REMARK   10  A    between atoms: C_22  and  O_24
REMARK                            x       y       z     vdW  Elec       q    Type
REMARK                         _______ _______ _______ _____ _____    ______ ____
ROOT
ATOM      1  C   UNL     1       1.689  -1.457  -2.966  0.00  0.00    +0.000 A 
ATOM      2  C   UNL     1       1.786  -2.855  -2.968  0.00  0.00    +0.000 A 
ATOM      3  C   UNL     1       0.683  -3.654  -2.632  0.00  0.00    +0.000 A 
ATOM      4  C   UNL     1      -0.535  -3.063  -2.299  0.00  0.00    +0.000 A 
ATOM      5  C   UNL     1      -0.644  -1.671  -2.329  0.00  0.00    +0.000 A 
ATOM      6  C   UNL     1       0.453  -0.873  -2.665  0.00  0.00    +0.000 A 
ENDROOT
BRANCH   1   7
ATOM      7  C   UNL     1       2.884  -0.598  -3.294  0.00  0.00    +0.000 C 
BRANCH   7  10
ATOM      8  C   UNL     1       4.028   0.366  -5.239  0.00  0.00    +0.000 C 
ATOM      9  O   UNL     1       4.898   0.852  -4.518  0.00  0.00    +0.000 OA
ATOM     10  N   UNL     1       2.991  -0.355  -4.711  0.00  0.00    +0.000 N 
ATOM     11  H   UNL     1       2.248  -0.693  -5.306  0.00  0.00    +0.000 HD
BRANCH   8  19
ATOM     12  C   UNL     1       2.001  -0.721  -7.811  0.00  0.00    +0.000 A 
ATOM     13  N   UNL     1       1.452  -1.074  -8.990  0.00  0.00    +0.000 NA
ATOM     14  C   UNL     1       2.056  -0.681 -10.114  0.00  0.00    +0.000 A 
ATOM     15  N   UNL     1       3.164   0.048 -10.211  0.00  0.00    +0.000 NA
ATOM     16  C   UNL     1       3.688   0.369  -9.017  0.00  0.00    +0.000 A 
ATOM     17  S   UNL     1       5.100   1.310  -8.953  0.00  0.00    +0.000 S 
ATOM     18  C   UNL     1       5.118   1.255  -7.255  0.00  0.00    +0.000 A 
ATOM     19  C   UNL     1       4.071   0.524  -6.704  0.00  0.00    +0.000 A 
ATOM     20  C   UNL     1       3.196   0.022  -7.761  0.00  0.00    +0.000 A 
BRANCH  12  22
ATOM     21  C   UNL     1       0.118  -1.765  -6.872  0.00  0.00    +0.000 C 
ATOM     22  O   UNL     1       1.352  -1.085  -6.649  0.00  0.00    +0.000 OA
ENDBRANCH  12  22
ENDBRANCH   8  19
ENDBRANCH   7  10
ENDBRANCH   1   7
BRANCH   4  23
ATOM     23  O   UNL     1      -1.680  -3.717  -1.934  0.00  0.00    +0.000 OA
BRANCH  23  24
ATOM     24  C   UNL     1      -1.624  -5.145  -1.840  0.00  0.00    +0.000 C 
BRANCH  24  25
ATOM     25  C   UNL     1      -2.991  -5.717  -1.375  0.00  0.00    +0.000 C 
ATOM     26  C   UNL     1      -4.121  -5.304  -2.329  0.00  0.00    +0.000 C 
ATOM     27  C   UNL     1      -5.387  -5.177  -1.482  0.00  0.00    +0.000 C 
ATOM     28  C   UNL     1      -4.946  -5.126  -0.023  0.00  0.00    +0.000 C 
ATOM     29  C   UNL     1      -3.421  -5.109  -0.031  0.00  0.00    +0.000 C 
BRANCH  25  30
ATOM     30  C   UNL     1      -2.807  -7.239  -1.308  0.00  0.00    +0.000 C 
ATOM     31  O   UNL     1      -1.745  -7.804  -1.542  0.00  0.00    +0.000 OA
BRANCH  30  32
ATOM     32  O   UNL     1      -3.893  -7.966  -0.975  0.00  0.00    +0.000 OA
ATOM     33  H   UNL     1      -4.714  -7.474  -0.812  0.00  0.00    +0.000 HD
ENDBRANCH  30  32
ENDBRANCH  25  30
ENDBRANCH  24  25
ENDBRANCH  23  24
ENDBRANCH   4  23
TORSDOF 9
