REMARK  Name = 
REMARK  8 active torsions:
REMARK  status: ('A' for Active; 'I' for Inactive)
REMARK    1  A    between atoms: C_1  and  C_2
REMARK    2  A    between atoms: C_2  and  N_3
REMARK    3  A    between atoms: C_2  and  C_16
REMARK    4  A    between atoms: C_4  and  C_6
REMARK    5  A    between atoms: C_19  and  C_20
REMARK    6  A    between atoms: C_20  and  N_21
REMARK    7  A    between atoms: N_21  and  C_22
REMARK    8  A    between atoms: C_22  and  C_23
REMARK                            x       y       z     vdW  Elec       q    Type
REMARK                         _______ _______ _______ _____ _____    ______ ____
ROOT
ATOM      1  C   UNL     1       1.428  -0.403  -1.008  0.00  0.00    +0.000 C 
ATOM      2  C   UNL     1       2.538  -0.083   0.003  0.00  0.00    +0.000 C 
ENDROOT
BRANCH   2   3
ATOM      3  C   UNL     1       2.904  -1.262   0.891  0.00  0.00    +0.000 A 
ATOM      4  C   UNL     1       3.374  -1.030   2.193  0.00  0.00    +0.000 A 
ATOM      5  C   UNL     1       3.675  -2.098   3.044  0.00  0.00    +0.000 A 
ATOM      6  C   UNL     1       3.512  -3.423   2.615  0.00  0.00    +0.000 A 
ATOM      7  C   UNL     1       3.103  -3.655   1.298  0.00  0.00    +0.000 A 
ATOM      8  C   UNL     1       2.820  -2.588   0.444  0.00  0.00    +0.000 A 
BRANCH   6   9
ATOM      9  C   UNL     1       3.755  -4.582   3.554  0.00  0.00    +0.000 C 
BRANCH   9  10
ATOM     10  N   UNL     1       2.873  -4.484   4.713  0.00  0.00    +0.000 NA
ATOM     11  H   UNL     1       1.905  -4.498   4.388  0.00  0.00    +0.000 HD
BRANCH  10  12
ATOM     12  C   UNL     1       3.059  -5.610   5.634  0.00  0.00    +0.000 C 
BRANCH  12  13
ATOM     13  C   UNL     1       2.126  -5.515   6.826  0.00  0.00    +0.000 A 
ATOM     14  C   UNL     1       2.182  -4.409   7.676  0.00  0.00    +0.000 A 
ATOM     15  C   UNL     1       1.288  -4.327   8.739  0.00  0.00    +0.000 A 
ATOM     16  C   UNL     1       0.368  -5.349   8.932  0.00  0.00    +0.000 A 
ATOM     17  C   UNL     1       0.382  -6.416   8.050  0.00  0.00    +0.000 A 
ATOM     18  N   UNL     1       1.233  -6.522   7.005  0.00  0.00    +0.000 NA
ENDBRANCH  12  13
ENDBRANCH  10  12
ENDBRANCH   9  10
ENDBRANCH   6   9
ENDBRANCH   2   3
BRANCH   2  19
ATOM     19  N   UNL     1       3.729   0.385  -0.675  0.00  0.00    +0.000 N 
ATOM     20  C   UNL     1       3.866   1.669  -1.132  0.00  0.00    +0.000 C 
ATOM     21  O   UNL     1       3.049   2.552  -0.888  0.00  0.00    +0.000 OA
ATOM     22  H   UNL     1       4.354  -0.335  -1.021  0.00  0.00    +0.000 HD
BRANCH  20  23
ATOM     23  C   UNL     1       5.083   1.943  -1.901  0.00  0.00    +0.000 A 
ATOM     24  C   UNL     1       5.654   3.207  -1.878  0.00  0.00    +0.000 A 
ATOM     25  S   UNL     1       7.039   3.345  -2.866  0.00  0.00    +0.000 S 
ATOM     26  C   UNL     1       6.892   1.732  -3.391  0.00  0.00    +0.000 A 
ATOM     27  N   UNL     1       7.744   1.214  -4.316  0.00  0.00    +0.000 NA
ATOM     28  C   UNL     1       7.489  -0.008  -4.651  0.00  0.00    +0.000 A 
ATOM     29  N   UNL     1       6.477  -0.768  -4.129  0.00  0.00    +0.000 N 
ATOM     30  C   UNL     1       5.633  -0.312  -3.141  0.00  0.00    +0.000 A 
ATOM     31  O   UNL     1       4.805  -1.052  -2.617  0.00  0.00    +0.000 OA
ATOM     32  C   UNL     1       5.838   1.080  -2.784  0.00  0.00    +0.000 A 
ATOM     33  H   UNL     1       6.361  -1.731  -4.404  0.00  0.00    +0.000 HD
ENDBRANCH  20  23
ENDBRANCH   2  19
TORSDOF 7
