REMARK  Name = 
REMARK  4 active torsions:
REMARK  status: ('A' for Active; 'I' for Inactive)
REMARK    1  A    between atoms: C_2  and  C_4
REMARK    2  A    between atoms: C_7  and  N_8
REMARK    3  A    between atoms: N_8  and  C_9
REMARK    4  A    between atoms: C_9  and  C_10
REMARK                            x       y       z     vdW  Elec       q    Type
REMARK                         _______ _______ _______ _____ _____    ______ ____
ROOT
ATOM      1  C   UNL     1       8.548  -0.059   2.778  0.00  0.00    +0.000 A 
ATOM      2  C   UNL     1       8.301   0.295   4.104  0.00  0.00    +0.000 A 
ATOM      3  C   UNL     1       7.292   1.214   4.403  0.00  0.00    +0.000 A 
ATOM      4  C   UNL     1       6.466   1.748   3.409  0.00  0.00    +0.000 A 
ATOM      5  C   UNL     1       6.761   1.427   2.075  0.00  0.00    +0.000 A 
ATOM      6  C   UNL     1       7.795   0.533   1.758  0.00  0.00    +0.000 A 
ENDROOT
BRANCH   1   8
ATOM      7  N   UNL     1       9.987  -1.929   3.373  0.00  0.00    +0.000 N 
ATOM      8  C   UNL     1       9.642  -0.987   2.434  0.00  0.00    +0.000 C 
ATOM      9  O   UNL     1      10.213  -0.944   1.352  0.00  0.00    +0.000 OA
ATOM     10  H   UNL     1      10.705  -2.591   3.114  0.00  0.00    +0.000 HD
ATOM     11  H   UNL     1       9.395  -2.155   4.161  0.00  0.00    +0.000 HD
ENDBRANCH   1   8
BRANCH   4  12
ATOM     12  N   UNL     1       5.439   2.677   3.675  0.00  0.00    +0.000 N 
ATOM     13  H   UNL     1       4.684   2.655   2.995  0.00  0.00    +0.000 HD
BRANCH  12  14
ATOM     14  C   UNL     1       5.167   3.258   5.007  0.00  0.00    +0.000 C 
ATOM     15  C   UNL     1       4.835   2.296   6.134  0.00  0.00    +0.000 C 
ATOM     16  C   UNL     1       3.762   3.173   5.592  0.00  0.00    +0.000 C 
BRANCH  14  17
ATOM     17  C   UNL     1       5.888   4.583   5.304  0.00  0.00    +0.000 C 
ATOM     18  C   UNL     1       5.646   5.622   4.189  0.00  0.00    +0.000 C 
ATOM     19  C   UNL     1       6.297   6.958   4.539  0.00  0.00    +0.000 C 
ATOM     20  C   UNL     1       7.791   6.796   4.806  0.00  0.00    +0.000 C 
ATOM     21  C   UNL     1       8.061   5.742   5.876  0.00  0.00    +0.000 C 
ATOM     22  C   UNL     1       7.394   4.409   5.539  0.00  0.00    +0.000 C 
ENDBRANCH  14  17
ENDBRANCH  12  14
ENDBRANCH   4  12
TORSDOF 4
