REMARK  Name = 
REMARK  6 active torsions:
REMARK  status: ('A' for Active; 'I' for Inactive)
REMARK    1  A    between atoms: C_2  and  C_19
REMARK    2  A    between atoms: N_3  and  C_4
REMARK    3  A    between atoms: C_4  and  C_5
REMARK    4  A    between atoms: C_8  and  O_9
REMARK    5  A    between atoms: O_9  and  C_10
REMARK    6  A    between atoms: C_10  and  C_11
REMARK                            x       y       z     vdW  Elec       q    Type
REMARK                         _______ _______ _______ _____ _____    ______ ____
ROOT
ATOM      1  O   UNL     1       0.375   3.029   0.986  0.00  0.00    +0.000 OA
ATOM      2  C   UNL     1       1.372   2.341   1.173  0.00  0.00    +0.000 C 
ATOM      3  N   UNL     1       2.164   1.836   0.168  0.00  0.00    +0.000 N 
ATOM      4  H   UNL     1       3.076   1.477   0.414  0.00  0.00    +0.000 HD
ENDROOT
BRANCH   2   5
ATOM      5  C   UNL     1       1.975   2.150   2.487  0.00  0.00    +0.000 A 
ATOM      6  C   UNL     1       2.028   3.158   3.433  0.00  0.00    +0.000 A 
ATOM      7  S   UNL     1       3.209   2.840   4.637  0.00  0.00    +0.000 S 
ATOM      8  C   UNL     1       3.556   1.306   3.974  0.00  0.00    +0.000 A 
ATOM      9  N   UNL     1       4.577   0.529   4.421  0.00  0.00    +0.000 NA
ATOM     10  C   UNL     1       4.664  -0.621   3.833  0.00  0.00    +0.000 A 
ATOM     11  N   UNL     1       3.793  -1.085   2.879  0.00  0.00    +0.000 N 
ATOM     12  C   UNL     1       2.733  -0.344   2.416  0.00  0.00    +0.000 A 
ATOM     13  O   UNL     1       1.905  -0.809   1.640  0.00  0.00    +0.000 OA
ATOM     14  C   UNL     1       2.688   1.000   2.948  0.00  0.00    +0.000 A 
ATOM     15  H   UNL     1       3.857  -2.031   2.529  0.00  0.00    +0.000 HD
ENDBRANCH   2   5
BRANCH   3  16
ATOM     16  C   UNL     1       2.067   2.304  -1.194  0.00  0.00    +0.000 C 
BRANCH  16  17
ATOM     17  C   UNL     1       3.048   3.433  -1.435  0.00  0.00    +0.000 A 
ATOM     18  C   UNL     1       2.667   4.752  -1.209  0.00  0.00    +0.000 A 
ATOM     19  C   UNL     1       3.588   5.777  -1.442  0.00  0.00    +0.000 A 
ATOM     20  C   UNL     1       4.868   5.464  -1.880  0.00  0.00    +0.000 A 
ATOM     21  C   UNL     1       5.186   4.119  -2.012  0.00  0.00    +0.000 A 
ATOM     22  N   UNL     1       4.312   3.099  -1.801  0.00  0.00    +0.000 NA
BRANCH  20  23
ATOM     23  O   UNL     1       5.857   6.365  -2.157  0.00  0.00    +0.000 OA
BRANCH  23  24
ATOM     24  C   UNL     1       5.408   7.626  -2.676  0.00  0.00    +0.000 C 
BRANCH  24  25
ATOM     25  C   UNL     1       6.590   8.486  -3.062  0.00  0.00    +0.000 A 
ATOM     26  N   UNL     1       7.057   8.401  -4.325  0.00  0.00    +0.000 NA
ATOM     27  C   UNL     1       8.098   9.197  -4.632  0.00  0.00    +0.000 A 
ATOM     28  C   UNL     1       8.682  10.070  -3.743  0.00  0.00    +0.000 A 
ATOM     29  C   UNL     1       8.128  10.087  -2.483  0.00  0.00    +0.000 A 
ATOM     30  N   UNL     1       7.088   9.315  -2.118  0.00  0.00    +0.000 NA
ENDBRANCH  24  25
ENDBRANCH  23  24
ENDBRANCH  20  23
ENDBRANCH  16  17
ENDBRANCH   3  16
TORSDOF 6
