REMARK  Name = 
REMARK  7 active torsions:
REMARK  status: ('A' for Active; 'I' for Inactive)
REMARK    1  A    between atoms: C_2  and  C_20
REMARK    2  A    between atoms: N_3  and  C_4
REMARK    3  A    between atoms: C_4  and  C_5
REMARK    4  A    between atoms: C_8  and  C_9
REMARK    5  A    between atoms: C_9  and  N_10
REMARK    6  A    between atoms: N_10  and  C_11
REMARK    7  A    between atoms: C_11  and  C_12
REMARK                            x       y       z     vdW  Elec       q    Type
REMARK                         _______ _______ _______ _____ _____    ______ ____
ROOT
ATOM      1  C   UNL     1       4.486  -3.207   0.684  0.00  0.00    +0.000 C 
ENDROOT
BRANCH   1   2
ATOM      2  C   UNL     1       3.252  -3.285   1.602  0.00  0.00    +0.000 C 
ATOM      3  C   UNL     1       2.580  -4.667   1.608  0.00  0.00    +0.000 C 
ATOM      4  C   UNL     1       3.446  -5.744   2.261  0.00  0.00    +0.000 C 
ATOM      5  C   UNL     1       3.889  -5.360   3.684  0.00  0.00    +0.000 C 
ATOM      6  C   UNL     1       4.493  -3.943   3.731  0.00  0.00    +0.000 C 
ATOM      7  C   UNL     1       3.615  -2.899   3.042  0.00  0.00    +0.000 C 
BRANCH   5   8
ATOM      8  C   UNL     1       4.879  -6.413   4.229  0.00  0.00    +0.000 C 
BRANCH   8   9
ATOM      9  N   UNL     1       5.272  -6.079   5.598  0.00  0.00    +0.000 NA
ATOM     10  H   UNL     1       4.453  -6.078   6.205  0.00  0.00    +0.000 HD
BRANCH   9  11
ATOM     11  C   UNL     1       6.267  -7.002   6.132  0.00  0.00    +0.000 C 
BRANCH  11  12
ATOM     12  C   UNL     1       6.683  -6.571   7.518  0.00  0.00    +0.000 A 
ATOM     13  C   UNL     1       6.487  -7.400   8.624  0.00  0.00    +0.000 A 
ATOM     14  C   UNL     1       6.880  -6.944   9.874  0.00  0.00    +0.000 A 
ATOM     15  N   UNL     1       7.446  -5.738  10.095  0.00  0.00    +0.000 NA
ATOM     16  C   UNL     1       7.627  -4.951   9.013  0.00  0.00    +0.000 A 
ATOM     17  C   UNL     1       7.272  -5.318   7.725  0.00  0.00    +0.000 A 
ENDBRANCH  11  12
ENDBRANCH   9  11
ENDBRANCH   8   9
ENDBRANCH   5   8
ENDBRANCH   1   2
BRANCH   1  20
ATOM     18  O   UNL     1       5.762  -5.133  -0.931  0.00  0.00    +0.000 OA
ATOM     19  C   UNL     1       4.856  -4.462  -1.412  0.00  0.00    +0.000 C 
ATOM     20  N   UNL     1       4.168  -3.501  -0.700  0.00  0.00    +0.000 N 
ATOM     21  H   UNL     1       3.440  -2.967  -1.153  0.00  0.00    +0.000 HD
BRANCH  19  22
ATOM     22  C   UNL     1       4.452  -4.604  -2.810  0.00  0.00    +0.000 A 
ATOM     23  C   UNL     1       4.112  -3.540  -3.630  0.00  0.00    +0.000 A 
ATOM     24  S   UNL     1       3.813  -4.012  -5.247  0.00  0.00    +0.000 S 
ATOM     25  C   UNL     1       4.133  -5.646  -4.893  0.00  0.00    +0.000 A 
ATOM     26  N   UNL     1       4.084  -6.601  -5.859  0.00  0.00    +0.000 NA
ATOM     27  C   UNL     1       4.373  -7.791  -5.443  0.00  0.00    +0.000 A 
ATOM     28  N   UNL     1       4.685  -8.113  -4.146  0.00  0.00    +0.000 N 
ATOM     29  C   UNL     1       4.641  -7.200  -3.114  0.00  0.00    +0.000 A 
ATOM     30  O   UNL     1       4.707  -7.567  -1.948  0.00  0.00    +0.000 OA
ATOM     31  C   UNL     1       4.421  -5.835  -3.555  0.00  0.00    +0.000 A 
ATOM     32  H   UNL     1       4.832  -9.073  -3.872  0.00  0.00    +0.000 HD
ENDBRANCH  19  22
ENDBRANCH   1  20
TORSDOF 7
