REMARK  Name = 
REMARK  6 active torsions:
REMARK  status: ('A' for Active; 'I' for Inactive)
REMARK    1  A    between atoms: N_1  and  C_2
REMARK    2  A    between atoms: C_2  and  C_3
REMARK    3  A    between atoms: C_6  and  C_7
REMARK    4  A    between atoms: C_7  and  N_8
REMARK    5  A    between atoms: N_8  and  C_9
REMARK    6  A    between atoms: C_12  and  C_13
REMARK                            x       y       z     vdW  Elec       q    Type
REMARK                         _______ _______ _______ _____ _____    ______ ____
ROOT
ATOM      1  N   UNL     1       4.548   0.562   6.177  0.00  0.00    +0.000 N 
ATOM      2  H   UNL     1       3.928   1.354   6.033  0.00  0.00    +0.000 HD
ENDROOT
BRANCH   1   3
ATOM      3  C   UNL     1       4.979   0.565   7.495  0.00  0.00    +0.000 A 
ATOM      4  N   UNL     1       4.719   1.705   8.175  0.00  0.00    +0.000 NA
ATOM      5  C   UNL     1       5.181   1.810   9.453  0.00  0.00    +0.000 A 
ATOM      6  C   UNL     1       5.898   0.822  10.112  0.00  0.00    +0.000 A 
ATOM      7  C   UNL     1       6.148  -0.353   9.407  0.00  0.00    +0.000 A 
ATOM      8  C   UNL     1       5.695  -0.476   8.098  0.00  0.00    +0.000 A 
ATOM      9  F   UNL     1       5.967  -1.615   7.445  0.00  0.00    +0.000 F 
BRANCH   6  10
ATOM     10  C   UNL     1       6.410   0.941  11.498  0.00  0.00    +0.000 C 
ATOM     11  N   UNL     1       6.221   2.107  12.184  0.00  0.00    +0.000 N 
ATOM     12  O   UNL     1       7.004   0.009  12.029  0.00  0.00    +0.000 OA
ATOM     13  H   UNL     1       5.791   2.947  11.831  0.00  0.00    +0.000 HD
ATOM     14  H   UNL     1       6.615   2.143  13.116  0.00  0.00    +0.000 HD
ENDBRANCH   6  10
ENDBRANCH   1   3
BRANCH   1  15
ATOM     15  C   UNL     1       4.104  -0.685   5.582  0.00  0.00    +0.000 C 
BRANCH  15  19
ATOM     16  C   UNL     1       2.749  -0.182   1.491  0.00  0.00    +0.000 A 
ATOM     17  C   UNL     1       4.054   0.173   1.861  0.00  0.00    +0.000 A 
ATOM     18  C   UNL     1       4.483   0.035   3.184  0.00  0.00    +0.000 A 
ATOM     19  C   UNL     1       3.615  -0.459   4.169  0.00  0.00    +0.000 A 
ATOM     20  C   UNL     1       2.308  -0.804   3.801  0.00  0.00    +0.000 A 
ATOM     21  C   UNL     1       1.880  -0.667   2.477  0.00  0.00    +0.000 A 
BRANCH  16  22
ATOM     22  C   UNL     1       2.284  -0.026   0.066  0.00  0.00    +0.000 C 
BRANCH  22  23
ATOM     23  N   UNL     1       3.104  -0.796  -0.863  0.00  0.00    +0.000 NA
ATOM     24  H   UNL     1       2.679  -0.765  -1.787  0.00  0.00    +0.000 HD
ATOM     25  H   UNL     1       3.097  -1.773  -0.573  0.00  0.00    +0.000 HD
ENDBRANCH  22  23
ENDBRANCH  16  22
ENDBRANCH  15  19
ENDBRANCH   1  15
TORSDOF 6
