REMARK  Name = 
REMARK  7 active torsions:
REMARK  status: ('A' for Active; 'I' for Inactive)
REMARK    1  A    between atoms: C_2  and  C_20
REMARK    2  A    between atoms: N_3  and  C_4
REMARK    3  A    between atoms: C_4  and  C_5
REMARK    4  A    between atoms: C_8  and  C_9
REMARK    5  A    between atoms: C_9  and  N_10
REMARK    6  A    between atoms: N_10  and  C_11
REMARK    7  A    between atoms: C_14  and  O_15
REMARK                            x       y       z     vdW  Elec       q    Type
REMARK                         _______ _______ _______ _____ _____    ______ ____
ROOT
ATOM      1  C   UNL     1       5.146   3.858 -14.103  0.00  0.00    +0.000 A 
ATOM      2  C   UNL     1       5.024   4.582 -12.916  0.00  0.00    +0.000 A 
ATOM      3  C   UNL     1       5.615   4.104 -11.752  0.00  0.00    +0.000 A 
ATOM      4  C   UNL     1       6.330   2.910 -11.801  0.00  0.00    +0.000 A 
ATOM      5  N   UNL     1       6.501   2.208 -12.952  0.00  0.00    +0.000 NA
ATOM      6  C   UNL     1       5.913   2.700 -14.068  0.00  0.00    +0.000 A 
ENDROOT
BRANCH   1   7
ATOM      7  C   UNL     1       4.496   4.332 -15.367  0.00  0.00    +0.000 C 
BRANCH   7  10
ATOM      8  O   UNL     1       4.513   7.143 -15.175  0.00  0.00    +0.000 OA
ATOM      9  C   UNL     1       5.334   6.587 -15.898  0.00  0.00    +0.000 C 
ATOM     10  N   UNL     1       5.352   5.231 -16.095  0.00  0.00    +0.000 N 
ATOM     11  H   UNL     1       6.160   4.811 -16.542  0.00  0.00    +0.000 HD
BRANCH   9  12
ATOM     12  C   UNL     1       6.337   7.350 -16.647  0.00  0.00    +0.000 A 
ATOM     13  C   UNL     1       6.095   8.673 -16.989  0.00  0.00    +0.000 A 
ATOM     14  S   UNL     1       7.378   9.399 -17.847  0.00  0.00    +0.000 S 
ATOM     15  C   UNL     1       8.313   7.979 -17.758  0.00  0.00    +0.000 A 
ATOM     16  N   UNL     1       9.569   7.930 -18.280  0.00  0.00    +0.000 NA
ATOM     17  C   UNL     1      10.177   6.804 -18.106  0.00  0.00    +0.000 A 
ATOM     18  N   UNL     1       9.637   5.717 -17.466  0.00  0.00    +0.000 N 
ATOM     19  C   UNL     1       8.347   5.696 -17.002  0.00  0.00    +0.000 A 
ATOM     20  O   UNL     1       7.845   4.656 -16.576  0.00  0.00    +0.000 OA
ATOM     21  C   UNL     1       7.643   6.956 -17.117  0.00  0.00    +0.000 A 
ATOM     22  H   UNL     1      10.152   4.851 -17.402  0.00  0.00    +0.000 HD
ENDBRANCH   9  12
ENDBRANCH   7  10
ENDBRANCH   1   7
BRANCH   4  23
ATOM     23  C   UNL     1       6.971   2.356 -10.544  0.00  0.00    +0.000 C 
BRANCH  23  24
ATOM     24  N   UNL     1       8.430   2.174 -10.635  0.00  0.00    +0.000 NA
ATOM     25  H   UNL     1       8.580   1.538 -11.424  0.00  0.00    +0.000 HD
BRANCH  24  26
ATOM     26  C   UNL     1       9.179   3.413 -10.891  0.00  0.00    +0.000 C 
ATOM     27  C   UNL     1       9.014   4.450  -9.766  0.00  0.00    +0.000 C 
ATOM     28  C   UNL     1       9.897   5.674  -9.994  0.00  0.00    +0.000 C 
ATOM     29  C   UNL     1      11.361   5.274 -10.147  0.00  0.00    +0.000 C 
ATOM     30  C   UNL     1      11.535   4.274 -11.287  0.00  0.00    +0.000 C 
ATOM     31  C   UNL     1      10.661   3.040 -11.081  0.00  0.00    +0.000 C 
BRANCH  29  32
ATOM     32  O   UNL     1      12.152   6.429 -10.397  0.00  0.00    +0.000 OA
ATOM     33  H   UNL     1      11.837   6.842 -11.218  0.00  0.00    +0.000 HD
ENDBRANCH  29  32
ENDBRANCH  24  26
ENDBRANCH  23  24
ENDBRANCH   4  23
TORSDOF 7
