REMARK  Name = 
REMARK  10 active torsions:
REMARK  status: ('A' for Active; 'I' for Inactive)
REMARK    1  A    between atoms: C_1  and  O_2
REMARK    2  A    between atoms: O_2  and  C_3
REMARK    3  A    between atoms: C_5  and  C_6
REMARK    4  A    between atoms: C_6  and  O_7
REMARK    5  A    between atoms: O_7  and  C_8
REMARK    6  A    between atoms: C_8  and  C_9
REMARK    7  A    between atoms: C_12  and  C_13
REMARK    8  A    between atoms: C_13  and  N_14
REMARK    9  A    between atoms: C_13  and  C_15
REMARK   10  A    between atoms: C_15  and  C_16
REMARK                            x       y       z     vdW  Elec       q    Type
REMARK                         _______ _______ _______ _____ _____    ______ ____
ROOT
ATOM      1  C   UNL     1       7.608  -3.994   6.313  0.00  0.00    +0.000 A 
ATOM      2  C   UNL     1       7.745  -5.367   6.080  0.00  0.00    +0.000 A 
ATOM      3  C   UNL     1       8.527  -5.838   5.023  0.00  0.00    +0.000 A 
ATOM      4  C   UNL     1       9.199  -4.946   4.176  0.00  0.00    +0.000 A 
ATOM      5  C   UNL     1       9.048  -3.567   4.416  0.00  0.00    +0.000 A 
ATOM      6  C   UNL     1       8.259  -3.095   5.466  0.00  0.00    +0.000 A 
ENDROOT
BRANCH   1   7
ATOM      7  C   UNL     1       6.782  -3.509   7.469  0.00  0.00    +0.000 C 
BRANCH   7   8
ATOM      8  O   UNL     1       7.371  -4.004   8.669  0.00  0.00    +0.000 OA
BRANCH   8   9
ATOM      9  C   UNL     1       6.646  -3.562   9.810  0.00  0.00    +0.000 C 
BRANCH   9  12
ATOM     10  C   UNL     1       8.877  -4.879  12.584  0.00  0.00    +0.000 C 
ATOM     11  C   UNL     1       8.680  -4.380  11.239  0.00  0.00    +0.000 C 
ATOM     12  C   UNL     1       7.265  -4.108  11.045  0.00  0.00    +0.000 C 
ATOM     13  C   UNL     1       6.673  -4.452  12.202  0.00  0.00    +0.000 A 
ATOM     14  C   UNL     1       5.261  -4.362  12.588  0.00  0.00    +0.000 A 
ATOM     15  O   UNL     1       4.374  -3.936  11.860  0.00  0.00    +0.000 OA
ATOM     16  N   UNL     1       5.032  -4.786  13.869  0.00  0.00    +0.000 N 
ATOM     17  C   UNL     1       6.022  -5.227  14.707  0.00  0.00    +0.000 A 
ATOM     18  N   UNL     1       7.279  -5.315  14.419  0.00  0.00    +0.000 NA
ATOM     19  C   UNL     1       7.658  -4.930  13.165  0.00  0.00    +0.000 A 
ATOM     20  H   UNL     1       4.074  -4.738  14.182  0.00  0.00    +0.000 HD
BRANCH  10  22
ATOM     21  C   UNL     1      10.268  -5.660  14.314  0.00  0.00    +0.000 C 
ATOM     22  O   UNL     1      10.139  -5.174  12.984  0.00  0.00    +0.000 OA
ENDBRANCH  10  22
ENDBRANCH   9  12
ENDBRANCH   8   9
ENDBRANCH   7   8
ENDBRANCH   1   7
BRANCH   4  23
ATOM     23  C   UNL     1      10.095  -5.391   3.026  0.00  0.00    +0.000 C 
BRANCH  23  24
ATOM     24  N   UNL     1       9.620  -4.773   1.770  0.00  0.00    +0.000 NA
ATOM     25  H   UNL     1       8.664  -5.088   1.608  0.00  0.00    +0.000 HD
ATOM     26  H   UNL     1      10.152  -5.195   1.000  0.00  0.00    +0.000 HD
ENDBRANCH  23  24
BRANCH  23  27
ATOM     27  C   UNL     1      10.262  -6.926   2.879  0.00  0.00    +0.000 C 
BRANCH  27  28
ATOM     28  C   UNL     1      11.260  -7.293   1.832  0.00  0.00    +0.000 A 
ATOM     29  C   UNL     1      12.601  -7.578   1.965  0.00  0.00    +0.000 A 
ATOM     30  N   UNL     1      13.052  -7.782   0.690  0.00  0.00    +0.000 N 
ATOM     31  C   UNL     1      11.989  -7.626  -0.153  0.00  0.00    +0.000 A 
ATOM     32  N   UNL     1      10.893  -7.329   0.505  0.00  0.00    +0.000 NA
ATOM     33  H   UNL     1      14.000  -7.994   0.414  0.00  0.00    +0.000 HD
ENDBRANCH  27  28
ENDBRANCH  23  27
ENDBRANCH   4  23
TORSDOF 9
