REMARK  Name = 
REMARK  6 active torsions:
REMARK  status: ('A' for Active; 'I' for Inactive)
REMARK    1  A    between atoms: C_1  and  O_2
REMARK    2  A    between atoms: O_2  and  C_3
REMARK    3  A    between atoms: N_9  and  C_10
REMARK    4  A    between atoms: C_10  and  C_11
REMARK    5  A    between atoms: C_15  and  C_16
REMARK    6  A    between atoms: C_16  and  N_17
REMARK                            x       y       z     vdW  Elec       q    Type
REMARK                         _______ _______ _______ _____ _____    ______ ____
ROOT
ATOM      1  C   UNL     1       3.355  -2.165   5.267  0.00  0.00    +0.000 A 
ATOM      2  C   UNL     1       2.887  -3.301   4.600  0.00  0.00    +0.000 A 
ATOM      3  C   UNL     1       3.489  -3.732   3.407  0.00  0.00    +0.000 A 
ATOM      4  C   UNL     1       4.574  -3.011   2.890  0.00  0.00    +0.000 A 
ATOM      5  N   UNL     1       5.316  -3.241   1.759  0.00  0.00    +0.000 NA
ATOM      6  C   UNL     1       6.212  -2.280   1.737  0.00  0.00    +0.000 A 
ATOM      7  N   UNL     1       6.075  -1.430   2.803  0.00  0.00    +0.000 N 
ATOM      8  C   UNL     1       5.022  -1.880   3.565  0.00  0.00    +0.000 A 
ATOM      9  C   UNL     1       4.430  -1.429   4.751  0.00  0.00    +0.000 A 
ENDROOT
BRANCH   1  11
ATOM     10  C   UNL     1       1.736  -2.341   6.999  0.00  0.00    +0.000 C 
ATOM     11  O   UNL     1       2.853  -1.664   6.440  0.00  0.00    +0.000 OA
ENDBRANCH   1  11
BRANCH   7  12
ATOM     12  C   UNL     1       6.875  -0.239   3.034  0.00  0.00    +0.000 C 
BRANCH  12  13
ATOM     13  C   UNL     1       8.084  -0.545   3.881  0.00  0.00    +0.000 A 
ATOM     14  C   UNL     1       9.305  -0.886   3.284  0.00  0.00    +0.000 A 
ATOM     15  C   UNL     1      10.401  -1.238   4.072  0.00  0.00    +0.000 A 
ATOM     16  C   UNL     1      10.288  -1.268   5.462  0.00  0.00    +0.000 A 
ATOM     17  C   UNL     1       9.081  -0.929   6.084  0.00  0.00    +0.000 A 
ATOM     18  C   UNL     1       7.992  -0.552   5.283  0.00  0.00    +0.000 A 
BRANCH  17  19
ATOM     19  C   UNL     1       8.928  -1.027   7.581  0.00  0.00    +0.000 C 
BRANCH  19  20
ATOM     20  N   UNL     1       8.652   0.269   8.190  0.00  0.00    +0.000 NA
ATOM     21  H   UNL     1       9.453   0.878   8.040  0.00  0.00    +0.000 HD
ATOM     22  H   UNL     1       8.570   0.146   9.198  0.00  0.00    +0.000 HD
ENDBRANCH  19  20
ENDBRANCH  17  19
ENDBRANCH  12  13
ENDBRANCH   7  12
TORSDOF 5
