REMARK  Name = 
REMARK  4 active torsions:
REMARK  status: ('A' for Active; 'I' for Inactive)
REMARK    1  A    between atoms: C_2  and  C_4
REMARK    2  A    between atoms: C_7  and  O_8
REMARK    3  A    between atoms: O_8  and  C_9
REMARK    4  A    between atoms: C_9  and  C_10
REMARK                            x       y       z     vdW  Elec       q    Type
REMARK                         _______ _______ _______ _____ _____    ______ ____
ROOT
ATOM      1  C   UNL     1       2.992   1.365  -0.433  0.00  0.00    +0.000 A 
ATOM      2  C   UNL     1       3.483   0.781  -1.602  0.00  0.00    +0.000 A 
ATOM      3  C   UNL     1       4.137   1.582  -2.541  0.00  0.00    +0.000 A 
ATOM      4  C   UNL     1       4.253   2.940  -2.288  0.00  0.00    +0.000 A 
ATOM      5  N   UNL     1       3.781   3.532  -1.170  0.00  0.00    +0.000 NA
ATOM      6  C   UNL     1       3.156   2.734  -0.270  0.00  0.00    +0.000 A 
ENDROOT
BRANCH   1   8
ATOM      7  N   UNL     1       2.586  -0.719   0.750  0.00  0.00    +0.000 N 
ATOM      8  C   UNL     1       2.295   0.610   0.628  0.00  0.00    +0.000 C 
ATOM      9  O   UNL     1       1.513   1.160   1.395  0.00  0.00    +0.000 OA
ATOM     10  H   UNL     1       2.187  -1.192   1.552  0.00  0.00    +0.000 HD
ATOM     11  H   UNL     1       3.394  -1.141   0.317  0.00  0.00    +0.000 HD
ENDBRANCH   1   8
BRANCH   4  12
ATOM     12  O   UNL     1       4.913   3.701  -3.232  0.00  0.00    +0.000 OA
BRANCH  12  13
ATOM     13  C   UNL     1       4.598   5.091  -3.098  0.00  0.00    +0.000 C 
BRANCH  13  14
ATOM     14  C   UNL     1       5.360   5.930  -4.101  0.00  0.00    +0.000 A 
ATOM     15  C   UNL     1       4.749   7.064  -4.658  0.00  0.00    +0.000 A 
ATOM     16  C   UNL     1       5.459   7.910  -5.512  0.00  0.00    +0.000 A 
ATOM     17  C   UNL     1       6.790   7.635  -5.814  0.00  0.00    +0.000 A 
ATOM     18  C   UNL     1       7.412   6.516  -5.263  0.00  0.00    +0.000 A 
ATOM     19  C   UNL     1       6.703   5.668  -4.407  0.00  0.00    +0.000 A 
ENDBRANCH  13  14
ENDBRANCH  12  13
ENDBRANCH   4  12
TORSDOF 4
