REMARK  Name = 
REMARK  8 active torsions:
REMARK  status: ('A' for Active; 'I' for Inactive)
REMARK    1  A    between atoms: C_1  and  O_2
REMARK    2  A    between atoms: O_2  and  C_3
REMARK    3  A    between atoms: C_10  and  C_11
REMARK    4  A    between atoms: N_13  and  C_14
REMARK    5  A    between atoms: C_14  and  C_15
REMARK    6  A    between atoms: C_18  and  C_19
REMARK    7  A    between atoms: C_19  and  C_20
REMARK    8  A    between atoms: C_21  and  C_22
REMARK                            x       y       z     vdW  Elec       q    Type
REMARK                         _______ _______ _______ _____ _____    ______ ____
ROOT
ATOM      1  C   UNL     1       2.603   3.116  -1.117  0.00  0.00    +0.000 C 
ENDROOT
BRANCH   1   2
ATOM      2  C   UNL     1       1.411   2.562  -1.843  0.00  0.00    +0.000 A 
ATOM      3  C   UNL     1       1.378   1.246  -2.309  0.00  0.00    +0.000 A 
ATOM      4  C   UNL     1       0.231   0.758  -2.938  0.00  0.00    +0.000 A 
ATOM      5  C   UNL     1      -0.869   1.599  -3.086  0.00  0.00    +0.000 A 
ATOM      6  N   UNL     1      -0.837   2.897  -2.692  0.00  0.00    +0.000 NA
ATOM      7  C   UNL     1       0.292   3.347  -2.093  0.00  0.00    +0.000 A 
BRANCH   5   8
ATOM      8  C   UNL     1      -2.168   1.076  -3.664  0.00  0.00    +0.000 C 
BRANCH   8   9
ATOM      9  C   UNL     1      -2.299   1.291  -5.143  0.00  0.00    +0.000 C 
ATOM     10  C   UNL     1      -2.544   0.332  -6.058  0.00  0.00    +0.000 C 
BRANCH  10  11
ATOM     11  C   UNL     1      -2.708   0.621  -7.494  0.00  0.00    +0.000 A 
ATOM     12  C   UNL     1      -2.927  -0.404  -8.409  0.00  0.00    +0.000 A 
ATOM     13  C   UNL     1      -3.064  -0.082  -9.761  0.00  0.00    +0.000 A 
ATOM     14  C   UNL     1      -2.987   1.248 -10.157  0.00  0.00    +0.000 A 
ATOM     15  C   UNL     1      -2.779   2.206  -9.181  0.00  0.00    +0.000 A 
ATOM     16  N   UNL     1      -2.635   1.920  -7.871  0.00  0.00    +0.000 NA
ENDBRANCH  10  11
ENDBRANCH   8   9
ENDBRANCH   5   8
ENDBRANCH   1   2
BRANCH   1  19
ATOM     17  C   UNL     1       4.745   4.228  -1.591  0.00  0.00    +0.000 C 
ATOM     18  O   UNL     1       5.051   4.214  -0.401  0.00  0.00    +0.000 OA
ATOM     19  N   UNL     1       3.557   3.702  -2.023  0.00  0.00    +0.000 N 
ATOM     20  H   UNL     1       3.307   3.755  -3.000  0.00  0.00    +0.000 HD
BRANCH  17  28
ATOM     21  C   UNL     1       4.575   4.488  -5.018  0.00  0.00    +0.000 A 
ATOM     22  N   UNL     1       4.748   4.745  -6.329  0.00  0.00    +0.000 NA
ATOM     23  C   UNL     1       5.854   5.396  -6.699  0.00  0.00    +0.000 A 
ATOM     24  N   UNL     1       6.834   5.826  -5.909  0.00  0.00    +0.000 NA
ATOM     25  C   UNL     1       6.618   5.559  -4.611  0.00  0.00    +0.000 A 
ATOM     26  S   UNL     1       7.768   6.029  -3.455  0.00  0.00    +0.000 S 
ATOM     27  C   UNL     1       6.832   5.389  -2.189  0.00  0.00    +0.000 A 
ATOM     28  C   UNL     1       5.638   4.813  -2.608  0.00  0.00    +0.000 A 
ATOM     29  C   UNL     1       5.517   4.906  -4.061  0.00  0.00    +0.000 A 
BRANCH  21  31
ATOM     30  C   UNL     1       2.850   3.039  -5.663  0.00  0.00    +0.000 C 
ATOM     31  O   UNL     1       3.427   3.831  -4.629  0.00  0.00    +0.000 OA
ENDBRANCH  21  31
ENDBRANCH  17  28
ENDBRANCH   1  19
TORSDOF 7
