REMARK  Name = 
REMARK  6 active torsions:
REMARK  status: ('A' for Active; 'I' for Inactive)
REMARK    1  A    between atoms: C_2  and  C_4
REMARK    2  A    between atoms: N_8  and  C_9
REMARK    3  A    between atoms: C_9  and  C_10
REMARK    4  A    between atoms: C_10  and  C_11
REMARK    5  A    between atoms: C_15  and  O_16
REMARK    6  A    between atoms: O_16  and  C_17
REMARK                            x       y       z     vdW  Elec       q    Type
REMARK                         _______ _______ _______ _____ _____    ______ ____
ROOT
ATOM      1  C   UNL     1       3.202  -1.264   0.027  0.00  0.00    +0.000 A 
ATOM      2  C   UNL     1       2.561  -2.455  -0.295  0.00  0.00    +0.000 A 
ATOM      3  C   UNL     1       3.300  -3.639  -0.330  0.00  0.00    +0.000 A 
ATOM      4  C   UNL     1       4.667  -3.610  -0.066  0.00  0.00    +0.000 A 
ATOM      5  N   UNL     1       5.449  -4.754  -0.002  0.00  0.00    +0.000 N 
ATOM      6  N   UNL     1       5.305  -2.456   0.214  0.00  0.00    +0.000 NA
ATOM      7  C   UNL     1       4.568  -1.312   0.250  0.00  0.00    +0.000 A 
ATOM      8  H   UNL     1       6.415  -4.444   0.062  0.00  0.00    +0.000 HD
ENDROOT
BRANCH   1  10
ATOM      9  N   UNL     1       1.159  -0.030   0.470  0.00  0.00    +0.000 N 
ATOM     10  C   UNL     1       2.486   0.024   0.136  0.00  0.00    +0.000 C 
ATOM     11  O   UNL     1       3.059   1.090  -0.026  0.00  0.00    +0.000 OA
ATOM     12  H   UNL     1       0.703   0.857   0.647  0.00  0.00    +0.000 HD
ATOM     13  H   UNL     1       0.727  -0.860   0.852  0.00  0.00    +0.000 HD
ENDBRANCH   1  10
BRANCH   5  14
ATOM     14  C   UNL     1       5.188  -5.841  -0.940  0.00  0.00    +0.000 C 
BRANCH  14  15
ATOM     15  C   UNL     1       6.224  -6.959  -0.765  0.00  0.00    +0.000 C 
BRANCH  15  16
ATOM     16  C   UNL     1       5.884  -8.181  -1.589  0.00  0.00    +0.000 A 
ATOM     17  C   UNL     1       5.048  -9.174  -1.062  0.00  0.00    +0.000 A 
ATOM     18  C   UNL     1       4.713 -10.295  -1.824  0.00  0.00    +0.000 A 
ATOM     19  C   UNL     1       5.210 -10.439  -3.122  0.00  0.00    +0.000 A 
ATOM     20  C   UNL     1       6.045  -9.462  -3.656  0.00  0.00    +0.000 A 
ATOM     21  C   UNL     1       6.369  -8.331  -2.897  0.00  0.00    +0.000 A 
BRANCH  20  22
ATOM     22  O   UNL     1       6.568  -9.496  -4.926  0.00  0.00    +0.000 OA
BRANCH  22  23
ATOM     23  C   UNL     1       6.722 -10.774  -5.587  0.00  0.00    +0.000 C 
ATOM     24  C   UNL     1       7.792 -11.735  -5.017  0.00  0.00    +0.000 C 
ATOM     25  C   UNL     1       8.335 -11.948  -6.435  0.00  0.00    +0.000 C 
ATOM     26  C   UNL     1       7.551 -10.713  -6.893  0.00  0.00    +0.000 C 
ENDBRANCH  22  23
ENDBRANCH  20  22
ENDBRANCH  15  16
ENDBRANCH  14  15
ENDBRANCH   5  14
TORSDOF 6
