REMARK  Name = 
REMARK  4 active torsions:
REMARK  status: ('A' for Active; 'I' for Inactive)
REMARK    1  A    between atoms: N_1  and  C_2
REMARK    2  A    between atoms: C_2  and  C_3
REMARK    3  A    between atoms: C_6  and  C_7
REMARK    4  A    between atoms: C_8  and  C_9
REMARK                            x       y       z     vdW  Elec       q    Type
REMARK                         _______ _______ _______ _____ _____    ______ ____
ROOT
ATOM      1  C   UNL     1       2.943  -1.092  -0.723  0.00  0.00    +0.000 A 
ATOM      2  C   UNL     1       3.956  -0.954  -1.681  0.00  0.00    +0.000 A 
ATOM      3  C   UNL     1       4.403  -2.056  -2.418  0.00  0.00    +0.000 A 
ATOM      4  C   UNL     1       3.854  -3.326  -2.205  0.00  0.00    +0.000 A 
ATOM      5  C   UNL     1       2.848  -3.466  -1.240  0.00  0.00    +0.000 A 
ATOM      6  C   UNL     1       2.400  -2.363  -0.503  0.00  0.00    +0.000 A 
ENDROOT
BRANCH   4   7
ATOM      7  C   UNL     1       4.207  -4.491  -3.033  0.00  0.00    +0.000 C 
ATOM      8  C   UNL     1       5.401  -4.696  -3.613  0.00  0.00    +0.000 C 
BRANCH   8   9
ATOM      9  C   UNL     1       5.690  -5.823  -4.510  0.00  0.00    +0.000 A 
ATOM     10  C   UNL     1       4.753  -6.427  -5.330  0.00  0.00    +0.000 A 
ATOM     11  N   UNL     1       5.025  -7.421  -6.203  0.00  0.00    +0.000 NA
ATOM     12  C   UNL     1       6.309  -7.807  -6.259  0.00  0.00    +0.000 A 
ATOM     13  N   UNL     1       7.314  -7.299  -5.532  0.00  0.00    +0.000 NA
ATOM     14  C   UNL     1       6.975  -6.309  -4.674  0.00  0.00    +0.000 A 
ENDBRANCH   8   9
ENDBRANCH   4   7
BRANCH   1  15
ATOM     15  C   UNL     1       2.459   0.103   0.058  0.00  0.00    +0.000 C 
BRANCH  15  16
ATOM     16  N   UNL     1       1.924   1.141  -0.817  0.00  0.00    +0.000 NA
ATOM     17  H   UNL     1       1.564   1.904  -0.247  0.00  0.00    +0.000 HD
ATOM     18  H   UNL     1       1.127   0.762  -1.327  0.00  0.00    +0.000 HD
ENDBRANCH  15  16
ENDBRANCH   1  15
TORSDOF 4
