REMARK  Name = 
REMARK  6 active torsions:
REMARK  status: ('A' for Active; 'I' for Inactive)
REMARK    1  A    between atoms: C_2  and  C_3
REMARK    2  A    between atoms: N_10  and  C_11
REMARK    3  A    between atoms: C_11  and  C_12
REMARK    4  A    between atoms: C_15  and  C_16
REMARK    5  A    between atoms: C_16  and  N_17
REMARK    6  A    between atoms: C_18  and  C_20
REMARK                            x       y       z     vdW  Elec       q    Type
REMARK                         _______ _______ _______ _____ _____    ______ ____
ROOT
ATOM      1  C   UNL     1       0.606  -4.136  -0.125  0.00  0.00    +0.000 A 
ATOM      2  C   UNL     1      -0.000  -5.401  -0.080  0.00  0.00    +0.000 A 
ATOM      3  C   UNL     1      -1.395  -5.525  -0.024  0.00  0.00    +0.000 A 
ATOM      4  C   UNL     1      -2.213  -4.387  -0.031  0.00  0.00    +0.000 A 
ATOM      5  C   UNL     1      -1.606  -3.125  -0.057  0.00  0.00    +0.000 A 
ATOM      6  C   UNL     1      -0.213  -3.001  -0.115  0.00  0.00    +0.000 A 
ENDROOT
BRANCH   1   7
ATOM      7  C   UNL     1       2.104  -3.995  -0.146  0.00  0.00    +0.000 C 
BRANCH   7  15
ATOM      8  C   UNL     1       4.033  -3.251  -4.052  0.00  0.00    +0.000 A 
ATOM      9  C   UNL     1       4.699  -3.654  -5.195  0.00  0.00    +0.000 A 
ATOM     10  C   UNL     1       5.518  -4.749  -4.852  0.00  0.00    +0.000 A 
ATOM     11  C   UNL     1       5.360  -4.956  -3.502  0.00  0.00    +0.000 A 
ATOM     12  N   UNL     1       4.406  -4.078  -3.006  0.00  0.00    +0.000 N 
ATOM     13  C   UNL     1       4.002  -4.051  -1.657  0.00  0.00    +0.000 C 
ATOM     14  O   UNL     1       4.818  -4.308  -0.784  0.00  0.00    +0.000 OA
ATOM     15  N   UNL     1       2.649  -3.855  -1.487  0.00  0.00    +0.000 N 
ATOM     16  H   UNL     1       2.003  -3.877  -2.267  0.00  0.00    +0.000 HD
BRANCH   8  18
ATOM     17  N   UNL     1       2.521  -1.174  -3.820  0.00  0.00    +0.000 NA
ATOM     18  C   UNL     1       3.198  -2.109  -3.923  0.00  0.00    +0.000 C 
ENDBRANCH   8  18
ENDBRANCH   7  15
ENDBRANCH   1   7
BRANCH   4  19
ATOM     19  C   UNL     1      -3.716  -4.509   0.002  0.00  0.00    +0.000 C 
BRANCH  19  20
ATOM     20  N   UNL     1      -4.237  -4.441   1.344  0.00  0.00    +0.000 N 
ATOM     21  C   UNL     1      -5.592  -4.412   1.568  0.00  0.00    +0.000 C 
ATOM     22  O   UNL     1      -6.404  -4.298   0.654  0.00  0.00    +0.000 OA
ATOM     23  H   UNL     1      -3.605  -4.690   2.100  0.00  0.00    +0.000 HD
BRANCH  21  24
ATOM     24  C   UNL     1      -6.029  -4.516   2.962  0.00  0.00    +0.000 A 
ATOM     25  C   UNL     1      -7.256  -3.984   3.347  0.00  0.00    +0.000 A 
ATOM     26  S   UNL     1      -7.649  -4.276   4.982  0.00  0.00    +0.000 S 
ATOM     27  C   UNL     1      -6.227  -5.180   5.216  0.00  0.00    +0.000 A 
ATOM     28  N   UNL     1      -5.997  -5.839   6.384  0.00  0.00    +0.000 NA
ATOM     29  C   UNL     1      -4.887  -6.499   6.415  0.00  0.00    +0.000 A 
ATOM     30  N   UNL     1      -3.970  -6.526   5.399  0.00  0.00    +0.000 N 
ATOM     31  C   UNL     1      -4.135  -5.838   4.222  0.00  0.00    +0.000 A 
ATOM     32  O   UNL     1      -3.247  -5.797   3.375  0.00  0.00    +0.000 OA
ATOM     33  C   UNL     1      -5.410  -5.157   4.099  0.00  0.00    +0.000 A 
ATOM     34  H   UNL     1      -3.093  -7.013   5.510  0.00  0.00    +0.000 HD
ENDBRANCH  21  24
ENDBRANCH  19  20
ENDBRANCH   4  19
TORSDOF 6
