REMARK  Name = 
REMARK  6 active torsions:
REMARK  status: ('A' for Active; 'I' for Inactive)
REMARK    1  A    between atoms: C_2  and  C_3
REMARK    2  A    between atoms: C_5  and  C_6
REMARK    3  A    between atoms: C_6  and  N_7
REMARK    4  A    between atoms: C_8  and  C_10
REMARK    5  A    between atoms: C_22  and  C_23
REMARK    6  A    between atoms: C_23  and  N_24
REMARK                            x       y       z     vdW  Elec       q    Type
REMARK                         _______ _______ _______ _____ _____    ______ ____
ROOT
ATOM      1  C   UNL     1       2.835  -2.702   0.002  0.00  0.00    +0.000 C 
ENDROOT
BRANCH   1   4
ATOM      2  C   UNL     1      -0.230  -0.478  -0.377  0.00  0.00    +0.000 A 
ATOM      3  C   UNL     1       0.622  -1.595  -0.424  0.00  0.00    +0.000 A 
ATOM      4  C   UNL     1       1.995  -1.467  -0.196  0.00  0.00    +0.000 A 
ATOM      5  C   UNL     1       2.535  -0.184  -0.083  0.00  0.00    +0.000 A 
ATOM      6  C   UNL     1       1.703   0.944  -0.125  0.00  0.00    +0.000 A 
ATOM      7  C   UNL     1       0.303   0.818  -0.223  0.00  0.00    +0.000 A 
BRANCH   2   9
ATOM      8  N   UNL     1      -2.747  -1.094  -0.276  0.00  0.00    +0.000 NA
ATOM      9  C   UNL     1      -1.634  -0.768  -0.350  0.00  0.00    +0.000 C 
ENDBRANCH   2   9
BRANCH   7  10
ATOM     10  C   UNL     1      -0.552   2.060  -0.007  0.00  0.00    +0.000 C 
BRANCH  10  11
ATOM     11  N   UNL     1      -0.676   2.975  -1.162  0.00  0.00    +0.000 NA
ATOM     12  C   UNL     1      -1.308   4.248  -0.738  0.00  0.00    +0.000 C 
ATOM     13  C   UNL     1      -2.791   3.929  -0.643  0.00  0.00    +0.000 C 
ATOM     14  C   UNL     1      -3.010   2.963  -1.797  0.00  0.00    +0.000 C 
ATOM     15  C   UNL     1      -1.611   2.483  -2.190  0.00  0.00    +0.000 C 
ENDBRANCH  10  11
ENDBRANCH   7  10
ENDBRANCH   1   4
BRANCH   1  16
ATOM     16  N   UNL     1       3.343  -3.220  -1.236  0.00  0.00    +0.000 N 
ATOM     17  C   UNL     1       4.643  -3.056  -1.626  0.00  0.00    +0.000 C 
ATOM     18  O   UNL     1       5.441  -2.401  -0.960  0.00  0.00    +0.000 OA
ATOM     19  H   UNL     1       2.704  -3.779  -1.792  0.00  0.00    +0.000 HD
BRANCH  17  20
ATOM     20  C   UNL     1       5.048  -3.702  -2.883  0.00  0.00    +0.000 A 
ATOM     21  C   UNL     1       6.338  -3.500  -3.359  0.00  0.00    +0.000 A 
ATOM     22  S   UNL     1       6.664  -4.294  -4.829  0.00  0.00    +0.000 S 
ATOM     23  C   UNL     1       5.095  -4.947  -4.885  0.00  0.00    +0.000 A 
ATOM     24  N   UNL     1       4.714  -5.737  -5.927  0.00  0.00    +0.000 NA
ATOM     25  C   UNL     1       3.504  -6.176  -5.848  0.00  0.00    +0.000 A 
ATOM     26  N   UNL     1       2.642  -5.898  -4.815  0.00  0.00    +0.000 N 
ATOM     27  C   UNL     1       2.972  -5.106  -3.754  0.00  0.00    +0.000 A 
ATOM     28  O   UNL     1       2.166  -4.883  -2.851  0.00  0.00    +0.000 OA
ATOM     29  C   UNL     1       4.329  -4.576  -3.790  0.00  0.00    +0.000 A 
ATOM     30  H   UNL     1       1.711  -6.285  -4.817  0.00  0.00    +0.000 HD
ENDBRANCH  17  20
ENDBRANCH   1  16
TORSDOF 6
