REMARK  Name = 
REMARK  5 active torsions:
REMARK  status: ('A' for Active; 'I' for Inactive)
REMARK    1  A    between atoms: N_1  and  C_2
REMARK    2  A    between atoms: C_2  and  C_3
REMARK    3  A    between atoms: C_6  and  O_7
REMARK    4  A    between atoms: O_7  and  C_8
REMARK    5  A    between atoms: C_8  and  C_9
REMARK                            x       y       z     vdW  Elec       q    Type
REMARK                         _______ _______ _______ _____ _____    ______ ____
ROOT
ATOM      1  C   UNL     1       2.871   1.214   0.485  0.00  0.00    +0.000 A 
ATOM      2  C   UNL     1       2.542   2.388  -0.209  0.00  0.00    +0.000 A 
ATOM      3  C   UNL     1       2.883   3.642   0.310  0.00  0.00    +0.000 A 
ATOM      4  C   UNL     1       3.545   3.738   1.532  0.00  0.00    +0.000 A 
ATOM      5  C   UNL     1       3.937   2.571   2.192  0.00  0.00    +0.000 A 
ATOM      6  C   UNL     1       3.590   1.319   1.681  0.00  0.00    +0.000 A 
ENDROOT
BRANCH   1   7
ATOM      7  C   UNL     1       2.441  -0.137  -0.025  0.00  0.00    +0.000 C 
BRANCH   7   8
ATOM      8  N   UNL     1       3.037  -0.439  -1.318  0.00  0.00    +0.000 NA
ATOM      9  H   UNL     1       2.825  -1.404  -1.563  0.00  0.00    +0.000 HD
ATOM     10  H   UNL     1       4.050  -0.378  -1.234  0.00  0.00    +0.000 HD
ENDBRANCH   7   8
ENDBRANCH   1   7
BRANCH   4  11
ATOM     11  O   UNL     1       3.746   5.010   2.010  0.00  0.00    +0.000 OA
BRANCH  11  12
ATOM     12  C   UNL     1       3.923   5.079   3.428  0.00  0.00    +0.000 C 
BRANCH  12  13
ATOM     13  C   UNL     1       3.622   6.457   3.970  0.00  0.00    +0.000 A 
ATOM     14  C   UNL     1       3.032   6.575   5.238  0.00  0.00    +0.000 A 
ATOM     15  C   UNL     1       2.790   7.828   5.798  0.00  0.00    +0.000 A 
ATOM     16  C   UNL     1       3.145   8.987   5.103  0.00  0.00    +0.000 A 
ATOM     17 CL   UNL     1       2.827  10.503   5.864  0.00  0.00    +0.000 Cl
ATOM     18  C   UNL     1       3.742   8.883   3.841  0.00  0.00    +0.000 A 
ATOM     19 CL   UNL     1       4.218  10.274   2.932  0.00  0.00    +0.000 Cl
ATOM     20  C   UNL     1       3.983   7.623   3.280  0.00  0.00    +0.000 A 
ENDBRANCH  12  13
ENDBRANCH  11  12
ENDBRANCH   4  11
TORSDOF 5
