REMARK  Name = 
REMARK  4 active torsions:
REMARK  status: ('A' for Active; 'I' for Inactive)
REMARK    1  A    between atoms: N_1  and  C_2
REMARK    2  A    between atoms: C_2  and  C_3
REMARK    3  A    between atoms: C_6  and  C_7
REMARK    4  A    between atoms: C_7  and  N_8
REMARK                            x       y       z     vdW  Elec       q    Type
REMARK                         _______ _______ _______ _____ _____    ______ ____
ROOT
ATOM      1  C   UNL     1       3.204  -1.180   0.343  0.00  0.00    +0.000 A 
ATOM      2  C   UNL     1       4.183  -1.835  -0.417  0.00  0.00    +0.000 A 
ATOM      3  C   UNL     1       4.532  -3.161  -0.143  0.00  0.00    +0.000 A 
ATOM      4  C   UNL     1       3.915  -3.858   0.906  0.00  0.00    +0.000 A 
ATOM      5  C   UNL     1       2.924  -3.208   1.652  0.00  0.00    +0.000 A 
ATOM      6  C   UNL     1       2.570  -1.886   1.373  0.00  0.00    +0.000 A 
ENDROOT
BRANCH   1   7
ATOM      7  C   UNL     1       2.866   0.265   0.078  0.00  0.00    +0.000 C 
BRANCH   7   8
ATOM      8  N   UNL     1       2.368   0.465  -1.277  0.00  0.00    +0.000 NA
ATOM      9  H   UNL     1       2.043   1.424  -1.373  0.00  0.00    +0.000 HD
ATOM     10  H   UNL     1       1.552  -0.131  -1.415  0.00  0.00    +0.000 HD
ENDBRANCH   7   8
ENDBRANCH   1   7
BRANCH   4  11
ATOM     11  C   UNL     1       4.306  -5.278   1.231  0.00  0.00    +0.000 C 
BRANCH  11  12
ATOM     12  N   UNL     1       5.377  -5.354   2.221  0.00  0.00    +0.000 N 
ATOM     13  C   UNL     1       5.172  -5.400   3.583  0.00  0.00    +0.000 A 
ATOM     14  C   UNL     1       6.387  -5.632   4.192  0.00  0.00    +0.000 A 
ATOM     15  C   UNL     1       7.358  -5.743   3.171  0.00  0.00    +0.000 A 
ATOM     16  N   UNL     1       8.683  -6.003   3.288  0.00  0.00    +0.000 NA
ATOM     17  C   UNL     1       9.352  -6.070   2.117  0.00  0.00    +0.000 A 
ATOM     18  C   UNL     1       8.798  -5.881   0.861  0.00  0.00    +0.000 A 
ATOM     19  C   UNL     1       7.438  -5.607   0.750  0.00  0.00    +0.000 A 
ATOM     20  C   UNL     1       6.716  -5.551   1.946  0.00  0.00    +0.000 A 
ENDBRANCH  11  12
ENDBRANCH   4  11
TORSDOF 4
