REMARK  Name = 
REMARK  4 active torsions:
REMARK  status: ('A' for Active; 'I' for Inactive)
REMARK    1  A    between atoms: C_2  and  C_4
REMARK    2  A    between atoms: N_8  and  C_9
REMARK    3  A    between atoms: C_9  and  C_10
REMARK    4  A    between atoms: C_14  and  O_15
REMARK                            x       y       z     vdW  Elec       q    Type
REMARK                         _______ _______ _______ _____ _____    ______ ____
ROOT
ATOM      1  C   UNL     1       3.501   3.551   0.773  0.00  0.00    +0.000 A 
ATOM      2  C   UNL     1       2.745   3.350   1.923  0.00  0.00    +0.000 A 
ATOM      3  C   UNL     1       3.352   2.817   3.059  0.00  0.00    +0.000 A 
ATOM      4  C   UNL     1       4.703   2.498   3.029  0.00  0.00    +0.000 A 
ATOM      5  N   UNL     1       5.354   1.859   4.088  0.00  0.00    +0.000 N 
ATOM      6  N   UNL     1       5.450   2.688   1.919  0.00  0.00    +0.000 NA
ATOM      7  C   UNL     1       4.841   3.200   0.816  0.00  0.00    +0.000 A 
ATOM      8  H   UNL     1       6.336   1.814   3.817  0.00  0.00    +0.000 HD
ENDROOT
BRANCH   1  10
ATOM      9  N   UNL     1       1.786   4.831  -0.366  0.00  0.00    +0.000 N 
ATOM     10  C   UNL     1       2.904   4.049  -0.484  0.00  0.00    +0.000 C 
ATOM     11  O   UNL     1       3.385   3.784  -1.572  0.00  0.00    +0.000 OA
ATOM     12  H   UNL     1       1.391   5.202  -1.220  0.00  0.00    +0.000 HD
ATOM     13  H   UNL     1       1.495   5.250   0.507  0.00  0.00    +0.000 HD
ENDBRANCH   1  10
BRANCH   5  14
ATOM     14  C   UNL     1       5.095   2.103   5.518  0.00  0.00    +0.000 C 
ATOM     15  C   UNL     1       5.005   0.825   6.342  0.00  0.00    +0.000 C 
ATOM     16  C   UNL     1       3.818   1.720   6.247  0.00  0.00    +0.000 C 
BRANCH  14  17
ATOM     17  C   UNL     1       5.855   3.305   6.070  0.00  0.00    +0.000 A 
ATOM     18  C   UNL     1       7.156   3.190   6.596  0.00  0.00    +0.000 A 
ATOM     19  C   UNL     1       7.871   4.313   7.027  0.00  0.00    +0.000 A 
ATOM     20  C   UNL     1       7.298   5.581   6.947  0.00  0.00    +0.000 A 
ATOM     21  C   UNL     1       6.007   5.709   6.451  0.00  0.00    +0.000 A 
ATOM     22  C   UNL     1       5.293   4.593   6.022  0.00  0.00    +0.000 A 
BRANCH  21  23
ATOM     23  O   UNL     1       5.397   6.925   6.353  0.00  0.00    +0.000 OA
ATOM     24  H   UNL     1       6.026   7.608   6.638  0.00  0.00    +0.000 HD
ENDBRANCH  21  23
ENDBRANCH  14  17
ENDBRANCH   5  14
TORSDOF 4
