REMARK  Name = 
REMARK  7 active torsions:
REMARK  status: ('A' for Active; 'I' for Inactive)
REMARK    1  A    between atoms: C_1  and  C_2
REMARK    2  A    between atoms: C_2  and  N_3
REMARK    3  A    between atoms: C_2  and  C_17
REMARK    4  A    between atoms: C_4  and  C_6
REMARK    5  A    between atoms: N_12  and  C_13
REMARK    6  A    between atoms: C_20  and  O_21
REMARK    7  A    between atoms: O_21  and  C_22
REMARK                            x       y       z     vdW  Elec       q    Type
REMARK                         _______ _______ _______ _____ _____    ______ ____
ROOT
ATOM      1  C   UNL     1       1.000   0.152  -0.068  0.00  0.00    +0.000 C 
ATOM      2  C   UNL     1       2.527   0.096  -0.057  0.00  0.00    +0.000 C 
ENDROOT
BRANCH   2   3
ATOM      3  C   UNL     1       3.049  -1.115  -0.809  0.00  0.00    +0.000 A 
ATOM      4  C   UNL     1       3.888  -0.925  -1.911  0.00  0.00    +0.000 A 
ATOM      5  C   UNL     1       4.442  -2.017  -2.579  0.00  0.00    +0.000 A 
ATOM      6  C   UNL     1       4.211  -3.315  -2.122  0.00  0.00    +0.000 A 
ATOM      7  C   UNL     1       3.336  -3.524  -1.057  0.00  0.00    +0.000 A 
ATOM      8  C   UNL     1       2.759  -2.432  -0.402  0.00  0.00    +0.000 A 
BRANCH   6   9
ATOM      9  O   UNL     1       4.762  -4.433  -2.708  0.00  0.00    +0.000 OA
BRANCH   9  10
ATOM     10  C   UNL     1       6.088  -4.360  -3.125  0.00  0.00    +0.000 A 
ATOM     11  C   UNL     1       6.469  -5.234  -4.131  0.00  0.00    +0.000 A 
ATOM     12  C   UNL     1       7.778  -5.164  -4.603  0.00  0.00    +0.000 A 
ATOM     13  C   UNL     1       8.654  -4.233  -4.052  0.00  0.00    +0.000 A 
ATOM     14  C   UNL     1       8.191  -3.421  -3.031  0.00  0.00    +0.000 A 
ATOM     15  N   UNL     1       6.935  -3.477  -2.545  0.00  0.00    +0.000 NA
ENDBRANCH   9  10
ENDBRANCH   6   9
ENDBRANCH   2   3
BRANCH   2  16
ATOM     16  N   UNL     1       3.041   0.072   1.297  0.00  0.00    +0.000 N 
ATOM     17  C   UNL     1       3.311   1.191   2.034  0.00  0.00    +0.000 C 
ATOM     18  O   UNL     1       3.260   2.325   1.565  0.00  0.00    +0.000 OA
ATOM     19  H   UNL     1       2.982  -0.819   1.774  0.00  0.00    +0.000 HD
BRANCH  17  20
ATOM     20  C   UNL     1       3.715   0.950   3.426  0.00  0.00    +0.000 A 
ATOM     21  C   UNL     1       4.526   1.865   4.085  0.00  0.00    +0.000 A 
ATOM     22  S   UNL     1       4.876   1.425   5.696  0.00  0.00    +0.000 S 
ATOM     23  C   UNL     1       3.924   0.019   5.579  0.00  0.00    +0.000 A 
ATOM     24  N   UNL     1       3.762  -0.806   6.646  0.00  0.00    +0.000 NA
ATOM     25  C   UNL     1       2.994  -1.822   6.426  0.00  0.00    +0.000 A 
ATOM     26  N   UNL     1       2.373  -2.113   5.230  0.00  0.00    +0.000 N 
ATOM     27  C   UNL     1       1.549  -3.294   5.088  0.00  0.00    +0.000 C 
ATOM     28  C   UNL     1       2.550  -1.312   4.108  0.00  0.00    +0.000 A 
ATOM     29  O   UNL     1       2.066  -1.595   3.014  0.00  0.00    +0.000 OA
ATOM     30  C   UNL     1       3.376  -0.135   4.321  0.00  0.00    +0.000 A 
ENDBRANCH  17  20
ENDBRANCH   2  16
TORSDOF 5
