REMARK  Name = 
REMARK  9 active torsions:
REMARK  status: ('A' for Active; 'I' for Inactive)
REMARK    1  A    between atoms: C_1  and  C_2
REMARK    2  A    between atoms: C_2  and  N_3
REMARK    3  A    between atoms: C_2  and  C_19
REMARK    4  A    between atoms: N_3  and  C_4
REMARK    5  A    between atoms: C_4  and  C_5
REMARK    6  A    between atoms: C_8  and  C_9
REMARK    7  A    between atoms: C_9  and  N_10
REMARK    8  A    between atoms: N_10  and  C_11
REMARK    9  A    between atoms: C_11  and  C_12
REMARK                            x       y       z     vdW  Elec       q    Type
REMARK                         _______ _______ _______ _____ _____    ______ ____
ROOT
ATOM      1  C   UNL     1       5.619  -4.122  13.277  0.00  0.00    +0.000 C 
ENDROOT
BRANCH   1   2
ATOM      2  C   UNL     1       5.497  -5.163  12.188  0.00  0.00    +0.000 A 
ATOM      3  C   UNL     1       6.102  -4.979  10.939  0.00  0.00    +0.000 A 
ATOM      4  C   UNL     1       6.032  -5.977   9.964  0.00  0.00    +0.000 A 
ATOM      5  C   UNL     1       5.372  -7.188  10.222  0.00  0.00    +0.000 A 
ATOM      6  C   UNL     1       4.758  -7.368  11.467  0.00  0.00    +0.000 A 
ATOM      7  C   UNL     1       4.818  -6.365  12.437  0.00  0.00    +0.000 A 
BRANCH   5   8
ATOM      8  C   UNL     1       5.341  -8.278   9.177  0.00  0.00    +0.000 C 
BRANCH   8   9
ATOM      9  N   UNL     1       6.701  -8.690   8.833  0.00  0.00    +0.000 NA
ATOM     10  H   UNL     1       7.174  -8.981   9.688  0.00  0.00    +0.000 HD
BRANCH   9  11
ATOM     11  C   UNL     1       6.715  -9.772   7.852  0.00  0.00    +0.000 C 
BRANCH  11  12
ATOM     12  C   UNL     1       8.155 -10.139   7.486  0.00  0.00    +0.000 C 
ATOM     13  C   UNL     1       8.992 -10.669   8.643  0.00  0.00    +0.000 C 
ATOM     14  C   UNL     1      10.061 -11.462   7.923  0.00  0.00    +0.000 C 
ATOM     15  N   UNL     1       9.332 -12.154   6.855  0.00  0.00    +0.000 NA
ATOM     16  C   UNL     1       8.241 -11.254   6.442  0.00  0.00    +0.000 C 
ATOM     17  H   UNL     1       8.917 -13.001   7.247  0.00  0.00    +0.000 HD
ENDBRANCH  11  12
ENDBRANCH   9  11
ENDBRANCH   8   9
ENDBRANCH   5   8
ENDBRANCH   1   2
BRANCH   1  18
ATOM     18  N   UNL     1       4.992  -2.851  12.908  0.00  0.00    +0.000 NA
ATOM     19  H   UNL     1       5.448  -2.506  12.064  0.00  0.00    +0.000 HD
BRANCH  18  21
ATOM     20  C   UNL     1       4.421  -2.215  15.255  0.00  0.00    +0.000 C 
ATOM     21  C   UNL     1       5.148  -1.833  13.959  0.00  0.00    +0.000 C 
BRANCH  21  22
ATOM     22  C   UNL     1       4.605  -0.511  13.445  0.00  0.00    +0.000 A 
ATOM     23  C   UNL     1       3.558  -0.354  12.548  0.00  0.00    +0.000 A 
ATOM     24  S   UNL     1       3.158   1.282  12.255  0.00  0.00    +0.000 S 
ATOM     25  C   UNL     1       4.350   1.833  13.340  0.00  0.00    +0.000 A 
ATOM     26  N   UNL     1       4.518   3.157  13.598  0.00  0.00    +0.000 NA
ATOM     27  C   UNL     1       5.445   3.416  14.459  0.00  0.00    +0.000 A 
ATOM     28  N   UNL     1       6.230   2.473  15.077  0.00  0.00    +0.000 N 
ATOM     29  C   UNL     1       6.105   1.124  14.842  0.00  0.00    +0.000 A 
ATOM     30  O   UNL     1       6.821   0.305  15.408  0.00  0.00    +0.000 OA
ATOM     31  C   UNL     1       5.061   0.784  13.891  0.00  0.00    +0.000 A 
ATOM     32  H   UNL     1       6.943   2.746  15.737  0.00  0.00    +0.000 HD
ENDBRANCH  21  22
ENDBRANCH  18  21
ENDBRANCH   1  18
TORSDOF 8
