REMARK  Name = 
REMARK  9 active torsions:
REMARK  status: ('A' for Active; 'I' for Inactive)
REMARK    1  A    between atoms: C_1  and  O_2
REMARK    2  A    between atoms: O_2  and  C_3
REMARK    3  A    between atoms: C_5  and  C_6
REMARK    4  A    between atoms: C_6  and  N_7
REMARK    5  A    between atoms: C_8  and  C_10
REMARK    6  A    between atoms: C_22  and  C_23
REMARK    7  A    between atoms: C_23  and  N_24
REMARK    8  A    between atoms: N_24  and  C_25
REMARK    9  A    between atoms: C_25  and  C_26
REMARK                            x       y       z     vdW  Elec       q    Type
REMARK                         _______ _______ _______ _____ _____    ______ ____
ROOT
ATOM      1  C   UNL     1       3.135   0.127  -1.095  0.00  0.00    +0.000 A 
ATOM      2  C   UNL     1       2.723   1.221  -1.898  0.00  0.00    +0.000 A 
ATOM      3  C   UNL     1       3.447   1.579  -3.056  0.00  0.00    +0.000 A 
ATOM      4  C   UNL     1       4.571   0.832  -3.398  0.00  0.00    +0.000 A 
ATOM      5  C   UNL     1       4.946  -0.282  -2.622  0.00  0.00    +0.000 A 
ATOM      6  C   UNL     1       4.199  -0.668  -1.499  0.00  0.00    +0.000 A 
ENDROOT
BRANCH   1   8
ATOM      7  C   UNL     1       3.180  -0.611   1.140  0.00  0.00    +0.000 C 
ATOM      8  O   UNL     1       2.425  -0.057   0.069  0.00  0.00    +0.000 OA
ENDBRANCH   1   8
BRANCH   3   9
ATOM      9  C   UNL     1       3.043   2.780  -3.895  0.00  0.00    +0.000 C 
BRANCH   9  10
ATOM     10  N   UNL     1       2.115   2.443  -4.946  0.00  0.00    +0.000 N 
ATOM     11  C   UNL     1       1.628   3.375  -5.831  0.00  0.00    +0.000 C 
ATOM     12  O   UNL     1       1.959   4.552  -5.806  0.00  0.00    +0.000 OA
ATOM     13  H   UNL     1       1.513   1.644  -4.766  0.00  0.00    +0.000 HD
BRANCH  11  14
ATOM     14  C   UNL     1       0.727   2.837  -6.860  0.00  0.00    +0.000 A 
ATOM     15  C   UNL     1       0.665   3.448  -8.109  0.00  0.00    +0.000 A 
ATOM     16  S   UNL     1      -0.415   2.688  -9.188  0.00  0.00    +0.000 S 
ATOM     17  C   UNL     1      -0.853   1.536  -8.015  0.00  0.00    +0.000 A 
ATOM     18  N   UNL     1      -1.793   0.578  -8.292  0.00  0.00    +0.000 NA
ATOM     19  C   UNL     1      -2.046  -0.215  -7.308  0.00  0.00    +0.000 A 
ATOM     20  N   UNL     1      -1.441  -0.151  -6.083  0.00  0.00    +0.000 N 
ATOM     21  C   UNL     1      -0.453   0.755  -5.767  0.00  0.00    +0.000 A 
ATOM     22  O   UNL     1       0.123   0.727  -4.703  0.00  0.00    +0.000 OA
ATOM     23  C   UNL     1      -0.171   1.704  -6.842  0.00  0.00    +0.000 A 
ATOM     24  H   UNL     1      -1.670  -0.833  -5.362  0.00  0.00    +0.000 HD
ENDBRANCH  11  14
ENDBRANCH   9  10
ENDBRANCH   3   9
BRANCH   6  25
ATOM     25  C   UNL     1       4.605  -1.966  -0.809  0.00  0.00    +0.000 C 
BRANCH  25  26
ATOM     26  N   UNL     1       3.545  -2.979  -0.732  0.00  0.00    +0.000 NA
ATOM     27  H   UNL     1       2.736  -2.636  -0.228  0.00  0.00    +0.000 HD
BRANCH  26  28
ATOM     28  C   UNL     1       3.022  -3.409  -2.014  0.00  0.00    +0.000 C 
BRANCH  28  29
ATOM     29  C   UNL     1       1.924  -4.425  -1.793  0.00  0.00    +0.000 A 
ATOM     30  C   UNL     1       0.579  -4.045  -1.684  0.00  0.00    +0.000 A 
ATOM     31  C   UNL     1      -0.380  -5.034  -1.482  0.00  0.00    +0.000 A 
ATOM     32  N   UNL     1      -0.091  -6.345  -1.358  0.00  0.00    +0.000 NA
ATOM     33  C   UNL     1       1.213  -6.684  -1.429  0.00  0.00    +0.000 A 
ATOM     34  C   UNL     1       2.240  -5.774  -1.639  0.00  0.00    +0.000 A 
ENDBRANCH  28  29
ENDBRANCH  26  28
ENDBRANCH  25  26
ENDBRANCH   6  25
TORSDOF 8
