REMARK  Name = 
REMARK  5 active torsions:
REMARK  status: ('A' for Active; 'I' for Inactive)
REMARK    1  A    between atoms: N_1  and  C_2
REMARK    2  A    between atoms: C_2  and  C_3
REMARK    3  A    between atoms: C_6  and  C_7
REMARK    4  A    between atoms: C_7  and  N_8
REMARK    5  A    between atoms: C_12  and  C_13
REMARK                            x       y       z     vdW  Elec       q    Type
REMARK                         _______ _______ _______ _____ _____    ______ ____
ROOT
ATOM      1  N   UNL     1       3.822   4.577   4.441  0.00  0.00    +0.000 N 
ATOM      2  C   UNL     1       4.102   5.311   5.584  0.00  0.00    +0.000 A 
ATOM      3  N   UNL     1       4.885   4.782   6.536  0.00  0.00    +0.000 NA
ATOM      4  C   UNL     1       5.103   5.520   7.645  0.00  0.00    +0.000 A 
ATOM      5  C   UNL     1       4.583   6.776   7.834  0.00  0.00    +0.000 A 
ATOM      6  C   UNL     1       3.791   7.234   6.808  0.00  0.00    +0.000 A 
ATOM      7  N   UNL     1       3.535   6.524   5.682  0.00  0.00    +0.000 NA
ATOM      8  H   UNL     1       2.978   4.955   4.028  0.00  0.00    +0.000 HD
ENDROOT
BRANCH   5   9
ATOM      9  C   UNL     1       4.856   7.499   9.082  0.00  0.00    +0.000 C 
ATOM     10  N   UNL     1       4.770   8.863   9.070  0.00  0.00    +0.000 N 
ATOM     11  O   UNL     1       5.180   6.900  10.098  0.00  0.00    +0.000 OA
ATOM     12  H   UNL     1       4.751   9.417   8.225  0.00  0.00    +0.000 HD
ATOM     13  H   UNL     1       5.071   9.329   9.919  0.00  0.00    +0.000 HD
ENDBRANCH   5   9
BRANCH   1  14
ATOM     14  C   UNL     1       3.805   3.146   4.685  0.00  0.00    +0.000 C 
BRANCH  14  18
ATOM     15  C   UNL     1       2.872   0.926   1.082  0.00  0.00    +0.000 A 
ATOM     16  C   UNL     1       4.011   1.741   1.146  0.00  0.00    +0.000 A 
ATOM     17  C   UNL     1       4.305   2.465   2.303  0.00  0.00    +0.000 A 
ATOM     18  C   UNL     1       3.463   2.395   3.420  0.00  0.00    +0.000 A 
ATOM     19  C   UNL     1       2.329   1.574   3.362  0.00  0.00    +0.000 A 
ATOM     20  C   UNL     1       2.036   0.848   2.204  0.00  0.00    +0.000 A 
BRANCH  15  21
ATOM     21  C   UNL     1       2.531   0.178  -0.181  0.00  0.00    +0.000 C 
BRANCH  21  22
ATOM     22  N   UNL     1       3.603  -0.723  -0.588  0.00  0.00    +0.000 NA
ATOM     23  H   UNL     1       3.277  -1.297  -1.363  0.00  0.00    +0.000 HD
ATOM     24  H   UNL     1       3.803  -1.361   0.181  0.00  0.00    +0.000 HD
ENDBRANCH  21  22
ENDBRANCH  15  21
ENDBRANCH  14  18
ENDBRANCH   1  14
TORSDOF 5
