REMARK  Name = 
REMARK  4 active torsions:
REMARK  status: ('A' for Active; 'I' for Inactive)
REMARK    1  A    between atoms: C_2  and  C_4
REMARK    2  A    between atoms: N_8  and  C_9
REMARK    3  A    between atoms: C_9  and  C_10
REMARK    4  A    between atoms: C_12  and  C_13
REMARK                            x       y       z     vdW  Elec       q    Type
REMARK                         _______ _______ _______ _____ _____    ______ ____
ROOT
ATOM      1  C   UNL     1       5.172  -5.673  -2.148  0.00  0.00    +0.000 C 
ENDROOT
BRANCH   1   6
ATOM      2  C   UNL     1       5.458  -3.483   2.524  0.00  0.00    +0.000 A 
ATOM      3  C   UNL     1       4.898  -4.689   2.128  0.00  0.00    +0.000 A 
ATOM      4  C   UNL     1       4.970  -5.063   0.785  0.00  0.00    +0.000 A 
ATOM      5  C   UNL     1       5.592  -4.227  -0.135  0.00  0.00    +0.000 A 
ATOM      6  N   UNL     1       5.680  -4.502  -1.470  0.00  0.00    +0.000 N 
ATOM      7  N   UNL     1       6.140  -3.055   0.243  0.00  0.00    +0.000 NA
ATOM      8  C   UNL     1       6.053  -2.697   1.551  0.00  0.00    +0.000 A 
ATOM      9  H   UNL     1       6.184  -3.802  -1.996  0.00  0.00    +0.000 HD
BRANCH   2  11
ATOM     10  N   UNL     1       5.347  -3.956   4.902  0.00  0.00    +0.000 N 
ATOM     11  C   UNL     1       5.417  -3.004   3.922  0.00  0.00    +0.000 C 
ATOM     12  O   UNL     1       5.471  -1.812   4.192  0.00  0.00    +0.000 OA
ATOM     13  H   UNL     1       5.409  -3.624   5.857  0.00  0.00    +0.000 HD
ATOM     14  H   UNL     1       5.540  -4.931   4.731  0.00  0.00    +0.000 HD
ENDBRANCH   2  11
ENDBRANCH   1   6
BRANCH   1  15
ATOM     15  C   UNL     1       6.151  -6.818  -2.129  0.00  0.00    +0.000 A 
ATOM     16  C   UNL     1       7.542  -6.615  -2.204  0.00  0.00    +0.000 A 
ATOM     17  C   UNL     1       8.461  -7.684  -2.228  0.00  0.00    +0.000 A 
ATOM     18  C   UNL     1       7.931  -8.988  -2.198  0.00  0.00    +0.000 A 
ATOM     19  C   UNL     1       6.551  -9.210  -2.152  0.00  0.00    +0.000 A 
ATOM     20  C   UNL     1       5.679  -8.129  -2.119  0.00  0.00    +0.000 A 
ATOM     21  F   UNL     1       4.360  -8.367  -2.081  0.00  0.00    +0.000 F 
BRANCH  17  22
ATOM     22  C   UNL     1       9.918  -7.436  -2.289  0.00  0.00    +0.000 A 
ATOM     23  C   UNL     1      10.514  -6.320  -1.682  0.00  0.00    +0.000 A 
ATOM     24  C   UNL     1      11.891  -6.108  -1.767  0.00  0.00    +0.000 A 
ATOM     25  C   UNL     1      12.655  -7.033  -2.452  0.00  0.00    +0.000 A 
ATOM     26  N   UNL     1      12.141  -8.125  -3.050  0.00  0.00    +0.000 NA
ATOM     27  C   UNL     1      10.797  -8.293  -2.958  0.00  0.00    +0.000 A 
ENDBRANCH  17  22
ENDBRANCH   1  15
TORSDOF 4
