REMARK  Name = 
REMARK  7 active torsions:
REMARK  status: ('A' for Active; 'I' for Inactive)
REMARK    1  A    between atoms: C_1  and  C_2
REMARK    2  A    between atoms: N_6  and  C_7
REMARK    3  A    between atoms: C_7  and  C_8
REMARK    4  A    between atoms: C_8  and  C_9
REMARK    5  A    between atoms: C_13  and  C_14
REMARK    6  A    between atoms: C_14  and  C_15
REMARK    7  A    between atoms: C_17  and  O_18
REMARK                            x       y       z     vdW  Elec       q    Type
REMARK                         _______ _______ _______ _____ _____    ______ ____
ROOT
ATOM      1  C   UNL     1      -6.124   2.386  -0.045  0.00  0.00    +0.000 A 
ATOM      2  C   UNL     1      -7.512   2.336  -0.056  0.00  0.00    +0.000 A 
ATOM      3  C   UNL     1      -8.222   3.531   0.003  0.00  0.00    +0.000 A 
ATOM      4  C   UNL     1      -7.532   4.739   0.056  0.00  0.00    +0.000 A 
ATOM      5  C   UNL     1      -6.143   4.719   0.039  0.00  0.00    +0.000 A 
ATOM      6  N   UNL     1      -5.444   3.561   0.004  0.00  0.00    +0.000 NA
ENDROOT
BRANCH   1   7
ATOM      7  C   UNL     1      -5.327   1.102  -0.094  0.00  0.00    +0.000 C 
BRANCH   7   8
ATOM      8  C   UNL     1      -3.825   1.371  -0.099  0.00  0.00    +0.000 C 
BRANCH   8  14
ATOM      9  C   UNL     1       2.572  -0.181   0.053  0.00  0.00    +0.000 C 
ATOM     10  C   UNL     1       1.086  -0.030   0.008  0.00  0.00    +0.000 A 
ATOM     11  C   UNL     1       0.480   1.218  -0.009  0.00  0.00    +0.000 A 
ATOM     12  C   UNL     1      -0.908   1.301  -0.055  0.00  0.00    +0.000 A 
ATOM     13  C   UNL     1      -1.677   0.141  -0.080  0.00  0.00    +0.000 A 
ATOM     14  N   UNL     1      -3.048   0.151  -0.147  0.00  0.00    +0.000 N 
ATOM     15  N   UNL     1      -1.104  -1.075  -0.057  0.00  0.00    +0.000 NA
ATOM     16  C   UNL     1       0.249  -1.138  -0.015  0.00  0.00    +0.000 A 
ATOM     17  H   UNL     1      -3.475  -0.766  -0.113  0.00  0.00    +0.000 HD
ENDBRANCH   8  14
ENDBRANCH   7   8
ENDBRANCH   1   7
BRANCH   5  18
ATOM     18  C   UNL     1      -5.348   5.997  -0.008  0.00  0.00    +0.000 C 
BRANCH  18  19
ATOM     19  C   UNL     1      -4.991   6.497   1.388  0.00  0.00    +0.000 C 
ATOM     20  C   UNL     1      -4.107   7.766   1.371  0.00  0.00    +0.000 C 
ATOM     21  C   UNL     1      -3.159   7.118   2.394  0.00  0.00    +0.000 C 
ATOM     22  C   UNL     1      -3.865   5.769   2.163  0.00  0.00    +0.000 C 
BRANCH  21  23
ATOM     23  O   UNL     1      -3.200   7.654   3.730  0.00  0.00    +0.000 OA
ATOM     24  H   UNL     1      -4.136   7.644   3.989  0.00  0.00    +0.000 HD
ENDBRANCH  21  23
ENDBRANCH  18  19
ENDBRANCH   5  18
TORSDOF 6
