REMARK  Name = 
REMARK  6 active torsions:
REMARK  status: ('A' for Active; 'I' for Inactive)
REMARK    1  A    between atoms: C_2  and  C_4
REMARK    2  A    between atoms: N_8  and  C_9
REMARK    3  A    between atoms: C_9  and  C_10
REMARK    4  A    between atoms: C_10  and  C_11
REMARK    5  A    between atoms: C_15  and  N_16
REMARK    6  A    between atoms: N_16  and  C_17
REMARK                            x       y       z     vdW  Elec       q    Type
REMARK                         _______ _______ _______ _____ _____    ______ ____
ROOT
ATOM      1  C   UNL     1       6.565  -4.439   5.339  0.00  0.00    +0.000 C 
ENDROOT
BRANCH   1   2
ATOM      2  C   UNL     1       6.394  -5.883   5.765  0.00  0.00    +0.000 A 
ATOM      3  C   UNL     1       6.844  -6.272   7.016  0.00  0.00    +0.000 A 
ATOM      4  C   UNL     1       6.603  -7.580   7.417  0.00  0.00    +0.000 A 
ATOM      5  C   UNL     1       5.968  -8.463   6.540  0.00  0.00    +0.000 A 
ATOM      6  C   UNL     1       5.616  -8.034   5.268  0.00  0.00    +0.000 A 
ATOM      7  N   UNL     1       5.809  -6.751   4.891  0.00  0.00    +0.000 NA
BRANCH   6   8
ATOM      8  N   UNL     1       5.038  -8.887   4.312  0.00  0.00    +0.000 N 
ATOM      9  H   UNL     1       4.799  -8.363   3.477  0.00  0.00    +0.000 HD
BRANCH   8  10
ATOM     10  C   UNL     1       5.221 -10.313   4.169  0.00  0.00    +0.000 C 
ATOM     11  C   UNL     1       6.664 -10.757   3.878  0.00  0.00    +0.000 C 
ATOM     12  C   UNL     1       6.150 -11.680   2.763  0.00  0.00    +0.000 C 
ATOM     13  C   UNL     1       4.798 -10.933   2.790  0.00  0.00    +0.000 C 
ATOM     14  F   UNL     1       3.712 -11.743   2.831  0.00  0.00    +0.000 F 
ATOM     15  F   UNL     1       4.600 -10.077   1.760  0.00  0.00    +0.000 F 
ENDBRANCH   8  10
ENDBRANCH   6   8
ENDBRANCH   1   2
BRANCH   1  16
ATOM     16  C   UNL     1       5.456  -4.015   4.378  0.00  0.00    +0.000 C 
BRANCH  16  21
ATOM     17  C   UNL     1       3.037  -0.608   1.431  0.00  0.00    +0.000 A 
ATOM     18  C   UNL     1       2.771  -1.943   1.699  0.00  0.00    +0.000 A 
ATOM     19  C   UNL     1       3.620  -2.642   2.559  0.00  0.00    +0.000 A 
ATOM     20  C   UNL     1       4.721  -2.003   3.125  0.00  0.00    +0.000 A 
ATOM     21  N   UNL     1       5.581  -2.624   3.993  0.00  0.00    +0.000 N 
ATOM     22  N   UNL     1       4.994  -0.710   2.861  0.00  0.00    +0.000 NA
ATOM     23  C   UNL     1       4.156  -0.041   2.022  0.00  0.00    +0.000 A 
ATOM     24  H   UNL     1       6.409  -2.084   4.210  0.00  0.00    +0.000 HD
BRANCH  17  26
ATOM     25  N   UNL     1       0.882  -0.137   0.415  0.00  0.00    +0.000 N 
ATOM     26  C   UNL     1       2.209   0.205   0.519  0.00  0.00    +0.000 C 
ATOM     27  O   UNL     1       2.667   1.149  -0.091  0.00  0.00    +0.000 OA
ATOM     28  H   UNL     1       0.306   0.481  -0.141  0.00  0.00    +0.000 HD
ATOM     29  H   UNL     1       0.420  -0.732   1.086  0.00  0.00    +0.000 HD
ENDBRANCH  17  26
ENDBRANCH  16  21
ENDBRANCH   1  16
TORSDOF 6
