REMARK  Name = 
REMARK  6 active torsions:
REMARK  status: ('A' for Active; 'I' for Inactive)
REMARK    1  A    between atoms: C_1  and  O_2
REMARK    2  A    between atoms: O_2  and  C_3
REMARK    3  A    between atoms: C_6  and  O_7
REMARK    4  A    between atoms: O_7  and  C_8
REMARK    5  A    between atoms: C_8  and  C_9
REMARK    6  A    between atoms: C_12  and  C_13
REMARK                            x       y       z     vdW  Elec       q    Type
REMARK                         _______ _______ _______ _____ _____    ______ ____
ROOT
ATOM      1  C   UNL     1       6.094  -6.747   1.713  0.00  0.00    +0.000 A 
ATOM      2  C   UNL     1       6.792  -6.477   2.897  0.00  0.00    +0.000 A 
ATOM      3  C   UNL     1       7.608  -7.453   3.479  0.00  0.00    +0.000 A 
ATOM      4  C   UNL     1       7.718  -8.723   2.901  0.00  0.00    +0.000 A 
ATOM      5  C   UNL     1       7.014  -9.007   1.726  0.00  0.00    +0.000 A 
ATOM      6  C   UNL     1       6.206  -8.026   1.141  0.00  0.00    +0.000 A 
ENDROOT
BRANCH   4   7
ATOM      7  C   UNL     1       8.613  -9.719   3.548  0.00  0.00    +0.000 C 
ATOM      8  N   UNL     1       8.338 -11.044   3.349  0.00  0.00    +0.000 N 
ATOM      9  O   UNL     1       9.548  -9.375   4.259  0.00  0.00    +0.000 OA
ATOM     10  H   UNL     1       7.480 -11.378   2.937  0.00  0.00    +0.000 HD
ATOM     11  H   UNL     1       8.904 -11.701   3.870  0.00  0.00    +0.000 HD
ENDBRANCH   4   7
BRANCH   1  12
ATOM     12  C   UNL     1       5.173  -5.726   1.076  0.00  0.00    +0.000 C 
BRANCH  12  13
ATOM     13  O   UNL     1       5.611  -4.390   1.332  0.00  0.00    +0.000 OA
BRANCH  13  17
ATOM     14  C   UNL     1       3.493  -1.147  -0.247  0.00  0.00    +0.000 A 
ATOM     15  C   UNL     1       3.028  -2.437  -0.500  0.00  0.00    +0.000 A 
ATOM     16  C   UNL     1       3.708  -3.549   0.011  0.00  0.00    +0.000 A 
ATOM     17  C   UNL     1       4.857  -3.385   0.787  0.00  0.00    +0.000 A 
ATOM     18  C   UNL     1       5.315  -2.091   1.048  0.00  0.00    +0.000 A 
ATOM     19  C   UNL     1       4.635  -0.982   0.537  0.00  0.00    +0.000 A 
BRANCH  14  21
ATOM     20  C   UNL     1       1.793  -0.118  -1.551  0.00  0.00    +0.000 C 
ATOM     21  O   UNL     1       2.928   0.012  -0.702  0.00  0.00    +0.000 OA
ENDBRANCH  14  21
ENDBRANCH  13  17
ENDBRANCH  12  13
ENDBRANCH   1  12
TORSDOF 5
