REMARK  Name = 
REMARK  5 active torsions:
REMARK  status: ('A' for Active; 'I' for Inactive)
REMARK    1  A    between atoms: C_2  and  C_4
REMARK    2  A    between atoms: C_7  and  O_8
REMARK    3  A    between atoms: O_8  and  C_9
REMARK    4  A    between atoms: C_9  and  C_10
REMARK    5  A    between atoms: C_13  and  C_14
REMARK                            x       y       z     vdW  Elec       q    Type
REMARK                         _______ _______ _______ _____ _____    ______ ____
ROOT
ATOM      1  C   UNL     1       4.940   1.261  -5.714  0.00  0.00    +0.000 C 
ENDROOT
BRANCH   1   2
ATOM      2  C   UNL     1       5.891   1.187  -6.879  0.00  0.00    +0.000 A 
ATOM      3  C   UNL     1       6.398   2.360  -7.448  0.00  0.00    +0.000 A 
ATOM      4  C   UNL     1       7.277   2.297  -8.529  0.00  0.00    +0.000 A 
ATOM      5  C   UNL     1       7.662   1.062  -9.072  0.00  0.00    +0.000 A 
ATOM      6  C   UNL     1       7.142  -0.110  -8.508  0.00  0.00    +0.000 A 
ATOM      7  C   UNL     1       6.260  -0.048  -7.425  0.00  0.00    +0.000 A 
BRANCH   5   8
ATOM      8  C   UNL     1       8.586   0.988 -10.274  0.00  0.00    +0.000 C 
ATOM      9  C   UNL     1       9.949   1.643 -10.004  0.00  0.00    +0.000 C 
ATOM     10  C   UNL     1      10.790   1.679 -11.272  0.00  0.00    +0.000 C 
ATOM     11  O   UNL     1      10.086   2.331 -12.328  0.00  0.00    +0.000 OA
ATOM     12  C   UNL     1       8.891   1.638 -12.685  0.00  0.00    +0.000 C 
ATOM     13  C   UNL     1       7.922   1.602 -11.515  0.00  0.00    +0.000 C 
ENDBRANCH   5   8
ENDBRANCH   1   2
BRANCH   1  14
ATOM     14  O   UNL     1       3.606   1.342  -6.213  0.00  0.00    +0.000 OA
BRANCH  14  18
ATOM     15  C   UNL     1       0.397   1.597  -3.560  0.00  0.00    +0.000 A 
ATOM     16  C   UNL     1       1.692   1.535  -3.036  0.00  0.00    +0.000 A 
ATOM     17  C   UNL     1       2.795   1.452  -3.894  0.00  0.00    +0.000 A 
ATOM     18  C   UNL     1       2.611   1.426  -5.278  0.00  0.00    +0.000 A 
ATOM     19  C   UNL     1       1.315   1.479  -5.797  0.00  0.00    +0.000 A 
ATOM     20  C   UNL     1       0.210   1.558  -4.945  0.00  0.00    +0.000 A 
BRANCH  15  22
ATOM     21  N   UNL     1      -0.623   2.248  -1.448  0.00  0.00    +0.000 N 
ATOM     22  C   UNL     1      -0.795   1.672  -2.676  0.00  0.00    +0.000 C 
ATOM     23  O   UNL     1      -1.891   1.266  -3.037  0.00  0.00    +0.000 OA
ATOM     24  H   UNL     1      -1.463   2.383  -0.899  0.00  0.00    +0.000 HD
ATOM     25  H   UNL     1       0.181   2.812  -1.221  0.00  0.00    +0.000 HD
ENDBRANCH  15  22
ENDBRANCH  14  18
ENDBRANCH   1  14
TORSDOF 5
