REMARK  Name = 
REMARK  9 active torsions:
REMARK  status: ('A' for Active; 'I' for Inactive)
REMARK    1  A    between atoms: C_2  and  C_3
REMARK    2  A    between atoms: C_3  and  N_4
REMARK    3  A    between atoms: C_3  and  C_20
REMARK    4  A    between atoms: N_4  and  C_5
REMARK    5  A    between atoms: C_5  and  C_6
REMARK    6  A    between atoms: C_10  and  C_11
REMARK    7  A    between atoms: C_11  and  N_12
REMARK    8  A    between atoms: N_12  and  C_13
REMARK    9  A    between atoms: C_13  and  C_14
REMARK                            x       y       z     vdW  Elec       q    Type
REMARK                         _______ _______ _______ _____ _____    ______ ____
ROOT
ATOM      1  C   UNL     1      -6.911  -8.387  -6.783  0.00  0.00    +0.000 C 
ENDROOT
BRANCH   1   2
ATOM      2  C   UNL     1      -5.861  -7.774  -7.672  0.00  0.00    +0.000 A 
ATOM      3  C   UNL     1      -6.074  -7.630  -9.045  0.00  0.00    +0.000 A 
ATOM      4  C   UNL     1      -5.084  -7.041  -9.813  0.00  0.00    +0.000 A 
ATOM      5  N   UNL     1      -3.915  -6.587  -9.312  0.00  0.00    +0.000 NA
ATOM      6  C   UNL     1      -3.716  -6.727  -7.976  0.00  0.00    +0.000 A 
ATOM      7  C   UNL     1      -4.660  -7.309  -7.133  0.00  0.00    +0.000 A 
BRANCH   6   8
ATOM      8  C   UNL     1      -2.436  -6.159  -7.393  0.00  0.00    +0.000 C 
BRANCH   8   9
ATOM      9  N   UNL     1      -2.236  -4.727  -7.670  0.00  0.00    +0.000 NA
ATOM     10  H   UNL     1      -2.261  -4.625  -8.689  0.00  0.00    +0.000 HD
BRANCH   9  11
ATOM     11  C   UNL     1      -3.322  -3.906  -7.108  0.00  0.00    +0.000 C 
BRANCH  11  12
ATOM     12  C   UNL     1      -3.081  -2.405  -7.406  0.00  0.00    +0.000 C 
ATOM     13  C   UNL     1      -4.161  -1.511  -6.820  0.00  0.00    +0.000 C 
ATOM     14  C   UNL     1      -3.738  -1.357  -5.372  0.00  0.00    +0.000 C 
ATOM     15  C   UNL     1      -2.220  -1.492  -5.401  0.00  0.00    +0.000 C 
ATOM     16  N   UNL     1      -1.857  -1.900  -6.761  0.00  0.00    +0.000 NA
ATOM     17  H   UNL     1      -1.172  -2.661  -6.741  0.00  0.00    +0.000 HD
ENDBRANCH  11  12
ENDBRANCH   9  11
ENDBRANCH   8   9
ENDBRANCH   6   8
ENDBRANCH   1   2
BRANCH   1  18
ATOM     18  N   UNL     1      -7.191  -9.767  -7.182  0.00  0.00    +0.000 NA
ATOM     19  H   UNL     1      -6.315 -10.290  -7.142  0.00  0.00    +0.000 HD
BRANCH  18  20
ATOM     20  C   UNL     1      -8.142 -10.416  -6.260  0.00  0.00    +0.000 C 
BRANCH  20  21
ATOM     21  C   UNL     1      -8.366 -11.823  -6.787  0.00  0.00    +0.000 A 
ATOM     22  C   UNL     1      -9.295 -12.176  -7.757  0.00  0.00    +0.000 A 
ATOM     23  S   UNL     1      -9.349 -13.856  -8.064  0.00  0.00    +0.000 S 
ATOM     24  C   UNL     1      -8.091 -14.160  -6.958  0.00  0.00    +0.000 A 
ATOM     25  N   UNL     1      -7.637 -15.421  -6.731  0.00  0.00    +0.000 NA
ATOM     26  C   UNL     1      -6.659 -15.489  -5.889  0.00  0.00    +0.000 A 
ATOM     27  N   UNL     1      -6.090 -14.411  -5.257  0.00  0.00    +0.000 N 
ATOM     28  C   UNL     1      -6.508 -13.116  -5.463  0.00  0.00    +0.000 A 
ATOM     29  O   UNL     1      -5.961 -12.156  -4.931  0.00  0.00    +0.000 OA
ATOM     30  C   UNL     1      -7.630 -12.996  -6.378  0.00  0.00    +0.000 A 
ATOM     31  H   UNL     1      -5.307 -14.538  -4.632  0.00  0.00    +0.000 HD
ENDBRANCH  20  21
BRANCH  20  33
ATOM     32  N   UNL     1     -10.439  -9.110  -6.023  0.00  0.00    +0.000 NA
ATOM     33  C   UNL     1      -9.444  -9.701  -6.129  0.00  0.00    +0.000 C 
ENDBRANCH  20  33
ENDBRANCH  18  20
ENDBRANCH   1  18
TORSDOF 9
