REMARK  Name = 
REMARK  7 active torsions:
REMARK  status: ('A' for Active; 'I' for Inactive)
REMARK    1  A    between atoms: C_2  and  C_4
REMARK    2  A    between atoms: C_7  and  N_8
REMARK    3  A    between atoms: N_8  and  C_9
REMARK    4  A    between atoms: C_9  and  C_10
REMARK    5  A    between atoms: C_10  and  C_11
REMARK    6  A    between atoms: C_15  and  C_16
REMARK    7  A    between atoms: C_21  and  C_22
REMARK                            x       y       z     vdW  Elec       q    Type
REMARK                         _______ _______ _______ _____ _____    ______ ____
ROOT
ATOM      1  C   UNL     1       4.745  -7.449   4.346  0.00  0.00    +0.000 A 
ATOM      2  C   UNL     1       5.589  -8.467   3.901  0.00  0.00    +0.000 A 
ATOM      3  C   UNL     1       5.158  -9.789   3.936  0.00  0.00    +0.000 A 
ATOM      4  C   UNL     1       3.875 -10.097   4.402  0.00  0.00    +0.000 A 
ATOM      5  C   UNL     1       3.008  -9.102   4.893  0.00  0.00    +0.000 A 
ATOM      6  C   UNL     1       3.491  -7.783   4.885  0.00  0.00    +0.000 A 
ENDROOT
BRANCH   5   7
ATOM      7  C   UNL     1       1.679  -9.437   5.472  0.00  0.00    +0.000 A 
ATOM      8  C   UNL     1       1.586 -10.579   6.304  0.00  0.00    +0.000 A 
ATOM      9  C   UNL     1       0.419 -10.910   6.997  0.00  0.00    +0.000 A 
ATOM     10  C   UNL     1      -0.692 -10.090   6.902  0.00  0.00    +0.000 A 
ATOM     11  C   UNL     1      -0.651  -8.982   6.063  0.00  0.00    +0.000 A 
ATOM     12  C   UNL     1       0.503  -8.663   5.305  0.00  0.00    +0.000 A 
BRANCH  12  13
ATOM     13  C   UNL     1       0.354  -7.483   4.367  0.00  0.00    +0.000 C 
ATOM     14  F   UNL     1       1.287  -7.368   3.386  0.00  0.00    +0.000 F 
ATOM     15  F   UNL     1      -0.842  -7.506   3.704  0.00  0.00    +0.000 F 
ATOM     16  F   UNL     1       0.366  -6.294   5.038  0.00  0.00    +0.000 F 
ENDBRANCH  12  13
ENDBRANCH   5   7
BRANCH   1  17
ATOM     17  C   UNL     1       5.160  -6.004   4.255  0.00  0.00    +0.000 C 
BRANCH  17  18
ATOM     18  C   UNL     1       5.693  -5.466   5.584  0.00  0.00    +0.000 C 
BRANCH  18  19
ATOM     19  N   UNL     1       6.083  -4.063   5.417  0.00  0.00    +0.000 N 
ATOM     20  H   UNL     1       5.309  -3.482   5.104  0.00  0.00    +0.000 HD
BRANCH  19  24
ATOM     21  C   UNL     1       7.936  -2.303   8.632  0.00  0.00    +0.000 A 
ATOM     22  C   UNL     1       7.465  -3.602   8.716  0.00  0.00    +0.000 A 
ATOM     23  N   UNL     1       6.829  -4.213   7.683  0.00  0.00    +0.000 NA
ATOM     24  C   UNL     1       6.669  -3.489   6.555  0.00  0.00    +0.000 A 
ATOM     25  C   UNL     1       7.142  -2.170   6.497  0.00  0.00    +0.000 A 
ATOM     26  N   UNL     1       7.776  -1.538   7.518  0.00  0.00    +0.000 NA
BRANCH  21  28
ATOM     27  N   UNL     1       9.114  -0.427   9.596  0.00  0.00    +0.000 N 
ATOM     28  C   UNL     1       8.679  -1.711   9.778  0.00  0.00    +0.000 C 
ATOM     29  O   UNL     1       8.897  -2.329  10.809  0.00  0.00    +0.000 OA
ATOM     30  H   UNL     1       9.654   0.023  10.319  0.00  0.00    +0.000 HD
ATOM     31  H   UNL     1       8.934   0.048   8.716  0.00  0.00    +0.000 HD
ENDBRANCH  21  28
ENDBRANCH  19  24
ENDBRANCH  18  19
ENDBRANCH  17  18
ENDBRANCH   1  17
TORSDOF 7
