REMARK  Name = 
REMARK  5 active torsions:
REMARK  status: ('A' for Active; 'I' for Inactive)
REMARK    1  A    between atoms: C_1  and  C_2
REMARK    2  A    between atoms: C_2  and  O_3
REMARK    3  A    between atoms: C_2  and  C_14
REMARK    4  A    between atoms: O_3  and  C_4
REMARK    5  A    between atoms: C_7  and  C_8
REMARK                            x       y       z     vdW  Elec       q    Type
REMARK                         _______ _______ _______ _____ _____    ______ ____
ROOT
ATOM      1  C   UNL     1       2.564   2.242  -0.962  0.00  0.00    +0.000 A 
ATOM      2  C   UNL     1       2.365   3.592  -0.673  0.00  0.00    +0.000 A 
ATOM      3  C   UNL     1       2.082   4.500  -1.695  0.00  0.00    +0.000 A 
ATOM      4  C   UNL     1       1.998   4.075  -3.029  0.00  0.00    +0.000 A 
ATOM      5  C   UNL     1       2.245   2.726  -3.320  0.00  0.00    +0.000 A 
ATOM      6 CL   UNL     1       2.271   2.079  -4.926  0.00  0.00    +0.000 Cl
ATOM      7  C   UNL     1       2.527   1.818  -2.287  0.00  0.00    +0.000 A 
ENDROOT
BRANCH   4   8
ATOM      8  C   UNL     1       1.658   5.121  -4.030  0.00  0.00    +0.000 C 
ATOM      9  N   UNL     1       0.978   4.751  -5.153  0.00  0.00    +0.000 N 
ATOM     10  O   UNL     1       1.938   6.299  -3.835  0.00  0.00    +0.000 OA
ATOM     11  H   UNL     1       0.796   3.786  -5.395  0.00  0.00    +0.000 HD
ATOM     12  H   UNL     1       0.794   5.465  -5.846  0.00  0.00    +0.000 HD
ENDBRANCH   4   8
BRANCH   1  13
ATOM     13  O   UNL     1       2.816   1.456   0.123  0.00  0.00    +0.000 OA
BRANCH  13  15
ATOM     14  C   UNL     1       1.052  -0.228   0.020  0.00  0.00    +0.000 C 
ATOM     15  C   UNL     1       2.557   0.045   0.043  0.00  0.00    +0.000 C 
BRANCH  15  16
ATOM     16  C   UNL     1       3.200  -0.589   1.267  0.00  0.00    +0.000 A 
ATOM     17  C   UNL     1       4.112  -1.647   1.122  0.00  0.00    +0.000 A 
ATOM     18  C   UNL     1       4.738  -2.202   2.241  0.00  0.00    +0.000 A 
ATOM     19  C   UNL     1       4.455  -1.713   3.515  0.00  0.00    +0.000 A 
ATOM     20  C   UNL     1       3.535  -0.679   3.674  0.00  0.00    +0.000 A 
ATOM     21  C   UNL     1       2.909  -0.123   2.559  0.00  0.00    +0.000 A 
ENDBRANCH  15  16
ENDBRANCH  13  15
ENDBRANCH   1  13
TORSDOF 4
