REMARK  Name = 
REMARK  7 active torsions:
REMARK  status: ('A' for Active; 'I' for Inactive)
REMARK    1  A    between atoms: C_1  and  O_2
REMARK    2  A    between atoms: O_2  and  C_3
REMARK    3  A    between atoms: C_5  and  N_6
REMARK    4  A    between atoms: N_6  and  C_7
REMARK    5  A    between atoms: C_7  and  C_8
REMARK    6  A    between atoms: C_12  and  C_13
REMARK    7  A    between atoms: C_22  and  C_23
REMARK                            x       y       z     vdW  Elec       q    Type
REMARK                         _______ _______ _______ _____ _____    ______ ____
ROOT
ATOM      1  N   UNL     1       3.187   1.404   4.520  0.00  0.00    +0.000 N 
ATOM      2  H   UNL     1       3.755   1.977   5.131  0.00  0.00    +0.000 HD
ENDROOT
BRANCH   1   5
ATOM      3  C   UNL     1       3.097   0.837   0.878  0.00  0.00    +0.000 A 
ATOM      4  C   UNL     1       2.799   0.717   2.231  0.00  0.00    +0.000 A 
ATOM      5  C   UNL     1       3.461   1.504   3.174  0.00  0.00    +0.000 A 
ATOM      6  N   UNL     1       4.394   2.400   2.804  0.00  0.00    +0.000 NA
ATOM      7  C   UNL     1       4.677   2.494   1.466  0.00  0.00    +0.000 A 
ATOM      8  C   UNL     1       4.070   1.733   0.482  0.00  0.00    +0.000 A 
BRANCH   7   9
ATOM      9  C   UNL     1       5.700   3.511   1.053  0.00  0.00    +0.000 C 
ATOM     10  N   UNL     1       6.240   4.256   2.066  0.00  0.00    +0.000 N 
ATOM     11  O   UNL     1       6.032   3.680  -0.113  0.00  0.00    +0.000 OA
ATOM     12  H   UNL     1       5.930   4.111   3.019  0.00  0.00    +0.000 HD
ATOM     13  H   UNL     1       6.913   4.975   1.844  0.00  0.00    +0.000 HD
ENDBRANCH   7   9
BRANCH   3  15
ATOM     14  C   UNL     1       1.202  -0.381   0.162  0.00  0.00    +0.000 C 
ATOM     15  O   UNL     1       2.517   0.095  -0.114  0.00  0.00    +0.000 OA
ENDBRANCH   3  15
ENDBRANCH   1   5
BRANCH   1  16
ATOM     16  C   UNL     1       2.189   0.508   5.061  0.00  0.00    +0.000 C 
BRANCH  16  17
ATOM     17  C   UNL     1       2.078   0.610   6.552  0.00  0.00    +0.000 A 
ATOM     18  C   UNL     1       1.218   1.519   7.150  0.00  0.00    +0.000 A 
ATOM     19  N   UNL     1       1.051   1.627   8.483  0.00  0.00    +0.000 NA
ATOM     20  C   UNL     1       1.782   0.789   9.260  0.00  0.00    +0.000 A 
ATOM     21  C   UNL     1       2.674  -0.178   8.789  0.00  0.00    +0.000 A 
ATOM     22  C   UNL     1       2.808  -0.241   7.393  0.00  0.00    +0.000 A 
BRANCH  21  23
ATOM     23  C   UNL     1       3.426  -1.075   9.694  0.00  0.00    +0.000 A 
ATOM     24  C   UNL     1       2.888  -1.503  10.923  0.00  0.00    +0.000 A 
ATOM     25  C   UNL     1       3.610  -2.333  11.788  0.00  0.00    +0.000 A 
ATOM     26  C   UNL     1       4.883  -2.764  11.432  0.00  0.00    +0.000 A 
ATOM     27 CL   UNL     1       5.777  -3.775  12.497  0.00  0.00    +0.000 Cl
ATOM     28  C   UNL     1       5.436  -2.376  10.218  0.00  0.00    +0.000 A 
ATOM     29  C   UNL     1       4.715  -1.537   9.362  0.00  0.00    +0.000 A 
ENDBRANCH  21  23
ENDBRANCH  16  17
ENDBRANCH   1  16
TORSDOF 6
