REMARK  Name = 
REMARK  5 active torsions:
REMARK  status: ('A' for Active; 'I' for Inactive)
REMARK    1  A    between atoms: C_2  and  C_3
REMARK    2  A    between atoms: C_6  and  N_7
REMARK    3  A    between atoms: N_7  and  C_8
REMARK    4  A    between atoms: C_8  and  C_9
REMARK    5  A    between atoms: C_13  and  C_14
REMARK                            x       y       z     vdW  Elec       q    Type
REMARK                         _______ _______ _______ _____ _____    ______ ____
ROOT
ATOM      1  C   UNL     1       8.733  -0.881  -0.773  0.00  0.00    +0.000 C 
ATOM      2  C   UNL     1       7.913  -1.168   0.487  0.00  0.00    +0.000 C 
ATOM      3  C   UNL     1       7.278  -0.464  -0.661  0.00  0.00    +0.000 C 
ENDROOT
BRANCH   1   4
ATOM      4  C   UNL     1       9.763   0.242  -0.671  0.00  0.00    +0.000 A 
ATOM      5  C   UNL     1       9.814   1.277  -1.614  0.00  0.00    +0.000 A 
ATOM      6  C   UNL     1      10.615   2.398  -1.400  0.00  0.00    +0.000 A 
ATOM      7  C   UNL     1      11.419   2.483  -0.260  0.00  0.00    +0.000 A 
ATOM      8  C   UNL     1      11.478   1.434   0.668  0.00  0.00    +0.000 A 
ATOM      9  C   UNL     1      10.638   0.328   0.431  0.00  0.00    +0.000 A 
BRANCH   8  10
ATOM     10  C   UNL     1      12.369   1.467   1.854  0.00  0.00    +0.000 A 
ATOM     11  C   UNL     1      12.994   0.288   2.312  0.00  0.00    +0.000 A 
ATOM     12  C   UNL     1      13.829   0.283   3.435  0.00  0.00    +0.000 A 
ATOM     13  C   UNL     1      14.074   1.464   4.126  0.00  0.00    +0.000 A 
ATOM     14  C   UNL     1      13.480   2.646   3.693  0.00  0.00    +0.000 A 
ATOM     15  C   UNL     1      12.638   2.641   2.578  0.00  0.00    +0.000 A 
ATOM     16  F   UNL     1      12.074   3.808   2.226  0.00  0.00    +0.000 F 
ENDBRANCH   8  10
ENDBRANCH   1   4
BRANCH   1  17
ATOM     17  N   UNL     1       9.220  -2.068  -1.471  0.00  0.00    +0.000 N 
ATOM     18  H   UNL     1      10.087  -2.494  -1.164  0.00  0.00    +0.000 HD
BRANCH  17  22
ATOM     19  C   UNL     1       8.287  -3.731  -5.103  0.00  0.00    +0.000 A 
ATOM     20  C   UNL     1       9.381  -4.123  -4.359  0.00  0.00    +0.000 A 
ATOM     21  N   UNL     1       9.703  -3.546  -3.174  0.00  0.00    +0.000 NA
ATOM     22  C   UNL     1       8.905  -2.543  -2.735  0.00  0.00    +0.000 A 
ATOM     23  C   UNL     1       7.824  -2.136  -3.518  0.00  0.00    +0.000 A 
ATOM     24  N   UNL     1       7.486  -2.716  -4.703  0.00  0.00    +0.000 NA
BRANCH  19  26
ATOM     25  N   UNL     1       7.694  -5.008  -7.279  0.00  0.00    +0.000 NA
ATOM     26  C   UNL     1       7.942  -4.413  -6.315  0.00  0.00    +0.000 C 
ENDBRANCH  19  26
ENDBRANCH  17  22
ENDBRANCH   1  17
TORSDOF 5
