REMARK  Name = 
REMARK  7 active torsions:
REMARK  status: ('A' for Active; 'I' for Inactive)
REMARK    1  A    between atoms: N_1  and  C_2
REMARK    2  A    between atoms: C_2  and  N_3
REMARK    3  A    between atoms: C_2  and  C_16
REMARK    4  A    between atoms: C_4  and  C_6
REMARK    5  A    between atoms: C_19  and  O_20
REMARK    6  A    between atoms: O_20  and  C_21
REMARK    7  A    between atoms: C_21  and  C_22
REMARK                            x       y       z     vdW  Elec       q    Type
REMARK                         _______ _______ _______ _____ _____    ______ ____
ROOT
ATOM      1  C   UNL     1       2.535  -0.026   0.009  0.00  0.00    +0.000 C 
ENDROOT
BRANCH   1   2
ATOM      2  C   UNL     1       3.005   1.094  -0.896  0.00  0.00    +0.000 A 
ATOM      3  C   UNL     1       2.485   2.390  -0.712  0.00  0.00    +0.000 A 
ATOM      4  C   UNL     1       2.899   3.456  -1.513  0.00  0.00    +0.000 A 
ATOM      5  C   UNL     1       3.856   3.250  -2.505  0.00  0.00    +0.000 A 
ATOM      6  C   UNL     1       4.353   1.963  -2.722  0.00  0.00    +0.000 A 
ATOM      7  C   UNL     1       3.944   0.902  -1.916  0.00  0.00    +0.000 A 
BRANCH   5   8
ATOM      8  O   UNL     1       4.250   4.361  -3.204  0.00  0.00    +0.000 OA
BRANCH   8   9
ATOM      9  C   UNL     1       5.535   4.237  -3.816  0.00  0.00    +0.000 C 
BRANCH   9  10
ATOM     10  C   UNL     1       6.142   5.579  -4.129  0.00  0.00    +0.000 A 
ATOM     11  C   UNL     1       5.807   6.731  -3.418  0.00  0.00    +0.000 A 
ATOM     12  C   UNL     1       6.483   7.905  -3.702  0.00  0.00    +0.000 A 
ATOM     13  N   UNL     1       7.461   8.007  -4.626  0.00  0.00    +0.000 NA
ATOM     14  C   UNL     1       7.778   6.879  -5.300  0.00  0.00    +0.000 A 
ATOM     15  C   UNL     1       7.159   5.660  -5.093  0.00  0.00    +0.000 A 
ENDBRANCH   9  10
ENDBRANCH   8   9
ENDBRANCH   5   8
ENDBRANCH   1   2
BRANCH   1  16
ATOM     16  N   UNL     1       3.070  -1.315  -0.299  0.00  0.00    +0.000 N 
ATOM     17  C   UNL     1       4.185  -1.801   0.334  0.00  0.00    +0.000 C 
ATOM     18  O   UNL     1       4.777  -1.172   1.206  0.00  0.00    +0.000 OA
ATOM     19  H   UNL     1       2.788  -1.724  -1.180  0.00  0.00    +0.000 HD
BRANCH  17  20
ATOM     20  C   UNL     1       4.598  -3.163  -0.030  0.00  0.00    +0.000 A 
ATOM     21  C   UNL     1       5.334  -3.915   0.877  0.00  0.00    +0.000 A 
ATOM     22  S   UNL     1       5.693  -5.489   0.333  0.00  0.00    +0.000 S 
ATOM     23  C   UNL     1       4.921  -5.208  -1.157  0.00  0.00    +0.000 A 
ATOM     24  N   UNL     1       4.892  -6.167  -2.120  0.00  0.00    +0.000 NA
ATOM     25  C   UNL     1       4.308  -5.808  -3.214  0.00  0.00    +0.000 A 
ATOM     26  N   UNL     1       3.739  -4.579  -3.427  0.00  0.00    +0.000 N 
ATOM     27  C   UNL     1       3.701  -3.596  -2.466  0.00  0.00    +0.000 A 
ATOM     28  O   UNL     1       3.121  -2.532  -2.656  0.00  0.00    +0.000 OA
ATOM     29  C   UNL     1       4.374  -3.938  -1.227  0.00  0.00    +0.000 A 
ATOM     30  H   UNL     1       3.283  -4.370  -4.303  0.00  0.00    +0.000 HD
ENDBRANCH  17  20
ENDBRANCH   1  16
BRANCH   1  31
ATOM     31  N   UNL     1       1.111  -0.236  -0.137  0.00  0.00    +0.000 NA
ATOM     32  H   UNL     1       0.861  -1.028   0.447  0.00  0.00    +0.000 HD
ATOM     33  H   UNL     1       0.926  -0.505  -1.099  0.00  0.00    +0.000 HD
ENDBRANCH   1  31
TORSDOF 7
