REMARK  Name = 
REMARK  5 active torsions:
REMARK  status: ('A' for Active; 'I' for Inactive)
REMARK    1  A    between atoms: N_1  and  C_2
REMARK    2  A    between atoms: C_2  and  C_3
REMARK    3  A    between atoms: C_6  and  O_7
REMARK    4  A    between atoms: O_7  and  C_8
REMARK    5  A    between atoms: C_8  and  C_9
REMARK                            x       y       z     vdW  Elec       q    Type
REMARK                         _______ _______ _______ _____ _____    ______ ____
ROOT
ATOM      1  C   UNL     1       2.890  -0.241  -1.424  0.00  0.00    +0.000 A 
ATOM      2  C   UNL     1       3.405   0.794  -2.218  0.00  0.00    +0.000 A 
ATOM      3  C   UNL     1       3.945   0.521  -3.478  0.00  0.00    +0.000 A 
ATOM      4  C   UNL     1       3.990  -0.789  -3.955  0.00  0.00    +0.000 A 
ATOM      5  C   UNL     1       3.432  -1.815  -3.191  0.00  0.00    +0.000 A 
ATOM      6  C   UNL     1       2.897  -1.545  -1.931  0.00  0.00    +0.000 A 
ENDROOT
BRANCH   1   7
ATOM      7  C   UNL     1       2.353   0.035  -0.044  0.00  0.00    +0.000 C 
BRANCH   7   8
ATOM      8  N   UNL     1       1.196   0.918  -0.085  0.00  0.00    +0.000 NA
ATOM      9  H   UNL     1       0.792   0.979   0.847  0.00  0.00    +0.000 HD
ATOM     10  H   UNL     1       0.484   0.497  -0.680  0.00  0.00    +0.000 HD
ENDBRANCH   7   8
ENDBRANCH   1   7
BRANCH   4  11
ATOM     11  O   UNL     1       4.598  -0.962  -5.170  0.00  0.00    +0.000 OA
BRANCH  11  12
ATOM     12  C   UNL     1       5.102  -2.280  -5.402  0.00  0.00    +0.000 C 
BRANCH  12  13
ATOM     13  C   UNL     1       6.156  -2.290  -6.480  0.00  0.00    +0.000 A 
ATOM     14  C   UNL     1       6.962  -1.177  -6.739  0.00  0.00    +0.000 A 
ATOM     15  C   UNL     1       7.963  -1.289  -7.689  0.00  0.00    +0.000 A 
ATOM     16  N   UNL     1       8.220  -2.419  -8.384  0.00  0.00    +0.000 NA
ATOM     17  C   UNL     1       7.440  -3.486  -8.112  0.00  0.00    +0.000 A 
ATOM     18  C   UNL     1       6.414  -3.472  -7.181  0.00  0.00    +0.000 A 
ENDBRANCH  12  13
ENDBRANCH  11  12
ENDBRANCH   4  11
TORSDOF 5
