REMARK  Name = 
REMARK  8 active torsions:
REMARK  status: ('A' for Active; 'I' for Inactive)
REMARK    1  A    between atoms: C_1  and  C_2
REMARK    2  A    between atoms: C_7  and  C_8
REMARK    3  A    between atoms: C_8  and  C_9
REMARK    4  A    between atoms: C_8  and  C_10
REMARK    5  A    between atoms: C_8  and  C_11
REMARK    6  A    between atoms: C_11  and  N_12
REMARK    7  A    between atoms: C_16  and  C_17
REMARK    8  A    between atoms: C_26  and  C_27
REMARK                            x       y       z     vdW  Elec       q    Type
REMARK                         _______ _______ _______ _____ _____    ______ ____
ROOT
ATOM      1  C   UNL     1       1.915   4.786  -4.932  0.00  0.00    +0.000 C 
ATOM      2  C   UNL     1       2.146   5.725  -3.728  0.00  0.00    +0.000 C 
ATOM      3  C   UNL     1       3.216   4.652  -5.748  0.00  0.00    +0.000 C 
ENDROOT
BRANCH   1  10
ATOM      4  C   UNL     1       1.634  -2.442  -2.930  0.00  0.00    +0.000 C 
ATOM      5  C   UNL     1       2.641  -1.831  -1.963  0.00  0.00    +0.000 C 
ATOM      6  C   UNL     1       2.306  -0.389  -1.543  0.00  0.00    +0.000 C 
ATOM      7  N   UNL     1       2.838   0.620  -2.458  0.00  0.00    +0.000 N 
ATOM      8  C   UNL     1       1.979   1.372  -3.236  0.00  0.00    +0.000 A 
ATOM      9  C   UNL     1       2.365   2.642  -3.635  0.00  0.00    +0.000 A 
ATOM     10  C   UNL     1       1.507   3.388  -4.426  0.00  0.00    +0.000 A 
ATOM     11  N   UNL     1       0.309   2.892  -4.792  0.00  0.00    +0.000 NA
ATOM     12  C   UNL     1       0.004   1.665  -4.339  0.00  0.00    +0.000 A 
ATOM     13  N   UNL     1       0.775   0.885  -3.569  0.00  0.00    +0.000 NA
ATOM     14  C   UNL     1       4.220   0.413  -2.901  0.00  0.00    +0.000 C 
ATOM     15  C   UNL     1       4.474  -1.039  -3.351  0.00  0.00    +0.000 C 
ATOM     16  C   UNL     1       4.007  -1.333  -4.773  0.00  0.00    +0.000 C 
ATOM     17  O   UNL     1       3.995  -2.007  -2.408  0.00  0.00    +0.000 OA
ENDBRANCH   1  10
BRANCH   1  18
ATOM     18  C   UNL     1       0.776   5.353  -5.829  0.00  0.00    +0.000 C 
BRANCH  18  19
ATOM     19  N   UNL     1       1.037   6.693  -6.356  0.00  0.00    +0.000 N 
ATOM     20  C   UNL     1       0.058   7.273  -7.157  0.00  0.00    +0.000 A 
ATOM     21  C   UNL     1      -1.319   7.074  -6.990  0.00  0.00    +0.000 A 
ATOM     22  N   UNL     1      -2.281   7.666  -7.744  0.00  0.00    +0.000 NA
ATOM     23  C   UNL     1      -1.802   8.518  -8.686  0.00  0.00    +0.000 A 
ATOM     24  C   UNL     1      -0.445   8.743  -8.859  0.00  0.00    +0.000 A 
ATOM     25  N   UNL     1       0.507   8.123  -8.107  0.00  0.00    +0.000 NA
ATOM     26  H   UNL     1       1.927   6.841  -6.829  0.00  0.00    +0.000 HD
BRANCH  23  27
ATOM     27  C   UNL     1      -2.794   9.219  -9.540  0.00  0.00    +0.000 C 
ATOM     28  N   UNL     1      -4.109   8.921  -9.312  0.00  0.00    +0.000 N 
ATOM     29  O   UNL     1      -2.455  10.022 -10.405  0.00  0.00    +0.000 OA
ATOM     30  H   UNL     1      -4.365   8.259  -8.585  0.00  0.00    +0.000 HD
ATOM     31  H   UNL     1      -4.825   9.383  -9.854  0.00  0.00    +0.000 HD
ENDBRANCH  23  27
ENDBRANCH  18  19
ENDBRANCH   1  18
TORSDOF 4
