REMARK  Name = 
REMARK  3 active torsions:
REMARK  status: ('A' for Active; 'I' for Inactive)
REMARK    1  A    between atoms: C_2  and  C_4
REMARK    2  A    between atoms: N_8  and  C_9
REMARK    3  A    between atoms: C_9  and  C_10
REMARK                            x       y       z     vdW  Elec       q    Type
REMARK                         _______ _______ _______ _____ _____    ______ ____
ROOT
ATOM      1  C   UNL     1       3.147   1.331   0.365  0.00  0.00    +0.000 A 
ATOM      2  C   UNL     1       3.602   1.703  -0.895  0.00  0.00    +0.000 A 
ATOM      3  C   UNL     1       4.285   2.909  -1.036  0.00  0.00    +0.000 A 
ATOM      4  C   UNL     1       4.481   3.733   0.072  0.00  0.00    +0.000 A 
ATOM      5  N   UNL     1       5.070   4.970  -0.149  0.00  0.00    +0.000 N 
ATOM      6  N   UNL     1       4.037   3.384   1.294  0.00  0.00    +0.000 NA
ATOM      7  C   UNL     1       3.383   2.201   1.419  0.00  0.00    +0.000 A 
ATOM      8  H   UNL     1       5.975   4.896  -0.596  0.00  0.00    +0.000 HD
ENDROOT
BRANCH   1  10
ATOM      9  N   UNL     1       2.592  -0.949  -0.262  0.00  0.00    +0.000 N 
ATOM     10  C   UNL     1       2.404   0.080   0.617  0.00  0.00    +0.000 C 
ATOM     11  O   UNL     1       1.671  -0.045   1.591  0.00  0.00    +0.000 OA
ATOM     12  H   UNL     1       2.150  -1.829  -0.024  0.00  0.00    +0.000 HD
ATOM     13  H   UNL     1       3.350  -0.973  -0.927  0.00  0.00    +0.000 HD
ENDBRANCH   1  10
BRANCH   5  14
ATOM     14  C   UNL     1       5.014   5.965   0.904  0.00  0.00    +0.000 C 
BRANCH  14  15
ATOM     15  C   UNL     1       4.675   7.277   0.234  0.00  0.00    +0.000 A 
ATOM     16  C   UNL     1       5.676   8.165  -0.187  0.00  0.00    +0.000 A 
ATOM     17  C   UNL     1       5.342   9.332  -0.881  0.00  0.00    +0.000 A 
ATOM     18  C   UNL     1       4.006   9.616  -1.167  0.00  0.00    +0.000 A 
ATOM     19  C   UNL     1       3.015   8.733  -0.758  0.00  0.00    +0.000 A 
ATOM     20  F   UNL     1       1.734   8.998  -1.047  0.00  0.00    +0.000 F 
ATOM     21  C   UNL     1       3.335   7.571  -0.067  0.00  0.00    +0.000 A 
ENDBRANCH  14  15
ENDBRANCH   5  14
TORSDOF 3
