REMARK  Name = 
REMARK  10 active torsions:
REMARK  status: ('A' for Active; 'I' for Inactive)
REMARK    1  A    between atoms: C_1  and  O_2
REMARK    2  A    between atoms: O_2  and  C_3
REMARK    3  A    between atoms: C_6  and  C_7
REMARK    4  A    between atoms: C_7  and  C_8
REMARK    5  A    between atoms: C_7  and  C_9
REMARK    6  A    between atoms: C_7  and  C_10
REMARK    7  A    between atoms: C_10  and  O_11
REMARK    8  A    between atoms: O_11  and  C_12
REMARK    9  A    between atoms: C_15  and  C_16
REMARK   10  A    between atoms: C_20  and  N_21
REMARK                            x       y       z     vdW  Elec       q    Type
REMARK                         _______ _______ _______ _____ _____    ______ ____
ROOT
ATOM      1  O   UNL     1       7.720  -3.584   4.499  0.00  0.00    +0.000 OA
ENDROOT
BRANCH   1   2
ATOM      2  C   UNL     1       8.846  -2.915   4.953  0.00  0.00    +0.000 A 
ATOM      3  N   UNL     1       9.286  -1.847   4.240  0.00  0.00    +0.000 NA
ATOM      4  C   UNL     1      10.407  -1.249   4.698  0.00  0.00    +0.000 A 
ATOM      5  C   UNL     1      11.077  -1.712   5.813  0.00  0.00    +0.000 A 
ATOM      6  N   UNL     1      10.658  -2.789   6.544  0.00  0.00    +0.000 NA
ATOM      7  C   UNL     1       9.536  -3.392   6.091  0.00  0.00    +0.000 A 
BRANCH   5   8
ATOM      8  C   UNL     1      12.323  -1.029   6.250  0.00  0.00    +0.000 C 
ATOM      9  N   UNL     1      12.923  -1.545   7.367  0.00  0.00    +0.000 N 
ATOM     10  O   UNL     1      12.793  -0.076   5.646  0.00  0.00    +0.000 OA
ATOM     11  H   UNL     1      12.502  -2.334   7.853  0.00  0.00    +0.000 HD
ATOM     12  H   UNL     1      13.775  -1.126   7.708  0.00  0.00    +0.000 HD
ENDBRANCH   5   8
BRANCH   7  13
ATOM     13  N   UNL     1       9.092  -4.463   6.868  0.00  0.00    +0.000 N 
ATOM     14  H   UNL     1       9.793  -4.644   7.583  0.00  0.00    +0.000 HD
ATOM     15  H   UNL     1       8.884  -5.277   6.297  0.00  0.00    +0.000 HD
ENDBRANCH   7  13
ENDBRANCH   1   2
BRANCH   1  16
ATOM     16  C   UNL     1       6.899  -2.715   3.691  0.00  0.00    +0.000 C 
BRANCH  16  17
ATOM     17  C   UNL     1       5.677  -3.434   3.045  0.00  0.00    +0.000 C 
ATOM     18  C   UNL     1       4.839  -4.064   4.179  0.00  0.00    +0.000 C 
ATOM     19  C   UNL     1       6.207  -4.570   2.137  0.00  0.00    +0.000 C 
BRANCH  17  23
ATOM     20  C   UNL     1       3.087  -0.799   0.652  0.00  0.00    +0.000 A 
ATOM     21  C   UNL     1       2.805  -2.156   0.790  0.00  0.00    +0.000 A 
ATOM     22  C   UNL     1       3.638  -2.982   1.556  0.00  0.00    +0.000 A 
ATOM     23  C   UNL     1       4.782  -2.482   2.212  0.00  0.00    +0.000 A 
ATOM     24  C   UNL     1       5.032  -1.108   2.054  0.00  0.00    +0.000 A 
ATOM     25  F   UNL     1       6.090  -0.520   2.627  0.00  0.00    +0.000 F 
ATOM     26  C   UNL     1       4.204  -0.281   1.296  0.00  0.00    +0.000 A 
BRANCH  20  28
ATOM     27  C   UNL     1       1.265  -0.408  -0.818  0.00  0.00    +0.000 C 
ATOM     28  O   UNL     1       2.363   0.108  -0.070  0.00  0.00    +0.000 OA
ENDBRANCH  20  28
ENDBRANCH  17  23
ENDBRANCH  16  17
ENDBRANCH   1  16
TORSDOF 7
