REMARK  Name = 
REMARK  7 active torsions:
REMARK  status: ('A' for Active; 'I' for Inactive)
REMARK    1  A    between atoms: C_2  and  O_3
REMARK    2  A    between atoms: C_2  and  C_21
REMARK    3  A    between atoms: O_3  and  C_4
REMARK    4  A    between atoms: C_4  and  C_5
REMARK    5  A    between atoms: C_8  and  C_9
REMARK    6  A    between atoms: C_9  and  N_10
REMARK    7  A    between atoms: C_11  and  C_13
REMARK                            x       y       z     vdW  Elec       q    Type
REMARK                         _______ _______ _______ _____ _____    ______ ____
ROOT
ATOM      1  C   UNL     1       0.286  10.308  -0.827  0.00  0.00    +0.000 A 
ATOM      2  C   UNL     1       1.652  10.142  -1.040  0.00  0.00    +0.000 A 
ATOM      3  C   UNL     1       2.089   9.545  -2.220  0.00  0.00    +0.000 A 
ATOM      4  C   UNL     1       1.156   9.124  -3.168  0.00  0.00    +0.000 A 
ATOM      5  C   UNL     1      -0.184   9.360  -2.887  0.00  0.00    +0.000 A 
ATOM      6  N   UNL     1      -0.634   9.947  -1.755  0.00  0.00    +0.000 NA
ENDROOT
BRANCH   1   7
ATOM      7  C   UNL     1      -0.220  10.900   0.468  0.00  0.00    +0.000 C 
BRANCH   7   8
ATOM      8  O   UNL     1       0.251  10.162   1.608  0.00  0.00    +0.000 OA
BRANCH   8  10
ATOM      9  O   UNL     1      -1.544   8.754   1.408  0.00  0.00    +0.000 OA
ATOM     10  C   UNL     1      -0.495   9.077   1.949  0.00  0.00    +0.000 C 
BRANCH  10  11
ATOM     11  C   UNL     1       0.020   8.377   3.124  0.00  0.00    +0.000 A 
ATOM     12  C   UNL     1      -0.846   7.758   4.012  0.00  0.00    +0.000 A 
ATOM     13  S   UNL     1      -0.053   7.059   5.351  0.00  0.00    +0.000 S 
ATOM     14  C   UNL     1       1.477   7.482   4.736  0.00  0.00    +0.000 A 
ATOM     15  N   UNL     1       2.616   7.122   5.387  0.00  0.00    +0.000 NA
ATOM     16  C   UNL     1       3.705   7.443   4.771  0.00  0.00    +0.000 A 
ATOM     17  N   UNL     1       3.757   8.110   3.574  0.00  0.00    +0.000 N 
ATOM     18  C   UNL     1       2.634   8.511   2.885  0.00  0.00    +0.000 A 
ATOM     19  O   UNL     1       2.733   9.074   1.802  0.00  0.00    +0.000 OA
ATOM     20  C   UNL     1       1.383   8.168   3.538  0.00  0.00    +0.000 A 
ATOM     21  H   UNL     1       4.640   8.305   3.130  0.00  0.00    +0.000 HD
ENDBRANCH  10  11
ENDBRANCH   8  10
ENDBRANCH   7   8
ENDBRANCH   1   7
BRANCH   4  22
ATOM     22  C   UNL     1       1.570   8.470  -4.450  0.00  0.00    +0.000 C 
BRANCH  22  23
ATOM     23  N   UNL     1       1.803   9.446  -5.490  0.00  0.00    +0.000 N 
ATOM     24  C   UNL     1       2.074   9.035  -6.778  0.00  0.00    +0.000 C 
ATOM     25  O   UNL     1       2.266   7.849  -7.049  0.00  0.00    +0.000 OA
ATOM     26  H   UNL     1       1.446  10.380  -5.356  0.00  0.00    +0.000 HD
BRANCH  24  27
ATOM     27  C   UNL     1       2.212  10.163  -7.833  0.00  0.00    +0.000 C 
ATOM     28  C   UNL     1       1.867   9.660  -9.242  0.00  0.00    +0.000 C 
ATOM     29  C   UNL     1       0.367   9.412  -9.394  0.00  0.00    +0.000 C 
ATOM     30  C   UNL     1      -0.423  10.657  -9.007  0.00  0.00    +0.000 C 
ATOM     31  C   UNL     1      -0.016  11.188  -7.634  0.00  0.00    +0.000 C 
ATOM     32  N   UNL     1       1.426  11.377  -7.525  0.00  0.00    +0.000 NA
ATOM     33  H   UNL     1       1.705  11.800  -6.645  0.00  0.00    +0.000 HD
ENDBRANCH  24  27
ENDBRANCH  22  23
ENDBRANCH   4  22
TORSDOF 7
