REMARK  Name = 
REMARK  8 active torsions:
REMARK  status: ('A' for Active; 'I' for Inactive)
REMARK    1  A    between atoms: C_1  and  C_2
REMARK    2  A    between atoms: C_2  and  C_3
REMARK    3  A    between atoms: C_7  and  C_8
REMARK    4  A    between atoms: C_8  and  C_9
REMARK    5  A    between atoms: C_9  and  N_10
REMARK    6  A    between atoms: N_10  and  C_11
REMARK    7  A    between atoms: C_14  and  C_15
REMARK    8  A    between atoms: C_24  and  O_25
REMARK                            x       y       z     vdW  Elec       q    Type
REMARK                         _______ _______ _______ _____ _____    ______ ____
ROOT
ATOM      1  C   UNL     1       4.351   2.755  -3.957  0.00  0.00    +0.000 C 
ENDROOT
BRANCH   1   6
ATOM      2  C   UNL     1       2.980   0.176  -1.484  0.00  0.00    +0.000 A 
ATOM      3  C   UNL     1       2.694  -0.882  -2.368  0.00  0.00    +0.000 A 
ATOM      4  C   UNL     1       2.977  -0.789  -3.733  0.00  0.00    +0.000 A 
ATOM      5  C   UNL     1       3.536   0.375  -4.252  0.00  0.00    +0.000 A 
ATOM      6  C   UNL     1       3.811   1.454  -3.409  0.00  0.00    +0.000 A 
ATOM      7  C   UNL     1       3.561   1.331  -2.032  0.00  0.00    +0.000 A 
BRANCH   2   9
ATOM      8  C   UNL     1       1.029  -0.024   0.053  0.00  0.00    +0.000 C 
ATOM      9  C   UNL     1       2.566   0.071  -0.006  0.00  0.00    +0.000 C 
ATOM     10  C   UNL     1       3.235  -1.147   0.690  0.00  0.00    +0.000 C 
ATOM     11  C   UNL     1       4.453  -0.614   1.459  0.00  0.00    +0.000 C 
ATOM     12  C   UNL     1       4.475   0.890   1.224  0.00  0.00    +0.000 C 
ATOM     13  C   UNL     1       3.026   1.229   0.907  0.00  0.00    +0.000 C 
BRANCH  12  14
ATOM     14  O   UNL     1       4.942   1.602   2.355  0.00  0.00    +0.000 OA
ATOM     15  H   UNL     1       4.373   1.384   3.112  0.00  0.00    +0.000 HD
ENDBRANCH  12  14
ENDBRANCH   2   9
ENDBRANCH   1   6
BRANCH   1  16
ATOM     16  C   UNL     1       5.877   2.766  -4.005  0.00  0.00    +0.000 C 
BRANCH  16  17
ATOM     17  N   UNL     1       6.377   4.053  -4.499  0.00  0.00    +0.000 N 
ATOM     18  H   UNL     1       5.977   4.858  -4.012  0.00  0.00    +0.000 HD
BRANCH  17  19
ATOM     19  C   UNL     1       7.776   4.197  -4.592  0.00  0.00    +0.000 A 
ATOM     20  C   UNL     1       8.624   3.125  -4.892  0.00  0.00    +0.000 A 
ATOM     21  C   UNL     1      10.001   3.310  -5.029  0.00  0.00    +0.000 A 
ATOM     22  C   UNL     1      10.574   4.581  -4.909  0.00  0.00    +0.000 A 
ATOM     23  C   UNL     1       9.738   5.675  -4.658  0.00  0.00    +0.000 A 
ATOM     24  C   UNL     1       8.364   5.472  -4.516  0.00  0.00    +0.000 A 
ATOM     25  F   UNL     1       7.588   6.541  -4.272  0.00  0.00    +0.000 F 
BRANCH  22  26
ATOM     26  C   UNL     1      12.048   4.681  -5.066  0.00  0.00    +0.000 C 
ATOM     27  N   UNL     1      12.644   5.907  -4.959  0.00  0.00    +0.000 N 
ATOM     28  O   UNL     1      12.736   3.692  -5.293  0.00  0.00    +0.000 OA
ATOM     29  H   UNL     1      12.169   6.779  -4.779  0.00  0.00    +0.000 HD
ATOM     30  H   UNL     1      13.650   5.929  -5.077  0.00  0.00    +0.000 HD
ENDBRANCH  22  26
ENDBRANCH  17  19
ENDBRANCH  16  17
ENDBRANCH   1  16
TORSDOF 7
