REMARK  Name = 
REMARK  5 active torsions:
REMARK  status: ('A' for Active; 'I' for Inactive)
REMARK    1  A    between atoms: C_1  and  N_2
REMARK    2  A    between atoms: C_3  and  C_5
REMARK    3  A    between atoms: C_8  and  N_9
REMARK    4  A    between atoms: N_9  and  C_10
REMARK    5  A    between atoms: C_10  and  C_11
REMARK                            x       y       z     vdW  Elec       q    Type
REMARK                         _______ _______ _______ _____ _____    ______ ____
ROOT
ATOM      1  C   UNL     1       4.639   1.266   0.328  0.00  0.00    +0.000 A 
ATOM      2  C   UNL     1       5.317   0.595  -0.694  0.00  0.00    +0.000 A 
ATOM      3  C   UNL     1       6.711   0.691  -0.795  0.00  0.00    +0.000 A 
ATOM      4  C   UNL     1       7.442   1.482   0.098  0.00  0.00    +0.000 A 
ATOM      5  C   UNL     1       6.759   2.091   1.157  0.00  0.00    +0.000 A 
ATOM      6  C   UNL     1       5.368   2.008   1.260  0.00  0.00    +0.000 A 
ENDROOT
BRANCH   1   9
ATOM      7  C   UNL     1       1.060   0.084  -0.024  0.00  0.00    +0.000 C 
ATOM      8  N   UNL     1       2.498   0.166  -0.077  0.00  0.00    +0.000 N 
ATOM      9  C   UNL     1       3.152   1.269   0.427  0.00  0.00    +0.000 C 
ATOM     10  O   UNL     1       2.573   2.214   0.951  0.00  0.00    +0.000 OA
ATOM     11  H   UNL     1       3.021  -0.661  -0.328  0.00  0.00    +0.000 HD
ENDBRANCH   1   9
BRANCH   4  12
ATOM     12  N   UNL     1       8.827   1.651   0.037  0.00  0.00    +0.000 N 
ATOM     13  H   UNL     1       9.303   1.033   0.693  0.00  0.00    +0.000 HD
BRANCH  12  14
ATOM     14  C   UNL     1       9.471   1.615  -1.278  0.00  0.00    +0.000 C 
BRANCH  14  15
ATOM     15  C   UNL     1      10.724   2.471  -1.277  0.00  0.00    +0.000 A 
ATOM     16  C   UNL     1      10.638   3.825  -0.948  0.00  0.00    +0.000 A 
ATOM     17  C   UNL     1      11.787   4.607  -0.992  0.00  0.00    +0.000 A 
ATOM     18  C   UNL     1      12.990   4.022  -1.365  0.00  0.00    +0.000 A 
ATOM     19  C   UNL     1      12.993   2.672  -1.675  0.00  0.00    +0.000 A 
ATOM     20  N   UNL     1      11.894   1.885  -1.641  0.00  0.00    +0.000 NA
ENDBRANCH  14  15
ENDBRANCH  12  14
ENDBRANCH   4  12
TORSDOF 4
