REMARK  Name = 
REMARK  5 active torsions:
REMARK  status: ('A' for Active; 'I' for Inactive)
REMARK    1  A    between atoms: C_2  and  C_4
REMARK    2  A    between atoms: C_7  and  O_8
REMARK    3  A    between atoms: O_8  and  C_9
REMARK    4  A    between atoms: C_9  and  C_10
REMARK    5  A    between atoms: C_14  and  C_15
REMARK                            x       y       z     vdW  Elec       q    Type
REMARK                         _______ _______ _______ _____ _____    ______ ____
ROOT
ATOM      1  C   UNL     1       5.088  -0.046   5.794  0.00  0.00    +0.000 C 
ENDROOT
BRANCH   1   2
ATOM      2  C   UNL     1       6.001   0.336   6.940  0.00  0.00    +0.000 A 
ATOM      3  C   UNL     1       6.210   1.671   7.298  0.00  0.00    +0.000 A 
ATOM      4  C   UNL     1       6.971   1.988   8.420  0.00  0.00    +0.000 A 
ATOM      5  C   UNL     1       7.494   0.970   9.221  0.00  0.00    +0.000 A 
ATOM      6  C   UNL     1       7.279  -0.385   8.916  0.00  0.00    +0.000 A 
ATOM      7  C   UNL     1       6.546  -0.679   7.751  0.00  0.00    +0.000 A 
BRANCH   6   8
ATOM      8  C   UNL     1       7.721  -1.443   9.842  0.00  0.00    +0.000 A 
ATOM      9  C   UNL     1       8.143  -2.708   9.436  0.00  0.00    +0.000 A 
ATOM     10  N   UNL     1       8.451  -3.711  10.300  0.00  0.00    +0.000 NA
ATOM     11  C   UNL     1       8.320  -3.400  11.607  0.00  0.00    +0.000 A 
ATOM     12  C   UNL     1       7.925  -2.145  12.031  0.00  0.00    +0.000 A 
ATOM     13  N   UNL     1       7.629  -1.147  11.168  0.00  0.00    +0.000 NA
ENDBRANCH   6   8
ENDBRANCH   1   2
BRANCH   1  14
ATOM     14  O   UNL     1       5.035   0.980   4.797  0.00  0.00    +0.000 OA
BRANCH  14  18
ATOM     15  C   UNL     1       2.387   0.130   1.765  0.00  0.00    +0.000 A 
ATOM     16  C   UNL     1       3.080   1.343   1.754  0.00  0.00    +0.000 A 
ATOM     17  C   UNL     1       3.973   1.624   2.790  0.00  0.00    +0.000 A 
ATOM     18  C   UNL     1       4.141   0.678   3.792  0.00  0.00    +0.000 A 
ATOM     19  N   UNL     1       3.482  -0.501   3.824  0.00  0.00    +0.000 NA
ATOM     20  C   UNL     1       2.610  -0.741   2.817  0.00  0.00    +0.000 A 
BRANCH  15  22
ATOM     21  N   UNL     1       1.582   0.254  -0.527  0.00  0.00    +0.000 N 
ATOM     22  C   UNL     1       1.413  -0.266   0.726  0.00  0.00    +0.000 C 
ATOM     23  O   UNL     1       0.517  -1.064   0.965  0.00  0.00    +0.000 OA
ATOM     24  H   UNL     1       0.978  -0.123  -1.247  0.00  0.00    +0.000 HD
ATOM     25  H   UNL     1       2.439   0.699  -0.822  0.00  0.00    +0.000 HD
ENDBRANCH  15  22
ENDBRANCH  14  18
ENDBRANCH   1  14
TORSDOF 5
