REMARK  Name = 
REMARK  9 active torsions:
REMARK  status: ('A' for Active; 'I' for Inactive)
REMARK    1  A    between atoms: C_1  and  O_2
REMARK    2  A    between atoms: O_2  and  C_3
REMARK    3  A    between atoms: C_7  and  C_8
REMARK    4  A    between atoms: C_12  and  C_13
REMARK    5  A    between atoms: C_13  and  N_14
REMARK    6  A    between atoms: N_14  and  C_15
REMARK    7  A    between atoms: C_18  and  C_19
REMARK    8  A    between atoms: C_23  and  O_24
REMARK    9  A    between atoms: O_24  and  C_25
REMARK                            x       y       z     vdW  Elec       q    Type
REMARK                         _______ _______ _______ _____ _____    ______ ____
ROOT
ATOM      1  C   UNL     1       8.297   3.041   3.073  0.00  0.00    +0.000 C 
ATOM      2  C   UNL     1       8.719   4.250   2.264  0.00  0.00    +0.000 C 
ATOM      3  C   UNL     1       9.724   3.607   3.159  0.00  0.00    +0.000 C 
ENDROOT
BRANCH   1   8
ATOM      4  C   UNL     1       9.094  -0.628   2.151  0.00  0.00    +0.000 A 
ATOM      5  C   UNL     1       8.080  -0.892   1.220  0.00  0.00    +0.000 A 
ATOM      6  C   UNL     1       7.161   0.092   0.860  0.00  0.00    +0.000 A 
ATOM      7  C   UNL     1       7.239   1.363   1.427  0.00  0.00    +0.000 A 
ATOM      8  C   UNL     1       8.191   1.667   2.408  0.00  0.00    +0.000 A 
ATOM      9  C   UNL     1       9.094   0.642   2.756  0.00  0.00    +0.000 A 
BRANCH   4  14
ATOM     10  C   UNL     1      11.798  -3.244   1.601  0.00  0.00    +0.000 A 
ATOM     11  C   UNL     1      12.386  -3.312   2.859  0.00  0.00    +0.000 A 
ATOM     12  C   UNL     1      11.879  -2.539   3.905  0.00  0.00    +0.000 A 
ATOM     13  C   UNL     1      10.784  -1.697   3.692  0.00  0.00    +0.000 A 
ATOM     14  C   UNL     1      10.179  -1.595   2.429  0.00  0.00    +0.000 A 
ATOM     15  C   UNL     1      10.704  -2.396   1.399  0.00  0.00    +0.000 A 
BRANCH  10  17
ATOM     16  C   UNL     1      13.372  -4.709   0.589  0.00  0.00    +0.000 C 
ATOM     17  O   UNL     1      12.191  -3.928   0.486  0.00  0.00    +0.000 OA
ENDBRANCH  10  17
ENDBRANCH   4  14
ENDBRANCH   1   8
BRANCH   1  18
ATOM     18  N   UNL     1       7.517   3.180   4.325  0.00  0.00    +0.000 N 
ATOM     19  H   UNL     1       7.498   2.329   4.888  0.00  0.00    +0.000 HD
BRANCH  18  20
ATOM     20  C   UNL     1       6.249   3.810   4.445  0.00  0.00    +0.000 A 
ATOM     21  C   UNL     1       5.286   3.724   3.432  0.00  0.00    +0.000 A 
ATOM     22  C   UNL     1       3.976   4.182   3.628  0.00  0.00    +0.000 A 
ATOM     23  C   UNL     1       3.607   4.766   4.840  0.00  0.00    +0.000 A 
ATOM     24  C   UNL     1       4.552   4.850   5.865  0.00  0.00    +0.000 A 
ATOM     25  C   UNL     1       5.865   4.386   5.676  0.00  0.00    +0.000 A 
BRANCH  23  26
ATOM     26  C   UNL     1       2.214   5.239   5.010  0.00  0.00    +0.000 C 
ATOM     27  N   UNL     1       2.003   6.261   5.896  0.00  0.00    +0.000 N 
ATOM     28  O   UNL     1       1.289   4.765   4.362  0.00  0.00    +0.000 OA
ATOM     29  H   UNL     1       2.757   6.823   6.260  0.00  0.00    +0.000 HD
ATOM     30  H   UNL     1       1.069   6.653   5.916  0.00  0.00    +0.000 HD
ENDBRANCH  23  26
BRANCH  25  31
ATOM     31  O   UNL     1       6.643   4.503   6.798  0.00  0.00    +0.000 OA
ATOM     32  C   UNL     1       8.028   4.754   6.588  0.00  0.00    +0.000 C 
ENDBRANCH  25  31
ENDBRANCH  18  20
ENDBRANCH   1  18
TORSDOF 7
