REMARK  Name = 
REMARK  9 active torsions:
REMARK  status: ('A' for Active; 'I' for Inactive)
REMARK    1  A    between atoms: N_1  and  C_2
REMARK    2  A    between atoms: C_2  and  C_3
REMARK    3  A    between atoms: C_2  and  C_19
REMARK    4  A    between atoms: C_3  and  N_4
REMARK    5  A    between atoms: N_7  and  C_8
REMARK    6  A    between atoms: C_8  and  O_9
REMARK    7  A    between atoms: O_9  and  C_10
REMARK    8  A    between atoms: C_13  and  O_14
REMARK    9  A    between atoms: C_19  and  C_21
REMARK                            x       y       z     vdW  Elec       q    Type
REMARK                         _______ _______ _______ _____ _____    ______ ____
ROOT
ATOM      1  C   UNL     1       2.623  -0.116   0.153  0.00  0.00    +0.000 C 
ENDROOT
BRANCH   1   2
ATOM      2  N   UNL     1       3.252   1.217   0.373  0.00  0.00    +0.000 NA
ATOM      3  H   UNL     1       4.106   1.098   0.921  0.00  0.00    +0.000 HD
ATOM      4  H   UNL     1       2.642   1.761   0.986  0.00  0.00    +0.000 HD
ENDBRANCH   1   2
BRANCH   1   5
ATOM      5  C   UNL     1       2.923  -0.989   1.396  0.00  0.00    +0.000 C 
ATOM      6  O   UNL     1       2.938  -0.469   2.513  0.00  0.00    +0.000 OA
BRANCH   5   7
ATOM      7  C   UNL     1       3.125  -2.438   1.251  0.00  0.00    +0.000 A 
ATOM      8  C   UNL     1       2.645  -3.203   0.200  0.00  0.00    +0.000 A 
ATOM      9  S   UNL     1       2.881  -4.883   0.436  0.00  0.00    +0.000 S 
ATOM     10  C   UNL     1       3.369  -4.618   2.043  0.00  0.00    +0.000 A 
ATOM     11  N   UNL     1       3.342  -5.605   2.975  0.00  0.00    +0.000 NA
ATOM     12  C   UNL     1       3.657  -5.207   4.165  0.00  0.00    +0.000 A 
ATOM     13  N   UNL     1       4.135  -3.958   4.477  0.00  0.00    +0.000 N 
ATOM     14  C   UNL     1       4.312  -2.969   3.533  0.00  0.00    +0.000 A 
ATOM     15  O   UNL     1       4.972  -1.960   3.754  0.00  0.00    +0.000 OA
ATOM     16  C   UNL     1       3.691  -3.295   2.260  0.00  0.00    +0.000 A 
ATOM     17  H   UNL     1       4.503  -3.759   5.395  0.00  0.00    +0.000 HD
ENDBRANCH   5   7
ENDBRANCH   1   5
BRANCH   1  18
ATOM     18  C   UNL     1       1.071  -0.067  -0.053  0.00  0.00    +0.000 C 
BRANCH  18  19
ATOM     19  N   UNL     1       0.529   0.740  -1.177  0.00  0.00    +0.000 NA
ATOM     20  C   UNL     1       0.847   2.179  -1.094  0.00  0.00    +0.000 C 
ATOM     21  C   UNL     1       0.116   2.912   0.061  0.00  0.00    +0.000 C 
ATOM     22  N   UNL     1      -1.360   2.831  -0.025  0.00  0.00    +0.000 NA
ATOM     23  C   UNL     1      -1.748   1.412  -0.179  0.00  0.00    +0.000 C 
ATOM     24  C   UNL     1      -0.951   0.609  -1.250  0.00  0.00    +0.000 C 
BRANCH  22  25
ATOM     25  C   UNL     1      -1.827   3.628  -1.160  0.00  0.00    +0.000 C 
BRANCH  25  26
ATOM     26  O   UNL     1      -3.253   3.628  -1.281  0.00  0.00    +0.000 OA
BRANCH  26  27
ATOM     27  C   UNL     1      -3.714   4.353  -2.347  0.00  0.00    +0.000 A 
ATOM     28  C   UNL     1      -3.004   4.570  -3.528  0.00  0.00    +0.000 A 
ATOM     29  C   UNL     1      -3.556   5.361  -4.538  0.00  0.00    +0.000 A 
ATOM     30  C   UNL     1      -4.822   5.881  -4.314  0.00  0.00    +0.000 A 
ATOM     31  N   UNL     1      -5.552   5.660  -3.220  0.00  0.00    +0.000 NA
ATOM     32  C   UNL     1      -4.981   4.894  -2.251  0.00  0.00    +0.000 A 
BRANCH  30  33
ATOM     33  O   UNL     1      -5.411   6.671  -5.261  0.00  0.00    +0.000 OA
ATOM     34  H   UNL     1      -4.799   6.775  -5.997  0.00  0.00    +0.000 HD
ENDBRANCH  30  33
ENDBRANCH  26  27
ENDBRANCH  25  26
ENDBRANCH  22  25
ENDBRANCH  18  19
ENDBRANCH   1  18
TORSDOF 9
