REMARK  Name = 
REMARK  6 active torsions:
REMARK  status: ('A' for Active; 'I' for Inactive)
REMARK    1  A    between atoms: C_2  and  C_19
REMARK    2  A    between atoms: N_3  and  C_4
REMARK    3  A    between atoms: C_4  and  C_5
REMARK    4  A    between atoms: C_8  and  C_9
REMARK    5  A    between atoms: C_9  and  O_10
REMARK    6  A    between atoms: O_10  and  C_11
REMARK                            x       y       z     vdW  Elec       q    Type
REMARK                         _______ _______ _______ _____ _____    ______ ____
ROOT
ATOM      1  O   UNL     1       0.241  -0.249  -0.637  0.00  0.00    +0.000 OA
ATOM      2  C   UNL     1       0.214  -0.925  -1.662  0.00  0.00    +0.000 C 
ATOM      3  N   UNL     1       1.195  -1.818  -2.031  0.00  0.00    +0.000 N 
ATOM      4  H   UNL     1       0.975  -2.473  -2.767  0.00  0.00    +0.000 HD
ENDROOT
BRANCH   2   5
ATOM      5  C   UNL     1      -0.959  -1.035  -2.517  0.00  0.00    +0.000 A 
ATOM      6  C   UNL     1      -2.247  -1.120  -2.015  0.00  0.00    +0.000 A 
ATOM      7  S   UNL     1      -3.325  -1.794  -3.169  0.00  0.00    +0.000 S 
ATOM      8  C   UNL     1      -2.109  -1.833  -4.366  0.00  0.00    +0.000 A 
ATOM      9  N   UNL     1      -2.287  -2.433  -5.573  0.00  0.00    +0.000 NA
ATOM     10  C   UNL     1      -1.280  -2.311  -6.377  0.00  0.00    +0.000 A 
ATOM     11  N   UNL     1      -0.132  -1.603  -6.105  0.00  0.00    +0.000 N 
ATOM     12  C   UNL     1       0.085  -0.966  -4.906  0.00  0.00    +0.000 A 
ATOM     13  O   UNL     1       1.062  -0.254  -4.711  0.00  0.00    +0.000 OA
ATOM     14  C   UNL     1      -0.965  -1.200  -3.936  0.00  0.00    +0.000 A 
ATOM     15  H   UNL     1       0.572  -1.460  -6.815  0.00  0.00    +0.000 HD
ENDBRANCH   2   5
BRANCH   3  16
ATOM     16  C   UNL     1       2.240  -2.214  -1.130  0.00  0.00    +0.000 C 
BRANCH  16  17
ATOM     17  C   UNL     1       3.185  -3.171  -1.812  0.00  0.00    +0.000 A 
ATOM     18  C   UNL     1       4.342  -2.698  -2.442  0.00  0.00    +0.000 A 
ATOM     19  C   UNL     1       5.236  -3.584  -3.053  0.00  0.00    +0.000 A 
ATOM     20  C   UNL     1       4.974  -4.960  -3.072  0.00  0.00    +0.000 A 
ATOM     21  C   UNL     1       3.801  -5.432  -2.468  0.00  0.00    +0.000 A 
ATOM     22  C   UNL     1       2.910  -4.547  -1.854  0.00  0.00    +0.000 A 
BRANCH  20  23
ATOM     23  C   UNL     1       5.950  -5.926  -3.707  0.00  0.00    +0.000 C 
BRANCH  23  24
ATOM     24  O   UNL     1       6.902  -6.332  -2.729  0.00  0.00    +0.000 OA
BRANCH  24  25
ATOM     25  C   UNL     1       7.863  -7.153  -3.278  0.00  0.00    +0.000 A 
ATOM     26  N   UNL     1       9.047  -7.147  -2.650  0.00  0.00    +0.000 NA
ATOM     27  C   UNL     1      10.000  -7.936  -3.179  0.00  0.00    +0.000 A 
ATOM     28  C   UNL     1       9.805  -8.728  -4.286  0.00  0.00    +0.000 A 
ATOM     29  C   UNL     1       8.547  -8.674  -4.836  0.00  0.00    +0.000 A 
ATOM     30  N   UNL     1       7.559  -7.896  -4.358  0.00  0.00    +0.000 NA
ENDBRANCH  24  25
ENDBRANCH  23  24
ENDBRANCH  20  23
ENDBRANCH  16  17
ENDBRANCH   3  16
TORSDOF 6
