REMARK  Name = 
REMARK  7 active torsions:
REMARK  status: ('A' for Active; 'I' for Inactive)
REMARK    1  A    between atoms: C_2  and  C_21
REMARK    2  A    between atoms: N_3  and  C_4
REMARK    3  A    between atoms: C_4  and  C_5
REMARK    4  A    between atoms: C_8  and  C_9
REMARK    5  A    between atoms: C_10  and  C_11
REMARK    6  A    between atoms: C_11  and  O_12
REMARK    7  A    between atoms: C_11  and  C_13
REMARK                            x       y       z     vdW  Elec       q    Type
REMARK                         _______ _______ _______ _____ _____    ______ ____
ROOT
ATOM      1  C   UNL     1       3.284   2.262  -2.786  0.00  0.00    +0.000 A 
ATOM      2  C   UNL     1       3.101   3.638  -2.986  0.00  0.00    +0.000 A 
ATOM      3  C   UNL     1       3.945   4.353  -3.840  0.00  0.00    +0.000 A 
ATOM      4  C   UNL     1       4.973   3.693  -4.510  0.00  0.00    +0.000 A 
ATOM      5  C   UNL     1       5.150   2.318  -4.336  0.00  0.00    +0.000 A 
ATOM      6  C   UNL     1       4.306   1.603  -3.485  0.00  0.00    +0.000 A 
ENDROOT
BRANCH   4   7
ATOM      7  C   UNL     1       5.851   4.402  -5.386  0.00  0.00    +0.000 C 
ATOM      8  C   UNL     1       6.624   4.910  -6.153  0.00  0.00    +0.000 C 
BRANCH   8   9
ATOM      9  C   UNL     1       7.594   5.420  -7.129  0.00  0.00    +0.000 C 
BRANCH   9  10
ATOM     10  C   UNL     1       8.197   4.293  -7.950  0.00  0.00    +0.000 A 
ATOM     11  C   UNL     1       8.029   4.275  -9.343  0.00  0.00    +0.000 A 
ATOM     12  C   UNL     1       8.567   3.242 -10.112  0.00  0.00    +0.000 A 
ATOM     13  C   UNL     1       9.282   2.214  -9.501  0.00  0.00    +0.000 A 
ATOM     14  C   UNL     1       9.450   2.211  -8.118  0.00  0.00    +0.000 A 
ATOM     15  C   UNL     1       8.906   3.239  -7.347  0.00  0.00    +0.000 A 
ENDBRANCH   9  10
BRANCH   9  16
ATOM     16  O   UNL     1       8.625   6.132  -6.451  0.00  0.00    +0.000 OA
ATOM     17  H   UNL     1       9.146   5.476  -5.960  0.00  0.00    +0.000 HD
ENDBRANCH   9  16
ENDBRANCH   8   9
ENDBRANCH   4   7
BRANCH   1  18
ATOM     18  C   UNL     1       2.374   1.507  -1.853  0.00  0.00    +0.000 C 
BRANCH  18  21
ATOM     19  O   UNL     1      -0.138   2.759  -2.140  0.00  0.00    +0.000 OA
ATOM     20  C   UNL     1       0.057   1.675  -2.681  0.00  0.00    +0.000 C 
ATOM     21  N   UNL     1       1.229   0.975  -2.543  0.00  0.00    +0.000 N 
ATOM     22  H   UNL     1       1.408   0.194  -3.162  0.00  0.00    +0.000 HD
BRANCH  20  23
ATOM     23  C   UNL     1      -0.990   1.009  -3.463  0.00  0.00    +0.000 A 
ATOM     24  C   UNL     1      -2.328   1.280  -3.212  0.00  0.00    +0.000 A 
ATOM     25  S   UNL     1      -3.398   0.378  -4.188  0.00  0.00    +0.000 S 
ATOM     26  C   UNL     1      -2.108  -0.367  -5.012  0.00  0.00    +0.000 A 
ATOM     27  N   UNL     1      -2.336  -1.264  -6.008  0.00  0.00    +0.000 NA
ATOM     28  C   UNL     1      -1.267  -1.714  -6.575  0.00  0.00    +0.000 A 
ATOM     29  N   UNL     1       0.013  -1.353  -6.233  0.00  0.00    +0.000 N 
ATOM     30  C   UNL     1       0.291  -0.511  -5.184  0.00  0.00    +0.000 A 
ATOM     31  O   UNL     1       1.445  -0.319  -4.817  0.00  0.00    +0.000 OA
ATOM     32  C   UNL     1      -0.879   0.055  -4.538  0.00  0.00    +0.000 A 
ATOM     33  H   UNL     1       0.807  -1.762  -6.695  0.00  0.00    +0.000 HD
ENDBRANCH  20  23
ENDBRANCH  18  21
ENDBRANCH   1  18
TORSDOF 7
