REMARK  Name = 
REMARK  7 active torsions:
REMARK  status: ('A' for Active; 'I' for Inactive)
REMARK    1  A    between atoms: C_1  and  C_2
REMARK    2  A    between atoms: C_2  and  N_3
REMARK    3  A    between atoms: C_2  and  C_17
REMARK    4  A    between atoms: C_4  and  C_6
REMARK    5  A    between atoms: N_12  and  C_13
REMARK    6  A    between atoms: C_20  and  C_21
REMARK    7  A    between atoms: C_21  and  C_22
REMARK                            x       y       z     vdW  Elec       q    Type
REMARK                         _______ _______ _______ _____ _____    ______ ____
ROOT
ATOM      1  C   UNL     1       3.274  -0.022  -1.415  0.00  0.00    +0.000 C 
ATOM      2  C   UNL     1       2.628  -0.046  -0.026  0.00  0.00    +0.000 C 
ENDROOT
BRANCH   2   3
ATOM      3  C   UNL     1       3.005   1.144   0.847  0.00  0.00    +0.000 A 
ATOM      4  C   UNL     1       3.128   0.965   2.234  0.00  0.00    +0.000 A 
ATOM      5  C   UNL     1       3.433   2.040   3.075  0.00  0.00    +0.000 A 
ATOM      6  C   UNL     1       3.610   3.327   2.552  0.00  0.00    +0.000 A 
ATOM      7  C   UNL     1       3.462   3.518   1.174  0.00  0.00    +0.000 A 
ATOM      8  C   UNL     1       3.152   2.443   0.335  0.00  0.00    +0.000 A 
BRANCH   6   9
ATOM      9  C   UNL     1       3.997   4.482   3.447  0.00  0.00    +0.000 C 
BRANCH   9  10
ATOM     10  C   UNL     1       5.492   4.655   3.563  0.00  0.00    +0.000 A 
ATOM     11  C   UNL     1       6.196   5.445   2.650  0.00  0.00    +0.000 A 
ATOM     12  C   UNL     1       7.577   5.518   2.759  0.00  0.00    +0.000 A 
ATOM     13  N   UNL     1       8.292   4.875   3.705  0.00  0.00    +0.000 NA
ATOM     14  C   UNL     1       7.594   4.118   4.578  0.00  0.00    +0.000 A 
ATOM     15  C   UNL     1       6.215   3.979   4.550  0.00  0.00    +0.000 A 
ENDBRANCH   9  10
ENDBRANCH   6   9
ENDBRANCH   2   3
BRANCH   2  16
ATOM     16  N   UNL     1       1.185  -0.075  -0.135  0.00  0.00    +0.000 N 
ATOM     17  C   UNL     1       0.442  -1.200  -0.360  0.00  0.00    +0.000 C 
ATOM     18  O   UNL     1       0.927  -2.327  -0.388  0.00  0.00    +0.000 OA
ATOM     19  H   UNL     1       0.766   0.827  -0.316  0.00  0.00    +0.000 HD
BRANCH  17  20
ATOM     20  C   UNL     1      -1.004  -0.971  -0.488  0.00  0.00    +0.000 A 
ATOM     21  C   UNL     1      -1.913  -1.970  -0.173  0.00  0.00    +0.000 A 
ATOM     22  S   UNL     1      -3.540  -1.455  -0.261  0.00  0.00    +0.000 S 
ATOM     23  C   UNL     1      -3.081   0.104  -0.768  0.00  0.00    +0.000 A 
ATOM     24  N   UNL     1      -4.003   1.075  -0.993  0.00  0.00    +0.000 NA
ATOM     25  C   UNL     1      -3.507   2.209  -1.371  0.00  0.00    +0.000 A 
ATOM     26  N   UNL     1      -2.168   2.467  -1.578  0.00  0.00    +0.000 N 
ATOM     27  C   UNL     1      -1.709   3.775  -1.996  0.00  0.00    +0.000 C 
ATOM     28  C   UNL     1      -1.205   1.487  -1.389  0.00  0.00    +0.000 A 
ATOM     29  O   UNL     1      -0.010   1.687  -1.596  0.00  0.00    +0.000 OA
ATOM     30  C   UNL     1      -1.713   0.219  -0.899  0.00  0.00    +0.000 A 
ENDBRANCH  17  20
ENDBRANCH   2  16
TORSDOF 5
