REMARK  Name = 
REMARK  3 active torsions:
REMARK  status: ('A' for Active; 'I' for Inactive)
REMARK    1  A    between atoms: C_2  and  C_4
REMARK    2  A    between atoms: N_8  and  C_9
REMARK    3  A    between atoms: C_9  and  C_10
REMARK                            x       y       z     vdW  Elec       q    Type
REMARK                         _______ _______ _______ _____ _____    ______ ____
ROOT
ATOM      1  C   UNL     1       3.336   0.493  -1.241  0.00  0.00    +0.000 A 
ATOM      2  C   UNL     1       3.754  -0.700  -1.822  0.00  0.00    +0.000 A 
ATOM      3  C   UNL     1       4.396  -0.658  -3.057  0.00  0.00    +0.000 A 
ATOM      4  C   UNL     1       4.579   0.563  -3.706  0.00  0.00    +0.000 A 
ATOM      5  N   UNL     1       5.166   0.528  -4.966  0.00  0.00    +0.000 N 
ATOM      6  N   UNL     1       4.161   1.723  -3.164  0.00  0.00    +0.000 NA
ATOM      7  C   UNL     1       3.553   1.667  -1.948  0.00  0.00    +0.000 A 
ATOM      8  H   UNL     1       6.109   0.158  -4.923  0.00  0.00    +0.000 HD
ENDROOT
BRANCH   1  10
ATOM      9  N   UNL     1       2.882  -0.478   0.940  0.00  0.00    +0.000 N 
ATOM     10  C   UNL     1       2.656   0.552   0.069  0.00  0.00    +0.000 C 
ATOM     11  O   UNL     1       1.946   1.499   0.380  0.00  0.00    +0.000 OA
ATOM     12  H   UNL     1       2.487  -0.380   1.867  0.00  0.00    +0.000 HD
ATOM     13  H   UNL     1       3.626  -1.150   0.818  0.00  0.00    +0.000 HD
ENDBRANCH   1  10
BRANCH   5  14
ATOM     14  C   UNL     1       5.073   1.727  -5.782  0.00  0.00    +0.000 C 
BRANCH  14  15
ATOM     15  C   UNL     1       5.356   1.325  -7.215  0.00  0.00    +0.000 A 
ATOM     16  C   UNL     1       4.600   0.303  -7.816  0.00  0.00    +0.000 A 
ATOM     17  C   UNL     1       4.851  -0.099  -9.128  0.00  0.00    +0.000 A 
ATOM     18  C   UNL     1       5.855   0.529  -9.861  0.00  0.00    +0.000 A 
ATOM     19  C   UNL     1       6.605   1.553  -9.283  0.00  0.00    +0.000 A 
ATOM     20  C   UNL     1       6.358   1.952  -7.967  0.00  0.00    +0.000 A 
ENDBRANCH  14  15
ENDBRANCH   5  14
TORSDOF 3
