REMARK  Name = 
REMARK  9 active torsions:
REMARK  status: ('A' for Active; 'I' for Inactive)
REMARK    1  A    between atoms: C_1  and  O_2
REMARK    2  A    between atoms: O_2  and  C_3
REMARK    3  A    between atoms: C_11  and  C_13
REMARK    4  A    between atoms: C_13  and  C_14
REMARK    5  A    between atoms: C_14  and  C_15
REMARK    6  A    between atoms: C_18  and  C_19
REMARK    7  A    between atoms: C_19  and  S_20
REMARK    8  A    between atoms: S_20  and  C_21
REMARK    9  A    between atoms: C_21  and  C_22
REMARK                            x       y       z     vdW  Elec       q    Type
REMARK                         _______ _______ _______ _____ _____    ______ ____
ROOT
ATOM      1  C   UNL     1       4.998   1.697  -4.052  0.00  0.00    +0.000 C 
ENDROOT
BRANCH   1   2
ATOM      2  C   UNL     1       5.689   2.239  -5.290  0.00  0.00    +0.000 A 
ATOM      3  C   UNL     1       5.745   3.623  -5.509  0.00  0.00    +0.000 A 
ATOM      4  C   UNL     1       6.399   4.149  -6.633  0.00  0.00    +0.000 A 
ATOM      5  C   UNL     1       7.015   3.300  -7.563  0.00  0.00    +0.000 A 
ATOM      6  C   UNL     1       6.989   1.927  -7.331  0.00  0.00    +0.000 A 
ATOM      7  C   UNL     1       6.339   1.410  -6.216  0.00  0.00    +0.000 A 
BRANCH   5   8
ATOM      8  C   UNL     1       7.683   3.820  -8.805  0.00  0.00    +0.000 C 
BRANCH   8   9
ATOM      9  S   UNL     1       9.392   4.380  -8.558  0.00  0.00    +0.000 S 
BRANCH   9  10
ATOM     10  C   UNL     1      10.213   2.808  -8.123  0.00  0.00    +0.000 C 
BRANCH  10  11
ATOM     11  C   UNL     1      11.683   3.026  -7.895  0.00  0.00    +0.000 A 
ATOM     12  C   UNL     1      12.174   3.434  -6.646  0.00  0.00    +0.000 A 
ATOM     13  C   UNL     1      13.531   3.675  -6.475  0.00  0.00    +0.000 A 
ATOM     14  C   UNL     1      14.368   3.504  -7.573  0.00  0.00    +0.000 A 
ATOM     15  N   UNL     1      13.939   3.107  -8.790  0.00  0.00    +0.000 NA
ATOM     16  C   UNL     1      12.612   2.886  -8.925  0.00  0.00    +0.000 A 
ENDBRANCH  10  11
ENDBRANCH   9  10
ENDBRANCH   8   9
ENDBRANCH   5   8
ENDBRANCH   1   2
BRANCH   1  17
ATOM     17  C   UNL     1       4.526   0.233  -4.126  0.00  0.00    +0.000 C 
BRANCH  17  26
ATOM     18  C   UNL     1       7.750  -3.017  -5.118  0.00  0.00    +0.000 A 
ATOM     19  N   UNL     1       8.332  -4.155  -5.579  0.00  0.00    +0.000 NA
ATOM     20  C   UNL     1       7.571  -5.237  -5.846  0.00  0.00    +0.000 A 
ATOM     21  C   UNL     1       6.199  -5.281  -5.710  0.00  0.00    +0.000 A 
ATOM     22  C   UNL     1       5.595  -4.107  -5.263  0.00  0.00    +0.000 A 
ATOM     23  N   UNL     1       4.259  -3.853  -5.091  0.00  0.00    +0.000 NA
ATOM     24  C   UNL     1       4.206  -2.612  -4.676  0.00  0.00    +0.000 A 
ATOM     25  N   UNL     1       5.447  -2.029  -4.528  0.00  0.00    +0.000 N 
ATOM     26  C   UNL     1       5.694  -0.731  -4.053  0.00  0.00    +0.000 C 
ATOM     27  O   UNL     1       6.806  -0.430  -3.636  0.00  0.00    +0.000 OA
ATOM     28  C   UNL     1       6.367  -2.993  -4.941  0.00  0.00    +0.000 A 
BRANCH  18  30
ATOM     29  C   UNL     1       9.827  -1.976  -5.437  0.00  0.00    +0.000 C 
ATOM     30  O   UNL     1       8.534  -1.924  -4.849  0.00  0.00    +0.000 OA
ENDBRANCH  18  30
ENDBRANCH  17  26
ENDBRANCH   1  17
TORSDOF 8
