REMARK  Name = 
REMARK  4 active torsions:
REMARK  status: ('A' for Active; 'I' for Inactive)
REMARK    1  A    between atoms: C_2  and  C_3
REMARK    2  A    between atoms: N_7  and  C_8
REMARK    3  A    between atoms: C_8  and  C_9
REMARK    4  A    between atoms: C_13  and  C_14
REMARK                            x       y       z     vdW  Elec       q    Type
REMARK                         _______ _______ _______ _____ _____    ______ ____
ROOT
ATOM      1  C   UNL     1      -4.423   1.124  -0.240  0.00  0.00    +0.000 C 
ATOM      2  C   UNL     1      -4.455   2.281  -1.223  0.00  0.00    +0.000 C 
ATOM      3  C   UNL     1      -4.382   2.584   0.232  0.00  0.00    +0.000 C 
ENDROOT
BRANCH   1   8
ATOM      4  C   UNL     1      -0.366  -1.217  -2.617  0.00  0.00    +0.000 A 
ATOM      5  C   UNL     1      -1.562  -0.767  -3.174  0.00  0.00    +0.000 A 
ATOM      6  C   UNL     1      -2.553  -0.233  -2.338  0.00  0.00    +0.000 A 
ATOM      7  C   UNL     1      -2.326  -0.163  -0.968  0.00  0.00    +0.000 A 
ATOM      8  N   UNL     1      -3.224   0.324  -0.033  0.00  0.00    +0.000 N 
ATOM      9  N   UNL     1      -1.167  -0.600  -0.428  0.00  0.00    +0.000 NA
ATOM     10  C   UNL     1      -0.218  -1.107  -1.248  0.00  0.00    +0.000 A 
ATOM     11  H   UNL     1      -2.819   0.245   0.891  0.00  0.00    +0.000 HD
BRANCH   4  13
ATOM     12  N   UNL     1       1.537  -2.252  -4.030  0.00  0.00    +0.000 NA
ATOM     13  C   UNL     1       0.682  -1.788  -3.409  0.00  0.00    +0.000 C 
ENDBRANCH   4  13
ENDBRANCH   1   8
BRANCH   1  14
ATOM     14  C   UNL     1      -5.713   0.441   0.208  0.00  0.00    +0.000 A 
ATOM     15  C   UNL     1      -5.954   0.224   1.580  0.00  0.00    +0.000 A 
ATOM     16  C   UNL     1      -7.226  -0.108   2.052  0.00  0.00    +0.000 A 
ATOM     17  C   UNL     1      -8.273  -0.259   1.153  0.00  0.00    +0.000 A 
ATOM     18  C   UNL     1      -8.037  -0.147  -0.217  0.00  0.00    +0.000 A 
ATOM     19  C   UNL     1      -6.750   0.166  -0.688  0.00  0.00    +0.000 A 
BRANCH  18  20
ATOM     20  C   UNL     1      -9.109  -0.287  -1.151  0.00  0.00    +0.000 C 
ATOM     21  N   UNL     1      -9.983  -0.374  -1.916  0.00  0.00    +0.000 NA
ENDBRANCH  18  20
ENDBRANCH   1  14
TORSDOF 4
