REMARK  Name = 
REMARK  6 active torsions:
REMARK  status: ('A' for Active; 'I' for Inactive)
REMARK    1  A    between atoms: C_1  and  C_2
REMARK    2  A    between atoms: C_2  and  C_3
REMARK    3  A    between atoms: C_2  and  C_14
REMARK    4  A    between atoms: C_3  and  N_4
REMARK    5  A    between atoms: N_4  and  C_5
REMARK    6  A    between atoms: C_8  and  C_9
REMARK                            x       y       z     vdW  Elec       q    Type
REMARK                         _______ _______ _______ _____ _____    ______ ____
ROOT
ATOM      1  N   UNL     1       2.642  -2.286   1.108  0.00  0.00    +0.000 N 
ATOM      2  H   UNL     1       1.637  -2.298   1.275  0.00  0.00    +0.000 HD
ENDROOT
BRANCH   1   3
ATOM      3  C   UNL     1       3.202  -3.561   1.276  0.00  0.00    +0.000 A 
ATOM      4  C   UNL     1       2.547  -4.501   2.078  0.00  0.00    +0.000 A 
ATOM      5  C   UNL     1       3.098  -5.768   2.280  0.00  0.00    +0.000 A 
ATOM      6  C   UNL     1       4.322  -6.049   1.693  0.00  0.00    +0.000 A 
ATOM      7  N   UNL     1       5.033  -5.152   0.958  0.00  0.00    +0.000 NA
ATOM      8  C   UNL     1       4.460  -3.936   0.795  0.00  0.00    +0.000 A 
BRANCH   6   9
ATOM      9  C   UNL     1       4.933  -7.408   1.840  0.00  0.00    +0.000 C 
ATOM     10  N   UNL     1       6.138  -7.573   1.210  0.00  0.00    +0.000 N 
ATOM     11  O   UNL     1       4.397  -8.315   2.465  0.00  0.00    +0.000 OA
ATOM     12  H   UNL     1       6.536  -6.795   0.695  0.00  0.00    +0.000 HD
ATOM     13  H   UNL     1       6.605  -8.466   1.241  0.00  0.00    +0.000 HD
ENDBRANCH   6   9
ENDBRANCH   1   3
BRANCH   1  14
ATOM     14  C   UNL     1       2.959  -1.582  -0.131  0.00  0.00    +0.000 C 
BRANCH  14  16
ATOM     15  C   UNL     1       2.623   0.788   0.798  0.00  0.00    +0.000 C 
ATOM     16  C   UNL     1       2.185  -0.302  -0.131  0.00  0.00    +0.000 C 
BRANCH  16  17
ATOM     17  C   UNL     1       0.916  -0.177  -0.864  0.00  0.00    +0.000 A 
ATOM     18  C   UNL     1       0.770  -0.666  -2.169  0.00  0.00    +0.000 A 
ATOM     19  C   UNL     1      -0.441  -0.523  -2.853  0.00  0.00    +0.000 A 
ATOM     20  C   UNL     1      -1.523   0.102  -2.237  0.00  0.00    +0.000 A 
ATOM     21  C   UNL     1      -1.394   0.586  -0.941  0.00  0.00    +0.000 A 
ATOM     22  C   UNL     1      -0.183   0.453  -0.261  0.00  0.00    +0.000 A 
ENDBRANCH  16  17
ENDBRANCH  14  16
ENDBRANCH   1  14
TORSDOF 5
