REMARK  Name = 
REMARK  8 active torsions:
REMARK  status: ('A' for Active; 'I' for Inactive)
REMARK    1  A    between atoms: C_1  and  C_2
REMARK    2  A    between atoms: C_2  and  N_3
REMARK    3  A    between atoms: C_2  and  C_16
REMARK    4  A    between atoms: C_4  and  C_6
REMARK    5  A    between atoms: C_19  and  C_20
REMARK    6  A    between atoms: C_20  and  N_21
REMARK    7  A    between atoms: N_21  and  C_22
REMARK    8  A    between atoms: C_22  and  C_24
REMARK                            x       y       z     vdW  Elec       q    Type
REMARK                         _______ _______ _______ _____ _____    ______ ____
ROOT
ATOM      1  C   UNL     1       3.062   0.342  -1.379  0.00  0.00    +0.000 C 
ATOM      2  C   UNL     1       2.369   0.081  -0.035  0.00  0.00    +0.000 C 
ENDROOT
BRANCH   2   3
ATOM      3  C   UNL     1       2.802  -1.269   0.527  0.00  0.00    +0.000 A 
ATOM      4  C   UNL     1       3.487  -1.360   1.746  0.00  0.00    +0.000 A 
ATOM      5  C   UNL     1       3.855  -2.607   2.268  0.00  0.00    +0.000 A 
ATOM      6  C   UNL     1       3.551  -3.790   1.580  0.00  0.00    +0.000 A 
ATOM      7  C   UNL     1       2.860  -3.703   0.367  0.00  0.00    +0.000 A 
ATOM      8  C   UNL     1       2.494  -2.459  -0.154  0.00  0.00    +0.000 A 
BRANCH   6   9
ATOM      9  C   UNL     1       3.952  -5.135   2.128  0.00  0.00    +0.000 C 
BRANCH   9  10
ATOM     10  N   UNL     1       2.918  -5.723   2.961  0.00  0.00    +0.000 N 
ATOM     11  H   UNL     1       2.080  -5.176   3.134  0.00  0.00    +0.000 HD
BRANCH  10  12
ATOM     12  C   UNL     1       2.971  -6.975   3.544  0.00  0.00    +0.000 C 
ATOM     13  S   UNL     1       4.259  -8.042   3.408  0.00  0.00    +0.000 S 
BRANCH  12  14
ATOM     14  C   UNL     1       1.805  -7.361   4.321  0.00  0.00    +0.000 A 
ATOM     15  C   UNL     1       1.481  -8.484   5.071  0.00  0.00    +0.000 A 
ATOM     16  C   UNL     1       0.182  -8.285   5.594  0.00  0.00    +0.000 A 
ATOM     17  C   UNL     1      -0.224  -7.055   5.139  0.00  0.00    +0.000 A 
ATOM     18  O   UNL     1       0.745  -6.485   4.375  0.00  0.00    +0.000 OA
ENDBRANCH  12  14
ENDBRANCH  10  12
ENDBRANCH   9  10
ENDBRANCH   6   9
ENDBRANCH   2   3
BRANCH   2  19
ATOM     19  N   UNL     1       0.915   0.107  -0.131  0.00  0.00    +0.000 N 
ATOM     20  C   UNL     1       0.202   1.198  -0.558  0.00  0.00    +0.000 C 
ATOM     21  O   UNL     1       0.738   2.229  -0.953  0.00  0.00    +0.000 OA
ATOM     22  H   UNL     1       0.429  -0.574   0.446  0.00  0.00    +0.000 HD
BRANCH  20  23
ATOM     23  C   UNL     1      -1.260   1.054  -0.579  0.00  0.00    +0.000 A 
ATOM     24  C   UNL     1      -2.008   1.796  -1.483  0.00  0.00    +0.000 A 
ATOM     25  S   UNL     1      -3.686   1.516  -1.375  0.00  0.00    +0.000 S 
ATOM     26  C   UNL     1      -3.476   0.424  -0.088  0.00  0.00    +0.000 A 
ATOM     27  N   UNL     1      -4.546  -0.160   0.516  0.00  0.00    +0.000 NA
ATOM     28  C   UNL     1      -4.242  -0.941   1.499  0.00  0.00    +0.000 A 
ATOM     29  N   UNL     1      -2.965  -1.204   1.921  0.00  0.00    +0.000 N 
ATOM     30  C   UNL     1      -1.852  -0.671   1.313  0.00  0.00    +0.000 A 
ATOM     31  O   UNL     1      -0.720  -0.981   1.667  0.00  0.00    +0.000 OA
ATOM     32  C   UNL     1      -2.141   0.245   0.228  0.00  0.00    +0.000 A 
ATOM     33  H   UNL     1      -2.794  -1.844   2.683  0.00  0.00    +0.000 HD
ENDBRANCH  20  23
ENDBRANCH   2  19
TORSDOF 7
