REMARK  Name = 
REMARK  8 active torsions:
REMARK  status: ('A' for Active; 'I' for Inactive)
REMARK    1  A    between atoms: C_2  and  C_21
REMARK    2  A    between atoms: N_3  and  C_4
REMARK    3  A    between atoms: C_4  and  C_5
REMARK    4  A    between atoms: C_8  and  C_9
REMARK    5  A    between atoms: C_9  and  C_10
REMARK    6  A    between atoms: C_10  and  O_11
REMARK    7  A    between atoms: C_10  and  C_12
REMARK    8  A    between atoms: C_12  and  C_13
REMARK                            x       y       z     vdW  Elec       q    Type
REMARK                         _______ _______ _______ _____ _____    ______ ____
ROOT
ATOM      1  C   UNL     1       3.224   0.643  -3.540  0.00  0.00    +0.000 A 
ATOM      2  C   UNL     1       3.425   1.944  -4.015  0.00  0.00    +0.000 A 
ATOM      3  C   UNL     1       4.326   2.191  -5.053  0.00  0.00    +0.000 A 
ATOM      4  C   UNL     1       5.046   1.143  -5.639  0.00  0.00    +0.000 A 
ATOM      5  C   UNL     1       4.813  -0.166  -5.193  0.00  0.00    +0.000 A 
ATOM      6  C   UNL     1       3.906  -0.414  -4.157  0.00  0.00    +0.000 A 
ENDROOT
BRANCH   1   7
ATOM      7  C   UNL     1       2.262   0.393  -2.408  0.00  0.00    +0.000 C 
BRANCH   7  10
ATOM      8  O   UNL     1       0.235   2.341  -2.625  0.00  0.00    +0.000 OA
ATOM      9  C   UNL     1       0.019   1.203  -3.034  0.00  0.00    +0.000 C 
ATOM     10  N   UNL     1       0.925   0.184  -2.899  0.00  0.00    +0.000 N 
ATOM     11  H   UNL     1       0.773  -0.680  -3.406  0.00  0.00    +0.000 HD
BRANCH   9  12
ATOM     12  C   UNL     1      -1.263   0.847  -3.655  0.00  0.00    +0.000 A 
ATOM     13  C   UNL     1      -2.390   1.619  -3.404  0.00  0.00    +0.000 A 
ATOM     14  S   UNL     1      -3.793   1.057  -4.195  0.00  0.00    +0.000 S 
ATOM     15  C   UNL     1      -2.933  -0.209  -4.939  0.00  0.00    +0.000 A 
ATOM     16  N   UNL     1      -3.552  -1.067  -5.795  0.00  0.00    +0.000 NA
ATOM     17  C   UNL     1      -2.773  -1.950  -6.321  0.00  0.00    +0.000 A 
ATOM     18  N   UNL     1      -1.431  -2.061  -6.064  0.00  0.00    +0.000 N 
ATOM     19  C   UNL     1      -0.781  -1.271  -5.145  0.00  0.00    +0.000 A 
ATOM     20  O   UNL     1       0.382  -1.499  -4.829  0.00  0.00    +0.000 OA
ATOM     21  C   UNL     1      -1.601  -0.224  -4.564  0.00  0.00    +0.000 A 
ATOM     22  H   UNL     1      -0.884  -2.798  -6.481  0.00  0.00    +0.000 HD
ENDBRANCH   9  12
ENDBRANCH   7  10
ENDBRANCH   1   7
BRANCH   4  23
ATOM     23  C   UNL     1       6.065   1.423  -6.724  0.00  0.00    +0.000 C 
BRANCH  23  24
ATOM     24  C   UNL     1       7.243   2.295  -6.236  0.00  0.00    +0.000 C 
BRANCH  24  25
ATOM     25  O   UNL     1       7.947   1.609  -5.186  0.00  0.00    +0.000 OA
ATOM     26  H   UNL     1       8.030   0.675  -5.434  0.00  0.00    +0.000 HD
ENDBRANCH  24  25
BRANCH  24  27
ATOM     27  C   UNL     1       8.219   2.600  -7.385  0.00  0.00    +0.000 C 
BRANCH  27  28
ATOM     28  C   UNL     1       9.324   3.527  -6.932  0.00  0.00    +0.000 A 
ATOM     29  C   UNL     1      10.483   3.006  -6.356  0.00  0.00    +0.000 A 
ATOM     30  C   UNL     1      11.445   3.881  -5.863  0.00  0.00    +0.000 A 
ATOM     31  C   UNL     1      11.231   5.248  -5.961  0.00  0.00    +0.000 A 
ATOM     32  C   UNL     1      10.061   5.684  -6.562  0.00  0.00    +0.000 A 
ATOM     33  N   UNL     1       9.107   4.859  -7.052  0.00  0.00    +0.000 NA
ENDBRANCH  27  28
ENDBRANCH  24  27
ENDBRANCH  23  24
ENDBRANCH   4  23
TORSDOF 8
