REMARK  Name = 
REMARK  6 active torsions:
REMARK  status: ('A' for Active; 'I' for Inactive)
REMARK    1  A    between atoms: C_1  and  C_2
REMARK    2  A    between atoms: C_10  and  C_11
REMARK    3  A    between atoms: C_11  and  O_12
REMARK    4  A    between atoms: O_12  and  C_13
REMARK    5  A    between atoms: C_16  and  S_17
REMARK    6  A    between atoms: S_17  and  C_18
REMARK                            x       y       z     vdW  Elec       q    Type
REMARK                         _______ _______ _______ _____ _____    ______ ____
ROOT
ATOM      1  C   UNL     1      -1.959   1.770   0.730  0.00  0.00    +0.000 C 
ATOM      2  C   UNL     1      -0.824   0.750   0.678  0.00  0.00    +0.000 C 
ATOM      3  C   UNL     1      -0.690   0.179  -0.743  0.00  0.00    +0.000 C 
ATOM      4  C   UNL     1       0.521  -0.744  -0.872  0.00  0.00    +0.000 C 
ATOM      5  N   UNL     1       1.696  -0.030  -0.405  0.00  0.00    +0.000 N 
ATOM      6  C   UNL     1       2.849  -0.039  -1.146  0.00  0.00    +0.000 A 
ATOM      7  N   UNL     1       3.939   0.590  -0.679  0.00  0.00    +0.000 NA
ATOM      8  C   UNL     1       5.036   0.598  -1.459  0.00  0.00    +0.000 A 
ATOM      9  C   UNL     1       5.094   0.002  -2.695  0.00  0.00    +0.000 A 
ATOM     10  C   UNL     1       3.937  -0.604  -3.120  0.00  0.00    +0.000 A 
ATOM     11  N   UNL     1       2.828  -0.631  -2.353  0.00  0.00    +0.000 NA
ATOM     12  C   UNL     1       1.681   0.430   0.971  0.00  0.00    +0.000 C 
ATOM     13  C   UNL     1       0.498   1.385   1.148  0.00  0.00    +0.000 C 
ENDROOT
BRANCH  10  14
ATOM     14  C   UNL     1       3.830  -1.221  -4.498  0.00  0.00    +0.000 C 
BRANCH  14  15
ATOM     15  O   UNL     1       4.301  -2.570  -4.481  0.00  0.00    +0.000 OA
BRANCH  15  16
ATOM     16  C   UNL     1       4.278  -3.249  -5.671  0.00  0.00    +0.000 A 
ATOM     17  C   UNL     1       3.819  -2.756  -6.896  0.00  0.00    +0.000 A 
ATOM     18  C   UNL     1       3.847  -3.563  -8.041  0.00  0.00    +0.000 A 
ATOM     19  C   UNL     1       4.339  -4.867  -7.959  0.00  0.00    +0.000 A 
ATOM     20  C   UNL     1       4.799  -5.372  -6.744  0.00  0.00    +0.000 A 
ATOM     21  C   UNL     1       4.765  -4.560  -5.606  0.00  0.00    +0.000 A 
BRANCH  19  22
ATOM     22  S   UNL     1       4.213  -5.948  -9.372  0.00  0.00    +0.000 S 
ATOM     23  C   UNL     1       5.711  -5.693 -10.284  0.00  0.00    +0.000 C 
ATOM     24  O   UNL     1       4.225  -7.311  -8.879  0.00  0.00    +0.000 OA
ATOM     25  O   UNL     1       3.117  -5.462 -10.183  0.00  0.00    +0.000 OA
ENDBRANCH  19  22
ENDBRANCH  15  16
ENDBRANCH  14  15
ENDBRANCH  10  14
TORSDOF 4
