REMARK  Name = 
REMARK  9 active torsions:
REMARK  status: ('A' for Active; 'I' for Inactive)
REMARK    1  A    between atoms: C_1  and  C_2
REMARK    2  A    between atoms: N_5  and  C_6
REMARK    3  A    between atoms: C_8  and  C_9
REMARK    4  A    between atoms: C_9  and  C_10
REMARK    5  A    between atoms: C_9  and  C_11
REMARK    6  A    between atoms: C_9  and  C_12
REMARK    7  A    between atoms: C_12  and  N_13
REMARK    8  A    between atoms: N_13  and  C_14
REMARK    9  A    between atoms: C_17  and  C_18
REMARK                            x       y       z     vdW  Elec       q    Type
REMARK                         _______ _______ _______ _____ _____    ______ ____
ROOT
ATOM      1  C   UNL     1       6.497   1.240  -1.097  0.00  0.00    +0.000 C 
ATOM      2  C   UNL     1       6.262   2.752  -0.831  0.00  0.00    +0.000 C 
ATOM      3  C   UNL     1       6.964   0.564   0.215  0.00  0.00    +0.000 C 
ENDROOT
BRANCH   1   6
ATOM      4  C   UNL     1       2.830  -0.002  -1.094  0.00  0.00    +0.000 A 
ATOM      5  C   UNL     1       4.042   0.616  -0.739  0.00  0.00    +0.000 A 
ATOM      6  C   UNL     1       5.179   0.600  -1.573  0.00  0.00    +0.000 A 
ATOM      7  C   UNL     1       5.050  -0.031  -2.820  0.00  0.00    +0.000 A 
ATOM      8  C   UNL     1       3.864  -0.643  -3.204  0.00  0.00    +0.000 A 
ATOM      9  C   UNL     1       2.780  -0.631  -2.347  0.00  0.00    +0.000 A 
ATOM     10  F   UNL     1       1.654  -1.220  -2.778  0.00  0.00    +0.000 F 
BRANCH   4  15
ATOM     11  C   UNL     1      -2.349   1.145   0.082  0.00  0.00    +0.000 C 
ATOM     12  C   UNL     1      -0.971   0.594   0.439  0.00  0.00    +0.000 C 
ATOM     13  C   UNL     1      -0.607  -0.575  -0.488  0.00  0.00    +0.000 C 
ATOM     14  C   UNL     1       0.798  -1.092  -0.210  0.00  0.00    +0.000 C 
ATOM     15  N   UNL     1       1.759   0.004  -0.217  0.00  0.00    +0.000 N 
ATOM     16  C   UNL     1       1.495   1.147   0.650  0.00  0.00    +0.000 C 
ATOM     17  C   UNL     1       0.098   1.695   0.361  0.00  0.00    +0.000 C 
ENDBRANCH   4  15
ENDBRANCH   1   6
BRANCH   1  18
ATOM     18  C   UNL     1       7.639   1.126  -2.151  0.00  0.00    +0.000 C 
BRANCH  18  19
ATOM     19  N   UNL     1       8.006  -0.261  -2.464  0.00  0.00    +0.000 N 
ATOM     20  H   UNL     1       7.296  -0.981  -2.322  0.00  0.00    +0.000 HD
BRANCH  19  21
ATOM     21  C   UNL     1       8.946  -0.518  -3.459  0.00  0.00    +0.000 A 
ATOM     22  C   UNL     1       9.279  -1.848  -3.747  0.00  0.00    +0.000 A 
ATOM     23  C   UNL     1      10.266  -2.160  -4.691  0.00  0.00    +0.000 A 
ATOM     24  C   UNL     1      10.960  -1.140  -5.351  0.00  0.00    +0.000 A 
ATOM     25  C   UNL     1      10.652   0.189  -5.061  0.00  0.00    +0.000 A 
ATOM     26  C   UNL     1       9.671   0.484  -4.122  0.00  0.00    +0.000 A 
ATOM     27  F   UNL     1       9.417   1.782  -3.891  0.00  0.00    +0.000 F 
BRANCH  24  28
ATOM     28  C   UNL     1      12.031  -1.386  -6.364  0.00  0.00    +0.000 C 
ATOM     29  N   UNL     1      12.347  -2.688  -6.663  0.00  0.00    +0.000 N 
ATOM     30  O   UNL     1      12.610  -0.475  -6.912  0.00  0.00    +0.000 OA
ATOM     31  H   UNL     1      11.919  -3.505  -6.266  0.00  0.00    +0.000 HD
ATOM     32  H   UNL     1      13.073  -2.821  -7.353  0.00  0.00    +0.000 HD
ENDBRANCH  24  28
ENDBRANCH  19  21
ENDBRANCH  18  19
ENDBRANCH   1  18
TORSDOF 6
