REMARK  Name = 
REMARK  4 active torsions:
REMARK  status: ('A' for Active; 'I' for Inactive)
REMARK    1  A    between atoms: C_2  and  C_3
REMARK    2  A    between atoms: C_6  and  N_7
REMARK    3  A    between atoms: N_7  and  C_8
REMARK    4  A    between atoms: C_8  and  C_9
REMARK                            x       y       z     vdW  Elec       q    Type
REMARK                         _______ _______ _______ _____ _____    ______ ____
ROOT
ATOM      1  N   UNL     1       7.549  -0.172  -0.372  0.00  0.00    +0.000 N 
ATOM      2  H   UNL     1       7.409   0.533  -1.095  0.00  0.00    +0.000 HD
ENDROOT
BRANCH   1   6
ATOM      3  C   UNL     1       5.867   1.411   3.036  0.00  0.00    +0.000 A 
ATOM      4  C   UNL     1       5.845   2.066   1.817  0.00  0.00    +0.000 A 
ATOM      5  N   UNL     1       6.434   1.556   0.701  0.00  0.00    +0.000 NA
ATOM      6  C   UNL     1       7.058   0.366   0.817  0.00  0.00    +0.000 A 
ATOM      7  C   UNL     1       7.082  -0.282   2.055  0.00  0.00    +0.000 A 
ATOM      8  N   UNL     1       6.497   0.219   3.185  0.00  0.00    +0.000 NA
BRANCH   3  10
ATOM      9  N   UNL     1       4.633   2.433   5.080  0.00  0.00    +0.000 NA
ATOM     10  C   UNL     1       5.196   1.961   4.180  0.00  0.00    +0.000 C 
ENDBRANCH   3  10
ENDBRANCH   1   6
BRANCH   1  11
ATOM     11  C   UNL     1       8.790  -0.959  -0.507  0.00  0.00    +0.000 C 
ATOM     12  C   UNL     1       8.688  -2.134  -1.483  0.00  0.00    +0.000 C 
ATOM     13  C   UNL     1       8.912  -2.397  -0.032  0.00  0.00    +0.000 C 
BRANCH  11  14
ATOM     14  C   UNL     1      10.107  -0.162  -0.579  0.00  0.00    +0.000 A 
ATOM     15  C   UNL     1      10.835   0.102   0.584  0.00  0.00    +0.000 A 
ATOM     16  C   UNL     1      12.161   0.515   0.489  0.00  0.00    +0.000 A 
ATOM     17  C   UNL     1      12.729   0.694  -0.765  0.00  0.00    +0.000 A 
ATOM     18  C   UNL     1      11.925   0.506  -1.873  0.00  0.00    +0.000 A 
ATOM     19  N   UNL     1      10.638   0.098  -1.806  0.00  0.00    +0.000 NA
ENDBRANCH  11  14
ENDBRANCH   1  11
TORSDOF 4
