REMARK  Name = 
REMARK  7 active torsions:
REMARK  status: ('A' for Active; 'I' for Inactive)
REMARK    1  A    between atoms: N_1  and  C_2
REMARK    2  A    between atoms: C_2  and  N_3
REMARK    3  A    between atoms: C_2  and  C_16
REMARK    4  A    between atoms: C_4  and  C_6
REMARK    5  A    between atoms: C_19  and  C_20
REMARK    6  A    between atoms: C_20  and  N_21
REMARK    7  A    between atoms: C_22  and  C_24
REMARK                            x       y       z     vdW  Elec       q    Type
REMARK                         _______ _______ _______ _____ _____    ______ ____
ROOT
ATOM      1  C   UNL     1       2.523  -0.110  -0.085  0.00  0.00    +0.000 C 
ENDROOT
BRANCH   1   2
ATOM      2  C   UNL     1       2.886   0.587   1.216  0.00  0.00    +0.000 A 
ATOM      3  C   UNL     1       2.852   1.984   1.317  0.00  0.00    +0.000 A 
ATOM      4  C   UNL     1       3.159   2.624   2.526  0.00  0.00    +0.000 A 
ATOM      5  C   UNL     1       3.520   1.882   3.659  0.00  0.00    +0.000 A 
ATOM      6  C   UNL     1       3.552   0.486   3.566  0.00  0.00    +0.000 A 
ATOM      7  C   UNL     1       3.247  -0.151   2.360  0.00  0.00    +0.000 A 
BRANCH   5   8
ATOM      8  C   UNL     1       3.841   2.563   4.965  0.00  0.00    +0.000 C 
BRANCH   8   9
ATOM      9  N   UNL     1       2.662   2.693   5.792  0.00  0.00    +0.000 N 
ATOM     10  C   UNL     1       2.728   3.249   7.052  0.00  0.00    +0.000 C 
ATOM     11  O   UNL     1       3.756   3.734   7.515  0.00  0.00    +0.000 OA
ATOM     12  H   UNL     1       1.798   2.301   5.446  0.00  0.00    +0.000 HD
BRANCH  10  13
ATOM     13  C   UNL     1       1.397   3.237   7.796  0.00  0.00    +0.000 C 
ATOM     14  C   UNL     1       1.449   3.887   9.162  0.00  0.00    +0.000 C 
ATOM     15  C   UNL     1       1.880   2.750  10.063  0.00  0.00    +0.000 C 
ATOM     16  O   UNL     1       1.354   1.548   9.487  0.00  0.00    +0.000 OA
ATOM     17  C   UNL     1       0.976   1.817   8.129  0.00  0.00    +0.000 C 
ENDBRANCH  10  13
ENDBRANCH   8   9
ENDBRANCH   5   8
ENDBRANCH   1   2
BRANCH   1  18
ATOM     18  N   UNL     1       1.515  -1.101   0.159  0.00  0.00    +0.000 N 
ATOM     19  C   UNL     1       0.938  -1.874  -0.816  0.00  0.00    +0.000 C 
ATOM     20  O   UNL     1       1.318  -1.859  -1.984  0.00  0.00    +0.000 OA
ATOM     21  H   UNL     1       0.932  -0.893   0.963  0.00  0.00    +0.000 HD
BRANCH  19  22
ATOM     22  C   UNL     1      -0.079  -2.822  -0.348  0.00  0.00    +0.000 A 
ATOM     23  C   UNL     1      -0.272  -4.020  -1.022  0.00  0.00    +0.000 A 
ATOM     24  S   UNL     1      -1.425  -5.038  -0.285  0.00  0.00    +0.000 S 
ATOM     25  C   UNL     1      -1.746  -3.891   0.929  0.00  0.00    +0.000 A 
ATOM     26  N   UNL     1      -2.668  -4.132   1.897  0.00  0.00    +0.000 NA
ATOM     27  C   UNL     1      -2.830  -3.162   2.736  0.00  0.00    +0.000 A 
ATOM     28  N   UNL     1      -2.149  -1.972   2.695  0.00  0.00    +0.000 N 
ATOM     29  C   UNL     1      -1.187  -1.696   1.750  0.00  0.00    +0.000 A 
ATOM     30  O   UNL     1      -0.560  -0.642   1.761  0.00  0.00    +0.000 OA
ATOM     31  C   UNL     1      -0.975  -2.752   0.781  0.00  0.00    +0.000 A 
ATOM     32  H   UNL     1      -2.320  -1.256   3.383  0.00  0.00    +0.000 HD
ENDBRANCH  19  22
ENDBRANCH   1  18
BRANCH   1  33
ATOM     33  N   UNL     1       3.667  -0.806  -0.631  0.00  0.00    +0.000 NA
ATOM     34  H   UNL     1       3.344  -1.255  -1.492  0.00  0.00    +0.000 HD
ATOM     35  H   UNL     1       3.894  -1.573  -0.006  0.00  0.00    +0.000 HD
ENDBRANCH   1  33
TORSDOF 7
