REMARK  Name = 
REMARK  4 active torsions:
REMARK  status: ('A' for Active; 'I' for Inactive)
REMARK    1  A    between atoms: C_2  and  C_4
REMARK    2  A    between atoms: C_7  and  C_8
REMARK    3  A    between atoms: C_8  and  N_9
REMARK    4  A    between atoms: N_9  and  C_10
REMARK                            x       y       z     vdW  Elec       q    Type
REMARK                         _______ _______ _______ _____ _____    ______ ____
ROOT
ATOM      1  N   UNL     1       4.757   4.900   3.373  0.00  0.00    +0.000 N 
ATOM      2  H   UNL     1       4.839   3.951   3.734  0.00  0.00    +0.000 HD
ENDROOT
BRANCH   1   3
ATOM      3  C   UNL     1       5.500   5.804   4.146  0.00  0.00    +0.000 A 
ATOM      4  C   UNL     1       5.911   7.053   3.705  0.00  0.00    +0.000 A 
ATOM      5  C   UNL     1       6.534   7.901   4.607  0.00  0.00    +0.000 A 
ATOM      6  N   UNL     1       6.748   7.603   5.907  0.00  0.00    +0.000 NA
ATOM      7  C   UNL     1       6.340   6.403   6.360  0.00  0.00    +0.000 A 
ATOM      8  N   UNL     1       6.499   6.100   7.688  0.00  0.00    +0.000 N 
ATOM      9  C   UNL     1       6.772   4.753   8.189  0.00  0.00    +0.000 C 
ATOM     10  C   UNL     1       5.874   4.511   9.412  0.00  0.00    +0.000 C 
ATOM     11  O   UNL     1       6.089   5.512  10.424  0.00  0.00    +0.000 OA
ATOM     12  C   UNL     1       5.829   6.831   9.901  0.00  0.00    +0.000 C 
ATOM     13  C   UNL     1       6.716   7.156   8.681  0.00  0.00    +0.000 C 
ATOM     14  C   UNL     1       5.695   5.510   5.500  0.00  0.00    +0.000 A 
ENDBRANCH   1   3
BRANCH   1  15
ATOM     15  C   UNL     1       4.938   4.905   1.920  0.00  0.00    +0.000 C 
BRANCH  15  19
ATOM     16  C   UNL     1       2.518   1.913   0.057  0.00  0.00    +0.000 A 
ATOM     17  C   UNL     1       1.892   2.949   0.749  0.00  0.00    +0.000 A 
ATOM     18  C   UNL     1       2.674   3.925   1.367  0.00  0.00    +0.000 A 
ATOM     19  C   UNL     1       4.065   3.843   1.275  0.00  0.00    +0.000 A 
ATOM     20  N   UNL     1       4.689   2.829   0.623  0.00  0.00    +0.000 NA
ATOM     21  C   UNL     1       3.906   1.887   0.037  0.00  0.00    +0.000 A 
BRANCH  16  23
ATOM     22  N   UNL     1       0.518   1.131  -1.080  0.00  0.00    +0.000 N 
ATOM     23  C   UNL     1       1.778   0.839  -0.634  0.00  0.00    +0.000 C 
ATOM     24  O   UNL     1       2.281  -0.258  -0.834  0.00  0.00    +0.000 OA
ATOM     25  H   UNL     1       0.066   0.419  -1.641  0.00  0.00    +0.000 HD
ATOM     26  H   UNL     1       0.172   2.076  -1.157  0.00  0.00    +0.000 HD
ENDBRANCH  16  23
ENDBRANCH  15  19
ENDBRANCH   1  15
TORSDOF 4
