REMARK  Name = 
REMARK  6 active torsions:
REMARK  status: ('A' for Active; 'I' for Inactive)
REMARK    1  A    between atoms: C_2  and  C_25
REMARK    2  A    between atoms: N_3  and  C_4
REMARK    3  A    between atoms: C_4  and  C_5
REMARK    4  A    between atoms: C_8  and  C_9
REMARK    5  A    between atoms: C_9  and  N_10
REMARK    6  A    between atoms: C_11  and  C_13
REMARK                            x       y       z     vdW  Elec       q    Type
REMARK                         _______ _______ _______ _____ _____    ______ ____
ROOT
ATOM      1  C   UNL     1       3.273   0.922   3.538  0.00  0.00    +0.000 A 
ATOM      2  C   UNL     1       3.490   2.258   3.882  0.00  0.00    +0.000 A 
ATOM      3  C   UNL     1       4.351   2.576   4.929  0.00  0.00    +0.000 A 
ATOM      4  C   UNL     1       4.982   1.543   5.618  0.00  0.00    +0.000 A 
ATOM      5  N   UNL     1       4.825   0.240   5.271  0.00  0.00    +0.000 NA
ATOM      6  C   UNL     1       3.985  -0.039   4.246  0.00  0.00    +0.000 A 
ENDROOT
BRANCH   1   7
ATOM      7  C   UNL     1       2.312   0.539   2.454  0.00  0.00    +0.000 C 
BRANCH   7  10
ATOM      8  O   UNL     1       1.044  -0.181   0.089  0.00  0.00    +0.000 OA
ATOM      9  C   UNL     1       2.218   0.175   0.034  0.00  0.00    +0.000 C 
ATOM     10  N   UNL     1       2.933   0.535   1.154  0.00  0.00    +0.000 N 
ATOM     11  H   UNL     1       3.828   0.987   1.040  0.00  0.00    +0.000 HD
BRANCH   9  12
ATOM     12  C   UNL     1       2.945   0.264  -1.211  0.00  0.00    +0.000 A 
ATOM     13  C   UNL     1       4.284   0.506  -1.489  0.00  0.00    +0.000 A 
ATOM     14  C   UNL     1       4.455   0.478  -2.894  0.00  0.00    +0.000 A 
ATOM     15  C   UNL     1       3.227   0.215  -3.450  0.00  0.00    +0.000 A 
ATOM     16  N   UNL     1       2.324   0.074  -2.430  0.00  0.00    +0.000 N 
ATOM     17  H   UNL     1       1.338  -0.136  -2.531  0.00  0.00    +0.000 HD
ENDBRANCH   9  12
ENDBRANCH   7  10
ENDBRANCH   1   7
BRANCH   4  18
ATOM     18  C   UNL     1       5.877   1.849   6.794  0.00  0.00    +0.000 C 
BRANCH  18  19
ATOM     19  N   UNL     1       7.255   2.041   6.405  0.00  0.00    +0.000 N 
ATOM     20  C   UNL     1       7.807   3.280   6.228  0.00  0.00    +0.000 C 
ATOM     21  O   UNL     1       7.156   4.310   6.378  0.00  0.00    +0.000 OA
ATOM     22  H   UNL     1       7.735   1.214   6.062  0.00  0.00    +0.000 HD
BRANCH  20  23
ATOM     23  C   UNL     1       9.243   3.320   5.919  0.00  0.00    +0.000 A 
ATOM     24  C   UNL     1       9.974   4.466   6.204  0.00  0.00    +0.000 A 
ATOM     25  S   UNL     1      11.629   4.337   5.816  0.00  0.00    +0.000 S 
ATOM     26  C   UNL     1      11.421   2.760   5.213  0.00  0.00    +0.000 A 
ATOM     27  N   UNL     1      12.467   2.069   4.685  0.00  0.00    +0.000 NA
ATOM     28  C   UNL     1      12.160   0.898   4.235  0.00  0.00    +0.000 A 
ATOM     29  N   UNL     1      10.904   0.351   4.276  0.00  0.00    +0.000 N 
ATOM     30  C   UNL     1       9.831   0.989   4.849  0.00  0.00    +0.000 A 
ATOM     31  O   UNL     1       8.743   0.434   4.951  0.00  0.00    +0.000 OA
ATOM     32  C   UNL     1      10.112   2.326   5.334  0.00  0.00    +0.000 A 
ATOM     33  H   UNL     1      10.734  -0.582   3.930  0.00  0.00    +0.000 HD
ENDBRANCH  20  23
ENDBRANCH  18  19
ENDBRANCH   4  18
TORSDOF 6
