REMARK  Name = 
REMARK  5 active torsions:
REMARK  status: ('A' for Active; 'I' for Inactive)
REMARK    1  A    between atoms: N_1  and  C_2
REMARK    2  A    between atoms: C_2  and  C_3
REMARK    3  A    between atoms: N_7  and  C_8
REMARK    4  A    between atoms: C_13  and  C_14
REMARK    5  A    between atoms: C_14  and  O_15
REMARK                            x       y       z     vdW  Elec       q    Type
REMARK                         _______ _______ _______ _____ _____    ______ ____
ROOT
ATOM      1  C   UNL     1       6.538   1.433   5.601  0.00  0.00    +0.000 A 
ATOM      2  C   UNL     1       6.472   2.777   5.961  0.00  0.00    +0.000 A 
ATOM      3  C   UNL     1       5.512   3.610   5.382  0.00  0.00    +0.000 A 
ATOM      4  C   UNL     1       4.639   3.099   4.431  0.00  0.00    +0.000 A 
ATOM      5  N   UNL     1       3.653   3.824   3.815  0.00  0.00    +0.000 N 
ATOM      6  N   UNL     1       4.687   1.802   4.072  0.00  0.00    +0.000 NA
ATOM      7  C   UNL     1       5.615   1.003   4.659  0.00  0.00    +0.000 A 
ATOM      8  H   UNL     1       3.219   3.301   3.063  0.00  0.00    +0.000 HD
ENDROOT
BRANCH   5   9
ATOM      9  C   UNL     1       3.462   5.247   3.899  0.00  0.00    +0.000 C 
ATOM     10  C   UNL     1       4.306   6.029   2.876  0.00  0.00    +0.000 C 
ATOM     11  C   UNL     1       3.510   7.306   2.551  0.00  0.00    +0.000 C 
ATOM     12  C   UNL     1       2.100   6.825   2.756  0.00  0.00    +0.000 A 
ATOM     13  N   UNL     1       1.007   7.481   2.345  0.00  0.00    +0.000 NA
ATOM     14  C   UNL     1      -0.166   6.883   2.676  0.00  0.00    +0.000 A 
ATOM     15  N   UNL     1      -0.282   5.723   3.370  0.00  0.00    +0.000 NA
ATOM     16  C   UNL     1       0.863   5.129   3.771  0.00  0.00    +0.000 A 
ATOM     17  C   UNL     1       2.087   5.653   3.484  0.00  0.00    +0.000 A 
BRANCH  14  18
ATOM     18  C   UNL     1      -1.445   7.589   2.269  0.00  0.00    +0.000 C 
BRANCH  18  19
ATOM     19  O   UNL     1      -1.205   8.842   1.616  0.00  0.00    +0.000 OA
ATOM     20  H   UNL     1      -0.233   8.958   1.640  0.00  0.00    +0.000 HD
ENDBRANCH  18  19
ENDBRANCH  14  18
ENDBRANCH   5   9
BRANCH   1  21
ATOM     21  C   UNL     1       7.581   0.510   6.161  0.00  0.00    +0.000 C 
BRANCH  21  22
ATOM     22  N   UNL     1       7.538   0.451   7.619  0.00  0.00    +0.000 NA
ATOM     23  H   UNL     1       8.205  -0.247   7.944  0.00  0.00    +0.000 HD
ATOM     24  H   UNL     1       6.618   0.126   7.912  0.00  0.00    +0.000 HD
ENDBRANCH  21  22
ENDBRANCH   1  21
TORSDOF 5
