REMARK  Name = 
REMARK  8 active torsions:
REMARK  status: ('A' for Active; 'I' for Inactive)
REMARK    1  A    between atoms: C_2  and  C_3
REMARK    2  A    between atoms: C_3  and  O_4
REMARK    3  A    between atoms: O_4  and  C_5
REMARK    4  A    between atoms: C_7  and  C_8
REMARK    5  A    between atoms: C_8  and  N_9
REMARK    6  A    between atoms: N_9  and  C_10
REMARK    7  A    between atoms: C_13  and  C_14
REMARK    8  A    between atoms: C_22  and  C_23
REMARK                            x       y       z     vdW  Elec       q    Type
REMARK                         _______ _______ _______ _____ _____    ______ ____
ROOT
ATOM      1  N   UNL     1       9.830  -0.280  -2.633  0.00  0.00    +0.000 N 
ATOM      2  H   UNL     1       9.636  -0.143  -1.644  0.00  0.00    +0.000 HD
ENDROOT
BRANCH   1   3
ATOM      3  C   UNL     1      11.015  -0.997  -2.737  0.00  0.00    +0.000 A 
ATOM      4  N   UNL     1      11.738  -1.055  -1.593  0.00  0.00    +0.000 NA
ATOM      5  C   UNL     1      12.954  -1.674  -1.627  0.00  0.00    +0.000 A 
ATOM      6  C   UNL     1      13.502  -2.266  -2.755  0.00  0.00    +0.000 A 
ATOM      7  C   UNL     1      12.746  -2.213  -3.923  0.00  0.00    +0.000 A 
ATOM      8  C   UNL     1      11.510  -1.568  -3.915  0.00  0.00    +0.000 A 
ATOM      9  F   UNL     1      10.824  -1.521  -5.065  0.00  0.00    +0.000 F 
BRANCH   6  10
ATOM     10  C   UNL     1      14.824  -2.938  -2.789  0.00  0.00    +0.000 C 
ATOM     11  N   UNL     1      15.587  -2.976  -1.656  0.00  0.00    +0.000 N 
ATOM     12  O   UNL     1      15.240  -3.458  -3.819  0.00  0.00    +0.000 OA
ATOM     13  H   UNL     1      15.352  -2.577  -0.761  0.00  0.00    +0.000 HD
ATOM     14  H   UNL     1      16.482  -3.445  -1.734  0.00  0.00    +0.000 HD
ENDBRANCH   6  10
ENDBRANCH   1   3
BRANCH   1  15
ATOM     15  C   UNL     1       8.686  -0.655  -3.444  0.00  0.00    +0.000 C 
BRANCH  15  18
ATOM     16  C   UNL     1       5.423   0.785  -1.978  0.00  0.00    +0.000 A 
ATOM     17  C   UNL     1       6.554  -0.032  -2.189  0.00  0.00    +0.000 A 
ATOM     18  C   UNL     1       7.509   0.266  -3.178  0.00  0.00    +0.000 A 
ATOM     19  C   UNL     1       7.336   1.427  -3.940  0.00  0.00    +0.000 A 
ATOM     20  C   UNL     1       6.233   2.258  -3.725  0.00  0.00    +0.000 A 
ATOM     21  C   UNL     1       5.276   1.954  -2.741  0.00  0.00    +0.000 A 
BRANCH  21  22
ATOM     22  C   UNL     1       4.207   2.901  -2.583  0.00  0.00    +0.000 C 
ATOM     23  N   UNL     1       3.334   3.656  -2.486  0.00  0.00    +0.000 NA
ENDBRANCH  21  22
BRANCH  16  24
ATOM     24  O   UNL     1       4.595   0.311  -0.987  0.00  0.00    +0.000 OA
BRANCH  24  25
ATOM     25  C   UNL     1       3.204   0.623  -1.086  0.00  0.00    +0.000 C 
BRANCH  25  27
ATOM     26  C   UNL     1       1.488  -1.195  -0.995  0.00  0.00    +0.000 C 
ATOM     27  C   UNL     1       2.406  -0.433  -0.383  0.00  0.00    +0.000 C 
ENDBRANCH  25  27
ENDBRANCH  24  25
ENDBRANCH  16  24
ENDBRANCH  15  18
ENDBRANCH   1  15
TORSDOF 8
