REMARK  Name = 
REMARK  10 active torsions:
REMARK  status: ('A' for Active; 'I' for Inactive)
REMARK    1  A    between atoms: N_1  and  C_2
REMARK    2  A    between atoms: C_2  and  C_3
REMARK    3  A    between atoms: C_3  and  N_4
REMARK    4  A    between atoms: N_4  and  C_5
REMARK    5  A    between atoms: C_5  and  C_6
REMARK    6  A    between atoms: C_9  and  C_10
REMARK    7  A    between atoms: C_10  and  C_11
REMARK    8  A    between atoms: C_14  and  C_15
REMARK    9  A    between atoms: C_15  and  N_16
REMARK   10  A    between atoms: C_17  and  C_19
REMARK                            x       y       z     vdW  Elec       q    Type
REMARK                         _______ _______ _______ _____ _____    ______ ____
ROOT
ATOM      1  C   UNL     1      11.302  -2.565   3.537  0.00  0.00    +0.000 A 
ATOM      2  C   UNL     1      10.967  -3.888   3.820  0.00  0.00    +0.000 A 
ATOM      3  C   UNL     1      11.493  -4.486   4.965  0.00  0.00    +0.000 A 
ATOM      4  C   UNL     1      12.320  -3.750   5.816  0.00  0.00    +0.000 A 
ATOM      5  C   UNL     1      12.625  -2.448   5.432  0.00  0.00    +0.000 A 
ATOM      6  N   UNL     1      12.141  -1.845   4.325  0.00  0.00    +0.000 NA
ENDROOT
BRANCH   1   7
ATOM      7  C   UNL     1      10.697  -1.856   2.345  0.00  0.00    +0.000 C 
BRANCH   7  11
ATOM      8  C   UNL     1       6.871   0.026   3.180  0.00  0.00    +0.000 A 
ATOM      9  C   UNL     1       8.027   0.403   3.881  0.00  0.00    +0.000 A 
ATOM     10  C   UNL     1       9.256  -0.198   3.602  0.00  0.00    +0.000 A 
ATOM     11  C   UNL     1       9.359  -1.210   2.638  0.00  0.00    +0.000 A 
ATOM     12  C   UNL     1       8.206  -1.591   1.941  0.00  0.00    +0.000 A 
ATOM     13  C   UNL     1       6.977  -0.976   2.208  0.00  0.00    +0.000 A 
BRANCH   8  14
ATOM     14  C   UNL     1       5.538   0.671   3.486  0.00  0.00    +0.000 C 
BRANCH  14  15
ATOM     15  N   UNL     1       5.574   2.114   3.247  0.00  0.00    +0.000 NA
ATOM     16  H   UNL     1       6.274   2.520   3.867  0.00  0.00    +0.000 HD
BRANCH  15  17
ATOM     17  C   UNL     1       4.286   2.739   3.572  0.00  0.00    +0.000 C 
BRANCH  17  18
ATOM     18  C   UNL     1       4.353   4.266   3.366  0.00  0.00    +0.000 C 
BRANCH  18  19
ATOM     19  N   UNL     1       5.408   4.891   4.174  0.00  0.00    +0.000 NA
ATOM     20  H   UNL     1       5.414   5.892   3.980  0.00  0.00    +0.000 HD
ATOM     21  H   UNL     1       6.308   4.550   3.837  0.00  0.00    +0.000 HD
ENDBRANCH  18  19
ENDBRANCH  17  18
ENDBRANCH  15  17
ENDBRANCH  14  15
ENDBRANCH   8  14
ENDBRANCH   7  11
ENDBRANCH   1   7
BRANCH   4  22
ATOM     22  C   UNL     1      12.900  -4.336   7.067  0.00  0.00    +0.000 C 
BRANCH  22  23
ATOM     23  N   UNL     1      14.180  -4.945   6.813  0.00  0.00    +0.000 N 
ATOM     24  C   UNL     1      14.855  -5.618   7.798  0.00  0.00    +0.000 C 
ATOM     25  O   UNL     1      14.376  -5.786   8.916  0.00  0.00    +0.000 OA
ATOM     26  H   UNL     1      14.688  -4.631   5.991  0.00  0.00    +0.000 HD
BRANCH  24  27
ATOM     27  C   UNL     1      16.157  -6.186   7.427  0.00  0.00    +0.000 A 
ATOM     28  C   UNL     1      16.674  -7.251   8.153  0.00  0.00    +0.000 A 
ATOM     29  S   UNL     1      18.166  -7.824   7.560  0.00  0.00    +0.000 S 
ATOM     30  C   UNL     1      18.201  -6.635   6.344  0.00  0.00    +0.000 A 
ATOM     31  N   UNL     1      19.247  -6.551   5.478  0.00  0.00    +0.000 NA
ATOM     32  C   UNL     1      19.161  -5.582   4.628  0.00  0.00    +0.000 A 
ATOM     33  N   UNL     1      18.118  -4.695   4.560  0.00  0.00    +0.000 N 
ATOM     34  C   UNL     1      17.026  -4.761   5.392  0.00  0.00    +0.000 A 
ATOM     35  O   UNL     1      16.086  -3.981   5.277  0.00  0.00    +0.000 OA
ATOM     36  C   UNL     1      17.080  -5.824   6.378  0.00  0.00    +0.000 A 
ATOM     37  H   UNL     1      18.106  -3.964   3.864  0.00  0.00    +0.000 HD
ENDBRANCH  24  27
ENDBRANCH  22  23
ENDBRANCH   4  22
TORSDOF 10
