REMARK  Name = 
REMARK  5 active torsions:
REMARK  status: ('A' for Active; 'I' for Inactive)
REMARK    1  A    between atoms: C_1  and  C_2
REMARK    2  A    between atoms: C_2  and  C_3
REMARK    3  A    between atoms: C_2  and  N_4
REMARK    4  A    between atoms: C_2  and  C_14
REMARK    5  A    between atoms: C_8  and  C_9
REMARK                            x       y       z     vdW  Elec       q    Type
REMARK                         _______ _______ _______ _____ _____    ______ ____
ROOT
ATOM      1  N   UNL     1       2.772  -0.780   1.098  0.00  0.00    +0.000 N 
ATOM      2  C   UNL     1       2.305  -0.497   2.384  0.00  0.00    +0.000 A 
ATOM      3  C   UNL     1       2.634  -1.356   3.429  0.00  0.00    +0.000 A 
ATOM      4  C   UNL     1       2.167  -1.094   4.722  0.00  0.00    +0.000 A 
ATOM      5  C   UNL     1       1.378   0.031   4.957  0.00  0.00    +0.000 A 
ATOM      6  C   UNL     1       1.085   0.822   3.865  0.00  0.00    +0.000 A 
ATOM      7  N   UNL     1       1.520   0.571   2.606  0.00  0.00    +0.000 NA
ATOM      8  H   UNL     1       3.775  -0.942   1.138  0.00  0.00    +0.000 HD
ENDROOT
BRANCH   5   9
ATOM      9  C   UNL     1       0.893   0.327   6.329  0.00  0.00    +0.000 C 
ATOM     10  N   UNL     1       0.151   1.453   6.543  0.00  0.00    +0.000 N 
ATOM     11  O   UNL     1       1.157  -0.423   7.263  0.00  0.00    +0.000 OA
ATOM     12  H   UNL     1      -0.108   2.139   5.854  0.00  0.00    +0.000 HD
ATOM     13  H   UNL     1      -0.153   1.618   7.495  0.00  0.00    +0.000 HD
ENDBRANCH   5   9
BRANCH   1  15
ATOM     14  C   UNL     1       0.889   0.155  -0.259  0.00  0.00    +0.000 C 
ATOM     15  C   UNL     1       2.416   0.090  -0.050  0.00  0.00    +0.000 C 
ATOM     16  C   UNL     1       3.012   1.501   0.158  0.00  0.00    +0.000 C 
BRANCH  15  17
ATOM     17  C   UNL     1       2.976  -0.572  -1.341  0.00  0.00    +0.000 A 
ATOM     18  C   UNL     1       3.398   0.193  -2.445  0.00  0.00    +0.000 A 
ATOM     19  C   UNL     1       3.789  -0.411  -3.644  0.00  0.00    +0.000 A 
ATOM     20  C   UNL     1       3.766  -1.799  -3.774  0.00  0.00    +0.000 A 
ATOM     21 CL   UNL     1       4.231  -2.472  -5.295  0.00  0.00    +0.000 Cl
ATOM     22  C   UNL     1       3.356  -2.585  -2.694  0.00  0.00    +0.000 A 
ATOM     23 CL   UNL     1       3.290  -4.310  -2.781  0.00  0.00    +0.000 Cl
ATOM     24  C   UNL     1       2.962  -1.975  -1.495  0.00  0.00    +0.000 A 
ENDBRANCH  15  17
ENDBRANCH   1  15
TORSDOF 3
