REMARK  Name = 
REMARK  7 active torsions:
REMARK  status: ('A' for Active; 'I' for Inactive)
REMARK    1  A    between atoms: C_1  and  C_2
REMARK    2  A    between atoms: C_2  and  N_3
REMARK    3  A    between atoms: C_2  and  C_16
REMARK    4  A    between atoms: C_4  and  C_6
REMARK    5  A    between atoms: C_19  and  C_20
REMARK    6  A    between atoms: C_20  and  O_21
REMARK    7  A    between atoms: O_21  and  C_22
REMARK                            x       y       z     vdW  Elec       q    Type
REMARK                         _______ _______ _______ _____ _____    ______ ____
ROOT
ATOM      1  C   UNL     1       3.820  -0.790  -0.245  0.00  0.00    +0.000 C 
ATOM      2  C   UNL     1       2.571   0.066  -0.002  0.00  0.00    +0.000 C 
ENDROOT
BRANCH   2   3
ATOM      3  C   UNL     1       2.928   1.287   0.833  0.00  0.00    +0.000 A 
ATOM      4  C   UNL     1       2.780   2.576   0.306  0.00  0.00    +0.000 A 
ATOM      5  C   UNL     1       3.040   3.700   1.095  0.00  0.00    +0.000 A 
ATOM      6  C   UNL     1       3.451   3.561   2.426  0.00  0.00    +0.000 A 
ATOM      7  C   UNL     1       3.632   2.276   2.948  0.00  0.00    +0.000 A 
ATOM      8  C   UNL     1       3.372   1.152   2.160  0.00  0.00    +0.000 A 
BRANCH   6   9
ATOM      9  C   UNL     1       3.657   4.780   3.293  0.00  0.00    +0.000 C 
BRANCH   9  10
ATOM     10  O   UNL     1       2.791   4.758   4.436  0.00  0.00    +0.000 OA
BRANCH  10  11
ATOM     11  C   UNL     1       1.505   5.134   4.204  0.00  0.00    +0.000 C 
ATOM     12  O   UNL     1       1.069   5.505   3.122  0.00  0.00    +0.000 OA
ATOM     13  N   UNL     1       0.745   5.050   5.333  0.00  0.00    +0.000 N 
ATOM     14  C   UNL     1       1.164   4.610   6.629  0.00  0.00    +0.000 C 
ATOM     15  C   UNL     1       0.046   5.127   7.502  0.00  0.00    +0.000 C 
ATOM     16  O   UNL     1      -1.120   5.182   6.658  0.00  0.00    +0.000 OA
ATOM     17  C   UNL     1      -0.676   5.166   5.294  0.00  0.00    +0.000 C 
ENDBRANCH  10  11
ENDBRANCH   9  10
ENDBRANCH   6   9
ENDBRANCH   2   3
BRANCH   2  18
ATOM     18  N   UNL     1       1.500  -0.666   0.662  0.00  0.00    +0.000 N 
ATOM     19  C   UNL     1       0.909  -1.782   0.124  0.00  0.00    +0.000 C 
ATOM     20  O   UNL     1       1.276  -2.285  -0.933  0.00  0.00    +0.000 OA
ATOM     21  H   UNL     1       0.959  -0.131   1.336  0.00  0.00    +0.000 HD
BRANCH  19  22
ATOM     22  C   UNL     1      -0.153  -2.403   0.925  0.00  0.00    +0.000 A 
ATOM     23  C   UNL     1      -0.372  -3.770   0.831  0.00  0.00    +0.000 A 
ATOM     24  S   UNL     1      -1.625  -4.334   1.841  0.00  0.00    +0.000 S 
ATOM     25  C   UNL     1      -1.951  -2.761   2.403  0.00  0.00    +0.000 A 
ATOM     26  N   UNL     1      -2.960  -2.529   3.285  0.00  0.00    +0.000 NA
ATOM     27  C   UNL     1      -3.122  -1.285   3.593  0.00  0.00    +0.000 A 
ATOM     28  N   UNL     1      -2.355  -0.255   3.112  0.00  0.00    +0.000 N 
ATOM     29  C   UNL     1      -1.295  -0.450   2.259  0.00  0.00    +0.000 A 
ATOM     30  O   UNL     1      -0.575   0.480   1.905  0.00  0.00    +0.000 OA
ATOM     31  C   UNL     1      -1.095  -1.825   1.852  0.00  0.00    +0.000 A 
ATOM     32  H   UNL     1      -2.524   0.695   3.407  0.00  0.00    +0.000 HD
ENDBRANCH  19  22
ENDBRANCH   2  18
TORSDOF 6
