REMARK  Name = 
REMARK  7 active torsions:
REMARK  status: ('A' for Active; 'I' for Inactive)
REMARK    1  A    between atoms: C_2  and  C_3
REMARK    2  A    between atoms: C_7  and  N_8
REMARK    3  A    between atoms: N_8  and  C_9
REMARK    4  A    between atoms: C_9  and  C_10
REMARK    5  A    between atoms: C_13  and  C_14
REMARK    6  A    between atoms: C_14  and  N_15
REMARK    7  A    between atoms: C_16  and  C_18
REMARK                            x       y       z     vdW  Elec       q    Type
REMARK                         _______ _______ _______ _____ _____    ______ ____
ROOT
ATOM      1  C   UNL     1      -4.017  -4.024  -0.006  0.00  0.00    +0.000 A 
ATOM      2  C   UNL     1      -3.150  -5.029  -0.456  0.00  0.00    +0.000 A 
ATOM      3  C   UNL     1      -3.534  -6.374  -0.412  0.00  0.00    +0.000 A 
ATOM      4  C   UNL     1      -4.801  -6.739   0.062  0.00  0.00    +0.000 A 
ATOM      5  C   UNL     1      -5.667  -5.734   0.511  0.00  0.00    +0.000 A 
ATOM      6  C   UNL     1      -5.284  -4.390   0.466  0.00  0.00    +0.000 A 
ENDROOT
BRANCH   1   7
ATOM      7  C   UNL     1      -3.593  -2.574  -0.020  0.00  0.00    +0.000 C 
BRANCH   7   8
ATOM      8  N   UNL     1      -3.974  -1.935  -1.254  0.00  0.00    +0.000 N 
ATOM      9  H   UNL     1      -4.449  -2.470  -1.970  0.00  0.00    +0.000 HD
BRANCH   8  14
ATOM     10  C   UNL     1      -4.100   1.090  -3.095  0.00  0.00    +0.000 A 
ATOM     11  C   UNL     1      -3.471   2.033  -2.296  0.00  0.00    +0.000 A 
ATOM     12  C   UNL     1      -2.987   1.615  -1.066  0.00  0.00    +0.000 A 
ATOM     13  C   UNL     1      -3.149   0.282  -0.690  0.00  0.00    +0.000 A 
ATOM     14  C   UNL     1      -3.785  -0.612  -1.547  0.00  0.00    +0.000 A 
ATOM     15  N   UNL     1      -4.259  -0.212  -2.742  0.00  0.00    +0.000 NA
BRANCH  10  17
ATOM     16  N   UNL     1      -5.054   1.823  -5.400  0.00  0.00    +0.000 NA
ATOM     17  C   UNL     1      -4.635   1.466  -4.374  0.00  0.00    +0.000 C 
ENDBRANCH  10  17
ENDBRANCH   8  14
ENDBRANCH   7   8
ENDBRANCH   1   7
BRANCH   4  18
ATOM     18  C   UNL     1      -5.218  -8.186   0.124  0.00  0.00    +0.000 C 
BRANCH  18  19
ATOM     19  N   UNL     1      -4.860  -8.781   1.387  0.00  0.00    +0.000 N 
ATOM     20  C   UNL     1      -5.077 -10.115   1.627  0.00  0.00    +0.000 C 
ATOM     21  O   UNL     1      -5.543 -10.861   0.770  0.00  0.00    +0.000 OA
ATOM     22  H   UNL     1      -4.693  -8.152   2.166  0.00  0.00    +0.000 HD
BRANCH  20  23
ATOM     23  C   UNL     1      -4.664 -10.624   2.942  0.00  0.00    +0.000 A 
ATOM     24  C   UNL     1      -4.399 -11.978   3.099  0.00  0.00    +0.000 A 
ATOM     25  S   UNL     1      -3.882 -12.398   4.668  0.00  0.00    +0.000 S 
ATOM     26  C   UNL     1      -4.045 -10.794   5.209  0.00  0.00    +0.000 A 
ATOM     27  N   UNL     1      -3.777 -10.462   6.501  0.00  0.00    +0.000 NA
ATOM     28  C   UNL     1      -3.976  -9.218   6.784  0.00  0.00    +0.000 A 
ATOM     29  N   UNL     1      -4.412  -8.274   5.890  0.00  0.00    +0.000 N 
ATOM     30  C   UNL     1      -4.663  -8.556   4.568  0.00  0.00    +0.000 A 
ATOM     31  O   UNL     1      -5.006  -7.677   3.784  0.00  0.00    +0.000 OA
ATOM     32  C   UNL     1      -4.470  -9.946   4.201  0.00  0.00    +0.000 A 
ATOM     33  H   UNL     1      -4.540  -7.314   6.174  0.00  0.00    +0.000 HD
ENDBRANCH  20  23
ENDBRANCH  18  19
ENDBRANCH   4  18
TORSDOF 7
