REMARK  Name = 
REMARK  5 active torsions:
REMARK  status: ('A' for Active; 'I' for Inactive)
REMARK    1  A    between atoms: C_2  and  C_3
REMARK    2  A    between atoms: C_5  and  N_6
REMARK    3  A    between atoms: C_5  and  C_17
REMARK    4  A    between atoms: N_6  and  C_7
REMARK    5  A    between atoms: C_10  and  C_11
REMARK                            x       y       z     vdW  Elec       q    Type
REMARK                         _______ _______ _______ _____ _____    ______ ____
ROOT
ATOM      1  N   UNL     1       5.811  -0.091   2.664  0.00  0.00    +0.000 N 
ATOM      2  H   UNL     1       5.515   0.730   3.186  0.00  0.00    +0.000 HD
ENDROOT
BRANCH   1   3
ATOM      3  C   UNL     1       5.971  -1.113   3.602  0.00  0.00    +0.000 A 
ATOM      4  N   UNL     1       5.802  -0.700   4.881  0.00  0.00    +0.000 NA
ATOM      5  C   UNL     1       5.886  -1.627   5.874  0.00  0.00    +0.000 A 
ATOM      6  C   UNL     1       6.113  -2.977   5.658  0.00  0.00    +0.000 A 
ATOM      7  C   UNL     1       6.305  -3.384   4.338  0.00  0.00    +0.000 A 
ATOM      8  C   UNL     1       6.256  -2.445   3.310  0.00  0.00    +0.000 A 
ATOM      9  F   UNL     1       6.467  -2.863   2.056  0.00  0.00    +0.000 F 
BRANCH   6  10
ATOM     10  C   UNL     1       6.158  -3.991   6.738  0.00  0.00    +0.000 C 
ATOM     11  N   UNL     1       6.006  -3.597   8.038  0.00  0.00    +0.000 N 
ATOM     12  O   UNL     1       6.332  -5.176   6.474  0.00  0.00    +0.000 OA
ATOM     13  H   UNL     1       5.861  -2.661   8.369  0.00  0.00    +0.000 HD
ATOM     14  H   UNL     1       6.043  -4.336   8.734  0.00  0.00    +0.000 HD
ENDBRANCH   6  10
ENDBRANCH   1   3
BRANCH   1  17
ATOM     15  C   UNL     1       3.599  -0.011   0.145  0.00  0.00    +0.000 C 
ATOM     16  C   UNL     1       4.306  -1.129   0.937  0.00  0.00    +0.000 C 
ATOM     17  C   UNL     1       5.457  -0.123   1.271  0.00  0.00    +0.000 C 
ATOM     18  C   UNL     1       4.378   1.001   1.010  0.00  0.00    +0.000 C 
BRANCH  17  19
ATOM     19  C   UNL     1       6.765  -0.099   0.350  0.00  0.00    +0.000 A 
ATOM     20  C   UNL     1       7.252  -1.231  -0.330  0.00  0.00    +0.000 A 
ATOM     21  C   UNL     1       8.377  -1.175  -1.152  0.00  0.00    +0.000 A 
ATOM     22  C   UNL     1       9.015   0.039  -1.299  0.00  0.00    +0.000 A 
ATOM     23  N   UNL     1       8.609   1.163  -0.683  0.00  0.00    +0.000 NA
ATOM     24  C   UNL     1       7.518   1.061   0.120  0.00  0.00    +0.000 A 
ENDBRANCH  17  19
BRANCH  15  26
ATOM     25  N   UNL     1       1.005   0.058   0.397  0.00  0.00    +0.000 NA
ATOM     26  C   UNL     1       2.157   0.030   0.283  0.00  0.00    +0.000 C 
ENDBRANCH  15  26
ENDBRANCH   1  17
TORSDOF 5
