REMARK  Name = 
REMARK  7 active torsions:
REMARK  status: ('A' for Active; 'I' for Inactive)
REMARK    1  A    between atoms: C_1  and  N_2
REMARK    2  A    between atoms: N_2  and  C_3
REMARK    3  A    between atoms: C_3  and  C_4
REMARK    4  A    between atoms: C_7  and  C_8
REMARK    5  A    between atoms: C_8  and  N_9
REMARK    6  A    between atoms: C_10  and  C_12
REMARK    7  A    between atoms: C_24  and  C_26
REMARK                            x       y       z     vdW  Elec       q    Type
REMARK                         _______ _______ _______ _____ _____    ______ ____
ROOT
ATOM      1  C   UNL     1       2.233  -1.598   1.974  0.00  0.00    +0.000 A 
ATOM      2  C   UNL     1       2.309  -2.998   1.919  0.00  0.00    +0.000 A 
ATOM      3  C   UNL     1       1.529  -3.786   2.768  0.00  0.00    +0.000 A 
ATOM      4  C   UNL     1       0.650  -3.189   3.680  0.00  0.00    +0.000 A 
ATOM      5  C   UNL     1       0.597  -1.790   3.754  0.00  0.00    +0.000 A 
ATOM      6  C   UNL     1       1.372  -1.001   2.902  0.00  0.00    +0.000 A 
ENDROOT
BRANCH   1   7
ATOM      7  C   UNL     1       3.096  -0.754   1.072  0.00  0.00    +0.000 C 
BRANCH   7   9
ATOM      8  C   UNL     1       1.241  -0.782  -0.660  0.00  0.00    +0.000 C 
ATOM      9  N   UNL     1       2.561  -0.343  -0.231  0.00  0.00    +0.000 N 
ATOM     10  C   UNL     1       3.135   0.705  -0.974  0.00  0.00    +0.000 C 
ATOM     11  O   UNL     1       2.518   1.228  -1.901  0.00  0.00    +0.000 OA
BRANCH  10  12
ATOM     12  C   UNL     1       4.439   1.210  -0.610  0.00  0.00    +0.000 A 
ATOM     13  C   UNL     1       5.579   0.670  -0.043  0.00  0.00    +0.000 A 
ATOM     14  C   UNL     1       6.486   1.737   0.075  0.00  0.00    +0.000 A 
ATOM     15  N   UNL     1       6.000   2.868  -0.432  0.00  0.00    +0.000 NA
ATOM     16  N   UNL     1       4.791   2.509  -0.897  0.00  0.00    +0.000 N 
ATOM     17  H   UNL     1       4.223   3.202  -1.381  0.00  0.00    +0.000 HD
ENDBRANCH  10  12
ENDBRANCH   7   9
ENDBRANCH   1   7
BRANCH   4  18
ATOM     18  C   UNL     1      -0.210  -4.029   4.585  0.00  0.00    +0.000 C 
BRANCH  18  19
ATOM     19  N   UNL     1       0.455  -4.319   5.828  0.00  0.00    +0.000 N 
ATOM     20  C   UNL     1      -0.132  -5.132   6.764  0.00  0.00    +0.000 C 
ATOM     21  O   UNL     1      -1.220  -5.667   6.568  0.00  0.00    +0.000 OA
ATOM     22  H   UNL     1       1.220  -3.710   6.103  0.00  0.00    +0.000 HD
BRANCH  20  23
ATOM     23  C   UNL     1       0.636  -5.387   7.988  0.00  0.00    +0.000 A 
ATOM     24  C   UNL     1       0.384  -6.535   8.729  0.00  0.00    +0.000 A 
ATOM     25  S   UNL     1       1.399  -6.709  10.087  0.00  0.00    +0.000 S 
ATOM     26  C   UNL     1       2.175  -5.230   9.765  0.00  0.00    +0.000 A 
ATOM     27  N   UNL     1       3.154  -4.761  10.584  0.00  0.00    +0.000 NA
ATOM     28  C   UNL     1       3.629  -3.611  10.243  0.00  0.00    +0.000 A 
ATOM     29  N   UNL     1       3.221  -2.889   9.151  0.00  0.00    +0.000 N 
ATOM     30  C   UNL     1       2.260  -3.339   8.276  0.00  0.00    +0.000 A 
ATOM     31  O   UNL     1       1.954  -2.692   7.279  0.00  0.00    +0.000 OA
ATOM     32  C   UNL     1       1.680  -4.620   8.625  0.00  0.00    +0.000 A 
ATOM     33  H   UNL     1       3.641  -1.998   8.934  0.00  0.00    +0.000 HD
ENDBRANCH  20  23
ENDBRANCH  18  19
ENDBRANCH   4  18
TORSDOF 6
