REMARK  Name = 
REMARK  7 active torsions:
REMARK  status: ('A' for Active; 'I' for Inactive)
REMARK    1  A    between atoms: C_1  and  C_2
REMARK    2  A    between atoms: C_2  and  N_3
REMARK    3  A    between atoms: C_2  and  C_16
REMARK    4  A    between atoms: C_4  and  C_6
REMARK    5  A    between atoms: C_19  and  O_20
REMARK    6  A    between atoms: O_20  and  C_21
REMARK    7  A    between atoms: C_21  and  C_22
REMARK                            x       y       z     vdW  Elec       q    Type
REMARK                         _______ _______ _______ _____ _____    ______ ____
ROOT
ATOM      1  C   UNL     1       3.125   0.293  -1.358  0.00  0.00    +0.000 C 
ATOM      2  C   UNL     1       2.429  -0.039  -0.036  0.00  0.00    +0.000 C 
ENDROOT
BRANCH   2   3
ATOM      3  C   UNL     1       2.878   0.917   1.063  0.00  0.00    +0.000 A 
ATOM      4  N   UNL     1       3.049   0.426   2.308  0.00  0.00    +0.000 NA
ATOM      5  C   UNL     1       3.467   1.303   3.248  0.00  0.00    +0.000 A 
ATOM      6  C   UNL     1       3.736   2.630   2.997  0.00  0.00    +0.000 A 
ATOM      7  C   UNL     1       3.457   3.041   1.713  0.00  0.00    +0.000 A 
ATOM      8  N   UNL     1       3.027   2.219   0.738  0.00  0.00    +0.000 NA
BRANCH   6   9
ATOM      9  O   UNL     1       4.238   3.396   4.001  0.00  0.00    +0.000 OA
BRANCH   9  10
ATOM     10  C   UNL     1       5.020   4.514   3.558  0.00  0.00    +0.000 C 
BRANCH  10  11
ATOM     11  C   UNL     1       5.989   4.939   4.627  0.00  0.00    +0.000 A 
ATOM     12  C   UNL     1       6.495   4.041   5.575  0.00  0.00    +0.000 A 
ATOM     13  C   UNL     1       7.450   4.456   6.506  0.00  0.00    +0.000 A 
ATOM     14  C   UNL     1       7.921   5.769   6.486  0.00  0.00    +0.000 A 
ATOM     15  C   UNL     1       7.438   6.667   5.537  0.00  0.00    +0.000 A 
ATOM     16  C   UNL     1       6.484   6.246   4.616  0.00  0.00    +0.000 A 
ATOM     17  F   UNL     1       6.049   7.115   3.692  0.00  0.00    +0.000 F 
ENDBRANCH  10  11
ENDBRANCH   9  10
ENDBRANCH   6   9
ENDBRANCH   2   3
BRANCH   2  18
ATOM     18  N   UNL     1       0.981   0.010  -0.190  0.00  0.00    +0.000 N 
ATOM     19  C   UNL     1       0.232  -1.085  -0.512  0.00  0.00    +0.000 C 
ATOM     20  O   UNL     1       0.736  -2.181  -0.744  0.00  0.00    +0.000 OA
ATOM     21  H   UNL     1       0.558   0.932  -0.150  0.00  0.00    +0.000 HD
BRANCH  19  22
ATOM     22  C   UNL     1      -1.226  -0.901  -0.502  0.00  0.00    +0.000 A 
ATOM     23  C   UNL     1      -2.054  -1.997  -0.301  0.00  0.00    +0.000 A 
ATOM     24  S   UNL     1      -3.713  -1.607  -0.285  0.00  0.00    +0.000 S 
ATOM     25  C   UNL     1      -3.386   0.034  -0.594  0.00  0.00    +0.000 A 
ATOM     26  N   UNL     1      -4.397   0.933  -0.737  0.00  0.00    +0.000 NA
ATOM     27  C   UNL     1      -4.008   2.135  -1.003  0.00  0.00    +0.000 A 
ATOM     28  N   UNL     1      -2.699   2.522  -1.128  0.00  0.00    +0.000 N 
ATOM     29  C   UNL     1      -1.645   1.661  -0.939  0.00  0.00    +0.000 A 
ATOM     30  O   UNL     1      -0.486   2.059  -0.967  0.00  0.00    +0.000 OA
ATOM     31  C   UNL     1      -2.028   0.286  -0.675  0.00  0.00    +0.000 A 
ATOM     32  H   UNL     1      -2.460   3.484  -1.316  0.00  0.00    +0.000 HD
ENDBRANCH  19  22
ENDBRANCH   2  18
TORSDOF 6
