REMARK  Name = 
REMARK  6 active torsions:
REMARK  status: ('A' for Active; 'I' for Inactive)
REMARK    1  A    between atoms: C_2  and  C_4
REMARK    2  A    between atoms: N_8  and  C_9
REMARK    3  A    between atoms: C_9  and  C_10
REMARK    4  A    between atoms: C_10  and  C_11
REMARK    5  A    between atoms: C_15  and  O_16
REMARK    6  A    between atoms: O_16  and  C_17
REMARK                            x       y       z     vdW  Elec       q    Type
REMARK                         _______ _______ _______ _____ _____    ______ ____
ROOT
ATOM      1  C   UNL     1       3.142  -1.081  -0.770  0.00  0.00    +0.000 A 
ATOM      2  C   UNL     1       2.499  -1.889  -1.701  0.00  0.00    +0.000 A 
ATOM      3  C   UNL     1       3.218  -2.909  -2.325  0.00  0.00    +0.000 A 
ATOM      4  C   UNL     1       4.565  -3.089  -2.027  0.00  0.00    +0.000 A 
ATOM      5  N   UNL     1       5.319  -4.136  -2.531  0.00  0.00    +0.000 N 
ATOM      6  N   UNL     1       5.207  -2.286  -1.155  0.00  0.00    +0.000 NA
ATOM      7  C   UNL     1       4.492  -1.299  -0.551  0.00  0.00    +0.000 A 
ATOM      8  H   UNL     1       6.286  -3.953  -2.271  0.00  0.00    +0.000 HD
ENDROOT
BRANCH   1  10
ATOM      9  N   UNL     1       1.100  -0.197   0.198  0.00  0.00    +0.000 N 
ATOM     10  C   UNL     1       2.443  -0.024  -0.011  0.00  0.00    +0.000 C 
ATOM     11  O   UNL     1       3.040   0.940   0.446  0.00  0.00    +0.000 OA
ATOM     12  H   UNL     1       0.653   0.468   0.819  0.00  0.00    +0.000 HD
ATOM     13  H   UNL     1       0.643  -1.086   0.066  0.00  0.00    +0.000 HD
ENDBRANCH   1  10
BRANCH   5  14
ATOM     14  C   UNL     1       5.096  -4.577  -3.902  0.00  0.00    +0.000 C 
BRANCH  14  15
ATOM     15  C   UNL     1       6.085  -5.689  -4.267  0.00  0.00    +0.000 C 
BRANCH  15  16
ATOM     16  C   UNL     1       5.835  -6.243  -5.649  0.00  0.00    +0.000 A 
ATOM     17  C   UNL     1       6.446  -5.672  -6.772  0.00  0.00    +0.000 A 
ATOM     18  C   UNL     1       6.218  -6.202  -8.044  0.00  0.00    +0.000 A 
ATOM     19  C   UNL     1       5.371  -7.301  -8.214  0.00  0.00    +0.000 A 
ATOM     20  C   UNL     1       4.740  -7.863  -7.106  0.00  0.00    +0.000 A 
ATOM     21  C   UNL     1       4.976  -7.336  -5.832  0.00  0.00    +0.000 A 
BRANCH  20  22
ATOM     22  O   UNL     1       3.906  -8.950  -7.139  0.00  0.00    +0.000 OA
BRANCH  22  23
ATOM     23  C   UNL     1       3.258  -9.303  -8.381  0.00  0.00    +0.000 C 
ATOM     24  C   UNL     1       2.153  -8.378  -8.910  0.00  0.00    +0.000 C 
ATOM     25  O   UNL     1       1.182  -9.450  -8.915  0.00  0.00    +0.000 OA
ATOM     26  C   UNL     1       2.119 -10.325  -8.247  0.00  0.00    +0.000 C 
ENDBRANCH  22  23
ENDBRANCH  20  22
ENDBRANCH  15  16
ENDBRANCH  14  15
ENDBRANCH   5  14
TORSDOF 6
