REMARK  Name = 
REMARK  7 active torsions:
REMARK  status: ('A' for Active; 'I' for Inactive)
REMARK    1  A    between atoms: C_1  and  C_2
REMARK    2  A    between atoms: C_2  and  C_3
REMARK    3  A    between atoms: C_2  and  C_4
REMARK    4  A    between atoms: C_2  and  C_5
REMARK    5  A    between atoms: C_9  and  C_10
REMARK    6  A    between atoms: N_16  and  C_17
REMARK    7  A    between atoms: C_17  and  C_18
REMARK                            x       y       z     vdW  Elec       q    Type
REMARK                         _______ _______ _______ _____ _____    ______ ____
ROOT
ATOM      1  C   UNL     1       2.958   1.298   0.723  0.00  0.00    +0.000 A 
ATOM      2  N   UNL     1       2.573   2.515   0.354  0.00  0.00    +0.000 NA
ATOM      3  C   UNL     1       3.105   3.387   1.256  0.00  0.00    +0.000 A 
ATOM      4  C   UNL     1       2.996   4.779   1.351  0.00  0.00    +0.000 A 
ATOM      5  C   UNL     1       3.658   5.397   2.416  0.00  0.00    +0.000 A 
ATOM      6  C   UNL     1       4.398   4.601   3.295  0.00  0.00    +0.000 A 
ATOM      7  N   UNL     1       4.535   3.245   3.234  0.00  0.00    +0.000 NA
ATOM      8  C   UNL     1       3.854   2.712   2.200  0.00  0.00    +0.000 A 
ATOM      9  N   UNL     1       3.725   1.377   1.879  0.00  0.00    +0.000 N 
ENDROOT
BRANCH   5  10
ATOM     10  C   UNL     1       3.606   6.856   2.672  0.00  0.00    +0.000 C 
ATOM     11  N   UNL     1       2.855   7.645   1.846  0.00  0.00    +0.000 N 
ATOM     12  O   UNL     1       4.213   7.356   3.613  0.00  0.00    +0.000 OA
ATOM     13  H   UNL     1       2.301   7.320   1.069  0.00  0.00    +0.000 HD
ATOM     14  H   UNL     1       2.817   8.632   2.067  0.00  0.00    +0.000 HD
ENDBRANCH   5  10
BRANCH   1  16
ATOM     15  C   UNL     1       1.640   0.478  -1.237  0.00  0.00    +0.000 C 
ATOM     16  C   UNL     1       2.569   0.051  -0.069  0.00  0.00    +0.000 C 
ATOM     17  C   UNL     1       1.780  -0.953   0.782  0.00  0.00    +0.000 C 
ATOM     18  C   UNL     1       3.795  -0.624  -0.705  0.00  0.00    +0.000 C 
ENDBRANCH   1  16
BRANCH   9  19
ATOM     19  C   UNL     1       4.386   0.333   2.645  0.00  0.00    +0.000 C 
BRANCH  19  20
ATOM     20  C   UNL     1       3.577  -0.230   3.785  0.00  0.00    +0.000 A 
ATOM     21  C   UNL     1       3.720  -1.579   4.142  0.00  0.00    +0.000 A 
ATOM     22  C   UNL     1       3.049  -2.085   5.252  0.00  0.00    +0.000 A 
ATOM     23  C   UNL     1       2.252  -1.223   5.983  0.00  0.00    +0.000 A 
ATOM     24  N   UNL     1       2.085   0.078   5.675  0.00  0.00    +0.000 NA
ATOM     25  C   UNL     1       2.755   0.547   4.597  0.00  0.00    +0.000 A 
ENDBRANCH  19  20
ENDBRANCH   9  19
TORSDOF 4
