REMARK  Name = 
REMARK  5 active torsions:
REMARK  status: ('A' for Active; 'I' for Inactive)
REMARK    1  A    between atoms: C_2  and  C_3
REMARK    2  A    between atoms: C_6  and  N_7
REMARK    3  A    between atoms: N_7  and  C_8
REMARK    4  A    between atoms: C_8  and  C_9
REMARK    5  A    between atoms: C_13  and  C_14
REMARK                            x       y       z     vdW  Elec       q    Type
REMARK                         _______ _______ _______ _____ _____    ______ ____
ROOT
ATOM      1  C   UNL     1       4.579  -1.138   0.103  0.00  0.00    +0.000 C 
ATOM      2  C   UNL     1       4.829  -2.270  -0.882  0.00  0.00    +0.000 C 
ATOM      3  C   UNL     1       4.325  -2.599   0.478  0.00  0.00    +0.000 C 
ENDROOT
BRANCH   1   4
ATOM      4  C   UNL     1       5.702  -0.541   0.947  0.00  0.00    +0.000 A 
ATOM      5  C   UNL     1       5.523  -0.320   2.324  0.00  0.00    +0.000 A 
ATOM      6  C   UNL     1       6.608  -0.061   3.161  0.00  0.00    +0.000 A 
ATOM      7  C   UNL     1       7.896  -0.005   2.624  0.00  0.00    +0.000 A 
ATOM      8  C   UNL     1       8.121  -0.139   1.240  0.00  0.00    +0.000 A 
ATOM      9  C   UNL     1       6.996  -0.368   0.426  0.00  0.00    +0.000 A 
BRANCH   8  10
ATOM     10  C   UNL     1       9.473  -0.184   0.671  0.00  0.00    +0.000 A 
ATOM     11  C   UNL     1       9.772   0.399  -0.566  0.00  0.00    +0.000 A 
ATOM     12  C   UNL     1      11.043   0.262  -1.121  0.00  0.00    +0.000 A 
ATOM     13  C   UNL     1      11.996  -0.447  -0.414  0.00  0.00    +0.000 A 
ATOM     14  N   UNL     1      11.764  -1.019   0.784  0.00  0.00    +0.000 NA
ATOM     15  C   UNL     1      10.516  -0.878   1.291  0.00  0.00    +0.000 A 
ENDBRANCH   8  10
ENDBRANCH   1   4
BRANCH   1  16
ATOM     16  N   UNL     1       3.452  -0.232  -0.158  0.00  0.00    +0.000 N 
ATOM     17  H   UNL     1       2.555  -0.454   0.262  0.00  0.00    +0.000 HD
BRANCH  16  21
ATOM     18  C   UNL     1       3.176   2.463  -3.417  0.00  0.00    +0.000 A 
ATOM     19  C   UNL     1       4.220   1.538  -3.375  0.00  0.00    +0.000 A 
ATOM     20  C   UNL     1       4.324   0.641  -2.303  0.00  0.00    +0.000 A 
ATOM     21  C   UNL     1       3.366   0.615  -1.281  0.00  0.00    +0.000 A 
ATOM     22  C   UNL     1       2.332   1.562  -1.331  0.00  0.00    +0.000 A 
ATOM     23  C   UNL     1       2.235   2.478  -2.387  0.00  0.00    +0.000 A 
BRANCH  18  25
ATOM     24  N   UNL     1       3.005   4.154  -5.386  0.00  0.00    +0.000 NA
ATOM     25  C   UNL     1       3.079   3.404  -4.502  0.00  0.00    +0.000 C 
ENDBRANCH  18  25
ENDBRANCH  16  21
ENDBRANCH   1  16
TORSDOF 5
