REMARK  Name = 
REMARK  5 active torsions:
REMARK  status: ('A' for Active; 'I' for Inactive)
REMARK    1  A    between atoms: C_1  and  C_2
REMARK    2  A    between atoms: C_2  and  O_3
REMARK    3  A    between atoms: C_2  and  C_13
REMARK    4  A    between atoms: O_3  and  C_4
REMARK    5  A    between atoms: C_7  and  C_8
REMARK                            x       y       z     vdW  Elec       q    Type
REMARK                         _______ _______ _______ _____ _____    ______ ____
ROOT
ATOM      1  C   UNL     1       0.585  -0.307   1.329  0.00  0.00    +0.000 A 
ATOM      2  C   UNL     1       1.266  -0.689   2.485  0.00  0.00    +0.000 A 
ATOM      3  C   UNL     1       0.587  -0.811   3.702  0.00  0.00    +0.000 A 
ATOM      4  C   UNL     1      -0.789  -0.573   3.774  0.00  0.00    +0.000 A 
ATOM      5  C   UNL     1      -1.495  -0.302   2.597  0.00  0.00    +0.000 A 
ATOM      6  C   UNL     1      -0.807  -0.167   1.385  0.00  0.00    +0.000 A 
ENDROOT
BRANCH   4   7
ATOM      7  C   UNL     1      -1.432  -0.585   5.115  0.00  0.00    +0.000 C 
ATOM      8  N   UNL     1      -2.598   0.115   5.255  0.00  0.00    +0.000 N 
ATOM      9  O   UNL     1      -0.914  -1.135   6.078  0.00  0.00    +0.000 OA
ATOM     10  H   UNL     1      -2.916   0.781   4.565  0.00  0.00    +0.000 HD
ATOM     11  H   UNL     1      -2.934   0.234   6.201  0.00  0.00    +0.000 HD
ENDBRANCH   4   7
BRANCH   1  12
ATOM     12  O   UNL     1       1.144  -0.040   0.108  0.00  0.00    +0.000 OA
BRANCH  12  14
ATOM     13  C   UNL     1       3.060  -1.350  -0.476  0.00  0.00    +0.000 C 
ATOM     14  C   UNL     1       2.578   0.015   0.005  0.00  0.00    +0.000 C 
BRANCH  14  15
ATOM     15  C   UNL     1       3.019   1.174  -0.938  0.00  0.00    +0.000 C 
ATOM     16  C   UNL     1       2.535   2.535  -0.394  0.00  0.00    +0.000 C 
ATOM     17  C   UNL     1       2.925   3.703  -1.301  0.00  0.00    +0.000 C 
ATOM     18  C   UNL     1       2.447   3.482  -2.730  0.00  0.00    +0.000 C 
ATOM     19  C   UNL     1       2.984   2.168  -3.281  0.00  0.00    +0.000 C 
ATOM     20  C   UNL     1       2.582   0.985  -2.401  0.00  0.00    +0.000 C 
ENDBRANCH  14  15
ENDBRANCH  12  14
ENDBRANCH   1  12
TORSDOF 4
