REMARK  Name = 
REMARK  7 active torsions:
REMARK  status: ('A' for Active; 'I' for Inactive)
REMARK    1  A    between atoms: C_2  and  C_20
REMARK    2  A    between atoms: N_3  and  C_4
REMARK    3  A    between atoms: C_4  and  C_5
REMARK    4  A    between atoms: C_8  and  C_9
REMARK    5  A    between atoms: C_9  and  N_10
REMARK    6  A    between atoms: N_10  and  C_11
REMARK    7  A    between atoms: C_11  and  C_12
REMARK                            x       y       z     vdW  Elec       q    Type
REMARK                         _______ _______ _______ _____ _____    ______ ____
ROOT
ATOM      1  C   UNL     1       4.245  -3.599  -1.002  0.00  0.00    +0.000 C 
ENDROOT
BRANCH   1   2
ATOM      2  C   UNL     1       3.418  -3.688   0.298  0.00  0.00    +0.000 C 
ATOM      3  C   UNL     1       2.679  -5.028   0.488  0.00  0.00    +0.000 C 
ATOM      4  C   UNL     1       3.604  -6.166   0.931  0.00  0.00    +0.000 C 
ATOM      5  C   UNL     1       4.363  -5.848   2.227  0.00  0.00    +0.000 C 
ATOM      6  C   UNL     1       5.117  -4.508   2.073  0.00  0.00    +0.000 C 
ATOM      7  C   UNL     1       4.282  -3.342   1.526  0.00  0.00    +0.000 C 
BRANCH   5   8
ATOM      8  C   UNL     1       3.438  -5.945   3.467  0.00  0.00    +0.000 C 
BRANCH   8   9
ATOM      9  N   UNL     1       2.900  -7.305   3.572  0.00  0.00    +0.000 NA
ATOM     10  H   UNL     1       3.662  -7.982   3.633  0.00  0.00    +0.000 HD
BRANCH   9  11
ATOM     11  C   UNL     1       2.018  -7.537   4.712  0.00  0.00    +0.000 C 
BRANCH  11  12
ATOM     12  C   UNL     1       1.535  -8.969   4.701  0.00  0.00    +0.000 A 
ATOM     13  C   UNL     1       0.811  -9.463   3.612  0.00  0.00    +0.000 A 
ATOM     14  C   UNL     1       0.377 -10.784   3.607  0.00  0.00    +0.000 A 
ATOM     15  C   UNL     1       0.664 -11.579   4.704  0.00  0.00    +0.000 A 
ATOM     16  N   UNL     1       1.366 -11.149   5.771  0.00  0.00    +0.000 NA
ATOM     17  C   UNL     1       1.794  -9.863   5.739  0.00  0.00    +0.000 A 
ENDBRANCH  11  12
ENDBRANCH   9  11
ENDBRANCH   8   9
ENDBRANCH   5   8
ENDBRANCH   1   2
BRANCH   1  20
ATOM     18  O   UNL     1       2.981  -1.530  -2.455  0.00  0.00    +0.000 OA
ATOM     19  C   UNL     1       2.885  -2.673  -2.856  0.00  0.00    +0.000 C 
ATOM     20  N   UNL     1       3.447  -3.752  -2.202  0.00  0.00    +0.000 N 
ATOM     21  H   UNL     1       3.342  -4.666  -2.615  0.00  0.00    +0.000 HD
BRANCH  19  22
ATOM     22  C   UNL     1       2.161  -3.039  -4.079  0.00  0.00    +0.000 A 
ATOM     23  C   UNL     1       1.493  -4.236  -4.292  0.00  0.00    +0.000 A 
ATOM     24  S   UNL     1       0.708  -4.308  -5.812  0.00  0.00    +0.000 S 
ATOM     25  C   UNL     1       1.246  -2.746  -6.223  0.00  0.00    +0.000 A 
ATOM     26  N   UNL     1       0.916  -2.175  -7.413  0.00  0.00    +0.000 NA
ATOM     27  C   UNL     1       1.402  -0.990  -7.579  0.00  0.00    +0.000 A 
ATOM     28  N   UNL     1       2.194  -0.329  -6.677  0.00  0.00    +0.000 N 
ATOM     29  C   UNL     1       2.646  -0.907  -5.509  0.00  0.00    +0.000 A 
ATOM     30  O   UNL     1       3.529  -0.375  -4.856  0.00  0.00    +0.000 OA
ATOM     31  C   UNL     1       2.041  -2.199  -5.237  0.00  0.00    +0.000 A 
ATOM     32  H   UNL     1       2.600   0.566  -6.894  0.00  0.00    +0.000 HD
ENDBRANCH  19  22
ENDBRANCH   1  20
TORSDOF 7
