REMARK  Name = 
REMARK  10 active torsions:
REMARK  status: ('A' for Active; 'I' for Inactive)
REMARK    1  A    between atoms: C_1  and  C_2
REMARK    2  A    between atoms: C_2  and  C_3
REMARK    3  A    between atoms: C_2  and  O_4
REMARK    4  A    between atoms: O_4  and  C_5
REMARK    5  A    between atoms: C_7  and  C_8
REMARK    6  A    between atoms: C_13  and  N_14
REMARK    7  A    between atoms: N_14  and  C_15
REMARK    8  A    between atoms: C_15  and  C_16
REMARK    9  A    between atoms: C_20  and  C_21
REMARK   10  A    between atoms: C_24  and  C_25
REMARK                            x       y       z     vdW  Elec       q    Type
REMARK                         _______ _______ _______ _____ _____    ______ ____
ROOT
ATOM      1  N   UNL     1       3.904  -1.685  -3.063  0.00  0.00    +0.000 N 
ATOM      2  H   UNL     1       4.378  -1.814  -3.948  0.00  0.00    +0.000 HD
ENDROOT
BRANCH   1   8
ATOM      3  C   UNL     1       4.350  -1.310  -0.650  0.00  0.00    +0.000 A 
ATOM      4  C   UNL     1       5.335  -1.303   0.343  0.00  0.00    +0.000 A 
ATOM      5  C   UNL     1       6.672  -1.535   0.036  0.00  0.00    +0.000 A 
ATOM      6  C   UNL     1       6.971  -1.778  -1.289  0.00  0.00    +0.000 A 
ATOM      7  N   UNL     1       6.048  -1.808  -2.286  0.00  0.00    +0.000 NA
ATOM      8  C   UNL     1       4.744  -1.584  -1.978  0.00  0.00    +0.000 A 
BRANCH   5   9
ATOM      9  C   UNL     1       7.651  -1.486   1.150  0.00  0.00    +0.000 C 
ATOM     10  N   UNL     1       8.965  -1.745   0.898  0.00  0.00    +0.000 N 
ATOM     11  O   UNL     1       7.299  -1.215   2.289  0.00  0.00    +0.000 OA
ATOM     12  H   UNL     1       9.361  -2.008   0.011  0.00  0.00    +0.000 HD
ATOM     13  H   UNL     1       9.585  -1.706   1.700  0.00  0.00    +0.000 HD
ENDBRANCH   5   9
BRANCH   3  14
ATOM     14  O   UNL     1       3.032  -1.033  -0.381  0.00  0.00    +0.000 OA
BRANCH  14  16
ATOM     15  C   UNL     1       1.347   0.002   0.968  0.00  0.00    +0.000 C 
ATOM     16  C   UNL     1       2.602  -0.864   0.978  0.00  0.00    +0.000 C 
ATOM     17  C   UNL     1       2.311  -2.228   1.597  0.00  0.00    +0.000 C 
ENDBRANCH  14  16
ENDBRANCH   3  14
ENDBRANCH   1   8
BRANCH   1  18
ATOM     18  C   UNL     1       2.492  -1.414  -3.039  0.00  0.00    +0.000 C 
BRANCH  18  19
ATOM     19  C   UNL     1       1.847  -1.602  -4.395  0.00  0.00    +0.000 A 
ATOM     20  C   UNL     1       1.412  -2.864  -4.814  0.00  0.00    +0.000 A 
ATOM     21  C   UNL     1       0.692  -2.999  -5.999  0.00  0.00    +0.000 A 
ATOM     22  C   UNL     1       0.398  -1.874  -6.775  0.00  0.00    +0.000 A 
ATOM     23  C   UNL     1       0.820  -0.588  -6.391  0.00  0.00    +0.000 A 
ATOM     24  C   UNL     1       1.577  -0.486  -5.207  0.00  0.00    +0.000 A 
BRANCH  23  25
ATOM     25  C   UNL     1       0.410   0.623  -7.142  0.00  0.00    +0.000 A 
ATOM     26  C   UNL     1      -0.865   0.712  -7.731  0.00  0.00    +0.000 A 
ATOM     27  C   UNL     1      -1.295   1.873  -8.384  0.00  0.00    +0.000 A 
ATOM     28  C   UNL     1      -0.463   2.994  -8.460  0.00  0.00    +0.000 A 
ATOM     29  C   UNL     1       0.811   2.922  -7.883  0.00  0.00    +0.000 A 
ATOM     30  C   UNL     1       1.241   1.752  -7.244  0.00  0.00    +0.000 A 
BRANCH  28  31
ATOM     31  C   UNL     1      -0.920   4.261  -9.139  0.00  0.00    +0.000 C 
ATOM     32  F   UNL     1      -2.169   4.171  -9.677  0.00  0.00    +0.000 F 
ATOM     33  F   UNL     1      -0.959   5.324  -8.288  0.00  0.00    +0.000 F 
ATOM     34  F   UNL     1      -0.101   4.631 -10.161  0.00  0.00    +0.000 F 
ENDBRANCH  28  31
ENDBRANCH  23  25
ENDBRANCH  18  19
ENDBRANCH   1  18
TORSDOF 8
