REMARK  Name = 
REMARK  5 active torsions:
REMARK  status: ('A' for Active; 'I' for Inactive)
REMARK    1  A    between atoms: C_2  and  C_4
REMARK    2  A    between atoms: C_7  and  N_8
REMARK    3  A    between atoms: N_8  and  C_9
REMARK    4  A    between atoms: C_9  and  C_10
REMARK    5  A    between atoms: C_12  and  C_13
REMARK                            x       y       z     vdW  Elec       q    Type
REMARK                         _______ _______ _______ _____ _____    ______ ____
ROOT
ATOM      1  N   UNL     1       5.345   2.269   4.178  0.00  0.00    +0.000 N 
ATOM      2  H   UNL     1       5.137   3.031   3.546  0.00  0.00    +0.000 HD
ENDROOT
BRANCH   1   6
ATOM      3  C   UNL     1       8.090  -0.625   2.811  0.00  0.00    +0.000 A 
ATOM      4  C   UNL     1       7.656  -0.651   4.135  0.00  0.00    +0.000 A 
ATOM      5  C   UNL     1       6.763   0.320   4.602  0.00  0.00    +0.000 A 
ATOM      6  C   UNL     1       6.281   1.336   3.769  0.00  0.00    +0.000 A 
ATOM      7  C   UNL     1       6.728   1.348   2.440  0.00  0.00    +0.000 A 
ATOM      8  C   UNL     1       7.631   0.387   1.962  0.00  0.00    +0.000 A 
BRANCH   3  10
ATOM      9  N   UNL     1       9.150  -2.818   2.945  0.00  0.00    +0.000 N 
ATOM     10  C   UNL     1       9.062  -1.622   2.290  0.00  0.00    +0.000 C 
ATOM     11  O   UNL     1       9.749  -1.393   1.300  0.00  0.00    +0.000 OA
ATOM     12  H   UNL     1       9.770  -3.510   2.541  0.00  0.00    +0.000 HD
ATOM     13  H   UNL     1       8.457  -3.136   3.606  0.00  0.00    +0.000 HD
ENDBRANCH   3  10
ENDBRANCH   1   6
BRANCH   1  14
ATOM     14  C   UNL     1       4.891   2.416   5.556  0.00  0.00    +0.000 C 
BRANCH  14  15
ATOM     15  C   UNL     1       5.859   3.181   6.445  0.00  0.00    +0.000 A 
ATOM     16  C   UNL     1       6.131   4.526   6.184  0.00  0.00    +0.000 A 
ATOM     17  C   UNL     1       6.933   5.275   7.059  0.00  0.00    +0.000 A 
ATOM     18  C   UNL     1       7.466   4.594   8.161  0.00  0.00    +0.000 A 
ATOM     19  C   UNL     1       7.175   3.249   8.340  0.00  0.00    +0.000 A 
ATOM     20  N   UNL     1       6.376   2.534   7.519  0.00  0.00    +0.000 NA
BRANCH  17  21
ATOM     21  C   UNL     1       7.171   6.724   6.850  0.00  0.00    +0.000 A 
ATOM     22  C   UNL     1       6.192   7.549   6.260  0.00  0.00    +0.000 A 
ATOM     23  C   UNL     1       6.395   8.923   6.087  0.00  0.00    +0.000 A 
ATOM     24  C   UNL     1       7.580   9.510   6.510  0.00  0.00    +0.000 A 
ATOM     25  C   UNL     1       8.569   8.723   7.092  0.00  0.00    +0.000 A 
ATOM     26  C   UNL     1       8.369   7.346   7.249  0.00  0.00    +0.000 A 
ENDBRANCH  17  21
ENDBRANCH  14  15
ENDBRANCH   1  14
TORSDOF 5
