REMARK  Name = 
REMARK  4 active torsions:
REMARK  status: ('A' for Active; 'I' for Inactive)
REMARK    1  A    between atoms: C_2  and  C_4
REMARK    2  A    between atoms: N_8  and  C_9
REMARK    3  A    between atoms: C_9  and  C_10
REMARK    4  A    between atoms: C_14  and  C_15
REMARK                            x       y       z     vdW  Elec       q    Type
REMARK                         _______ _______ _______ _____ _____    ______ ____
ROOT
ATOM      1  C   UNL     1       5.399  -3.912   4.103  0.00  0.00    +0.000 C 
ATOM      2  C   UNL     1       5.290  -5.320   3.533  0.00  0.00    +0.000 C 
ATOM      3  C   UNL     1       4.102  -4.697   4.187  0.00  0.00    +0.000 C 
ENDROOT
BRANCH   1   8
ATOM      4  C   UNL     1       3.866   0.950   3.082  0.00  0.00    +0.000 A 
ATOM      5  C   UNL     1       3.130  -0.098   3.615  0.00  0.00    +0.000 A 
ATOM      6  C   UNL     1       3.701  -1.372   3.688  0.00  0.00    +0.000 A 
ATOM      7  C   UNL     1       4.991  -1.573   3.211  0.00  0.00    +0.000 A 
ATOM      8  N   UNL     1       5.582  -2.837   3.114  0.00  0.00    +0.000 N 
ATOM      9  N   UNL     1       5.722  -0.559   2.701  0.00  0.00    +0.000 NA
ATOM     10  C   UNL     1       5.154   0.672   2.640  0.00  0.00    +0.000 A 
ATOM     11  H   UNL     1       6.537  -2.664   2.806  0.00  0.00    +0.000 HD
BRANCH   4  13
ATOM     12  N   UNL     1       2.278   2.691   3.690  0.00  0.00    +0.000 N 
ATOM     13  C   UNL     1       3.333   2.319   2.904  0.00  0.00    +0.000 C 
ATOM     14  O   UNL     1       3.823   3.097   2.095  0.00  0.00    +0.000 OA
ATOM     15  H   UNL     1       1.975   3.652   3.606  0.00  0.00    +0.000 HD
ATOM     16  H   UNL     1       2.001   2.184   4.518  0.00  0.00    +0.000 HD
ENDBRANCH   4  13
ENDBRANCH   1   8
BRANCH   1  17
ATOM     17  C   UNL     1       6.257  -3.733   5.352  0.00  0.00    +0.000 A 
ATOM     18  C   UNL     1       7.656  -3.837   5.294  0.00  0.00    +0.000 A 
ATOM     19  C   UNL     1       8.452  -3.575   6.409  0.00  0.00    +0.000 A 
ATOM     20  C   UNL     1       7.861  -3.201   7.615  0.00  0.00    +0.000 A 
ATOM     21  C   UNL     1       6.467  -3.084   7.727  0.00  0.00    +0.000 A 
ATOM     22  C   UNL     1       5.691  -3.370   6.587  0.00  0.00    +0.000 A 
BRANCH  21  23
ATOM     23  C   UNL     1       5.825  -2.586   8.956  0.00  0.00    +0.000 A 
ATOM     24  C   UNL     1       4.640  -3.137   9.457  0.00  0.00    +0.000 A 
ATOM     25  N   UNL     1       3.943  -2.651  10.515  0.00  0.00    +0.000 NA
ATOM     26  C   UNL     1       4.458  -1.559  11.124  0.00  0.00    +0.000 A 
ATOM     27  C   UNL     1       5.639  -0.950  10.734  0.00  0.00    +0.000 A 
ATOM     28 CL   UNL     1       6.230   0.438  11.552  0.00  0.00    +0.000 Cl
ATOM     29  C   UNL     1       6.328  -1.472   9.643  0.00  0.00    +0.000 A 
ENDBRANCH  21  23
ENDBRANCH   1  17
TORSDOF 4
