REMARK  Name = 
REMARK  6 active torsions:
REMARK  status: ('A' for Active; 'I' for Inactive)
REMARK    1  A    between atoms: C_2  and  C_3
REMARK    2  A    between atoms: C_6  and  O_7
REMARK    3  A    between atoms: O_7  and  C_8
REMARK    4  A    between atoms: C_11  and  C_12
REMARK    5  A    between atoms: C_12  and  N_13
REMARK    6  A    between atoms: C_14  and  C_16
REMARK                            x       y       z     vdW  Elec       q    Type
REMARK                         _______ _______ _______ _____ _____    ______ ____
ROOT
ATOM      1  C   UNL     1       6.642  -4.854   0.293  0.00  0.00    +0.000 C 
ENDROOT
BRANCH   1   5
ATOM      2  C   UNL     1       4.498  -1.177   0.277  0.00  0.00    +0.000 A 
ATOM      3  C   UNL     1       4.372  -2.022  -0.820  0.00  0.00    +0.000 A 
ATOM      4  C   UNL     1       5.073  -3.226  -0.835  0.00  0.00    +0.000 A 
ATOM      5  C   UNL     1       5.911  -3.537   0.236  0.00  0.00    +0.000 A 
ATOM      6  N   UNL     1       6.087  -2.698   1.289  0.00  0.00    +0.000 NA
ATOM      7  C   UNL     1       5.397  -1.536   1.274  0.00  0.00    +0.000 A 
BRANCH   2   8
ATOM      8  O   UNL     1       3.729  -0.038   0.319  0.00  0.00    +0.000 OA
BRANCH   8  12
ATOM      9  C   UNL     1       2.122   1.102   4.003  0.00  0.00    +0.000 A 
ATOM     10  C   UNL     1       2.511   2.059   3.058  0.00  0.00    +0.000 A 
ATOM     11  C   UNL     1       3.030   1.656   1.822  0.00  0.00    +0.000 A 
ATOM     12  C   UNL     1       3.162   0.297   1.533  0.00  0.00    +0.000 A 
ATOM     13  C   UNL     1       2.710  -0.657   2.453  0.00  0.00    +0.000 A 
ATOM     14  C   UNL     1       2.222  -0.256   3.697  0.00  0.00    +0.000 A 
BRANCH   9  16
ATOM     15  N   UNL     1       1.209   1.806   6.325  0.00  0.00    +0.000 NA
ATOM     16  C   UNL     1       1.616   1.504   5.283  0.00  0.00    +0.000 C 
ENDBRANCH   9  16
ENDBRANCH   8  12
ENDBRANCH   2   8
ENDBRANCH   1   5
BRANCH   1  17
ATOM     17  N   UNL     1       5.862  -5.883   0.946  0.00  0.00    +0.000 N 
ATOM     18  C   UNL     1       5.205  -6.866   0.257  0.00  0.00    +0.000 C 
ATOM     19  O   UNL     1       5.205  -6.910  -0.971  0.00  0.00    +0.000 OA
ATOM     20  H   UNL     1       5.668  -5.733   1.931  0.00  0.00    +0.000 HD
BRANCH  18  21
ATOM     21  C   UNL     1       4.568  -7.917   1.063  0.00  0.00    +0.000 A 
ATOM     22  C   UNL     1       4.311  -9.157   0.493  0.00  0.00    +0.000 A 
ATOM     23  S   UNL     1       3.642 -10.287   1.581  0.00  0.00    +0.000 S 
ATOM     24  C   UNL     1       3.627  -9.145   2.843  0.00  0.00    +0.000 A 
ATOM     25  N   UNL     1       3.155  -9.472   4.075  0.00  0.00    +0.000 NA
ATOM     26  C   UNL     1       3.173  -8.502   4.928  0.00  0.00    +0.000 A 
ATOM     27  N   UNL     1       3.621  -7.235   4.659  0.00  0.00    +0.000 N 
ATOM     28  C   UNL     1       4.141  -6.871   3.440  0.00  0.00    +0.000 A 
ATOM     29  O   UNL     1       4.586  -5.743   3.251  0.00  0.00    +0.000 OA
ATOM     30  C   UNL     1       4.134  -7.921   2.440  0.00  0.00    +0.000 A 
ATOM     31  H   UNL     1       3.618  -6.523   5.373  0.00  0.00    +0.000 HD
ENDBRANCH  18  21
ENDBRANCH   1  17
TORSDOF 6
