REMARK  Name = 
REMARK  8 active torsions:
REMARK  status: ('A' for Active; 'I' for Inactive)
REMARK    1  A    between atoms: C_1  and  C_2
REMARK    2  A    between atoms: C_2  and  C_3
REMARK    3  A    between atoms: C_2  and  C_25
REMARK    4  A    between atoms: C_3  and  N_4
REMARK    5  A    between atoms: N_4  and  C_5
REMARK    6  A    between atoms: C_8  and  C_9
REMARK    7  A    between atoms: C_9  and  N_10
REMARK    8  A    between atoms: C_11  and  C_13
REMARK                            x       y       z     vdW  Elec       q    Type
REMARK                         _______ _______ _______ _____ _____    ______ ____
ROOT
ATOM      1  C   UNL     1       2.900  -3.673   0.109  0.00  0.00    +0.000 A 
ATOM      2  C   UNL     1       4.197  -4.041  -0.272  0.00  0.00    +0.000 A 
ATOM      3  C   UNL     1       4.538  -5.378  -0.521  0.00  0.00    +0.000 A 
ATOM      4  C   UNL     1       3.584  -6.393  -0.394  0.00  0.00    +0.000 A 
ATOM      5  C   UNL     1       2.287  -6.036  -0.013  0.00  0.00    +0.000 A 
ATOM      6  C   UNL     1       1.955  -4.698   0.237  0.00  0.00    +0.000 A 
ENDROOT
BRANCH   1   7
ATOM      7  N   UNL     1       2.540  -2.371   0.413  0.00  0.00    +0.000 N 
ATOM      8  H   UNL     1       1.561  -2.195   0.604  0.00  0.00    +0.000 HD
BRANCH   7   9
ATOM      9  C   UNL     1       3.421  -1.228   0.164  0.00  0.00    +0.000 C 
BRANCH   9  11
ATOM     10  C   UNL     1       1.534   0.357  -0.470  0.00  0.00    +0.000 C 
ATOM     11  C   UNL     1       2.722   0.112   0.468  0.00  0.00    +0.000 C 
BRANCH  11  12
ATOM     12  C   UNL     1       3.682   1.287   0.362  0.00  0.00    +0.000 A 
ATOM     13  C   UNL     1       3.526   2.387   1.205  0.00  0.00    +0.000 A 
ATOM     14  C   UNL     1       4.325   3.511   1.011  0.00  0.00    +0.000 A 
ATOM     15  C   UNL     1       5.266   3.509  -0.011  0.00  0.00    +0.000 A 
ATOM     16  C   UNL     1       5.375   2.373  -0.792  0.00  0.00    +0.000 A 
ATOM     17  N   UNL     1       4.603   1.272  -0.633  0.00  0.00    +0.000 NA
ENDBRANCH  11  12
ENDBRANCH   9  11
ENDBRANCH   7   9
ENDBRANCH   1   7
BRANCH   4  18
ATOM     18  C   UNL     1       3.918  -7.836  -0.683  0.00  0.00    +0.000 C 
BRANCH  18  19
ATOM     19  N   UNL     1       4.949  -8.335   0.186  0.00  0.00    +0.000 N 
ATOM     20  C   UNL     1       5.433  -9.617   0.067  0.00  0.00    +0.000 C 
ATOM     21  O   UNL     1       5.041 -10.388  -0.800  0.00  0.00    +0.000 OA
ATOM     22  H   UNL     1       5.075  -7.847   1.067  0.00  0.00    +0.000 HD
BRANCH  20  23
ATOM     23  C   UNL     1       6.510  -9.983   0.998  0.00  0.00    +0.000 A 
ATOM     24  C   UNL     1       7.424 -10.971   0.649  0.00  0.00    +0.000 A 
ATOM     25  S   UNL     1       8.635 -11.224   1.822  0.00  0.00    +0.000 S 
ATOM     26  C   UNL     1       7.947 -10.059   2.861  0.00  0.00    +0.000 A 
ATOM     27  N   UNL     1       8.493  -9.802   4.081  0.00  0.00    +0.000 NA
ATOM     28  C   UNL     1       7.853  -8.918   4.773  0.00  0.00    +0.000 A 
ATOM     29  N   UNL     1       6.724  -8.264   4.354  0.00  0.00    +0.000 N 
ATOM     30  C   UNL     1       6.161  -8.467   3.116  0.00  0.00    +0.000 A 
ATOM     31  O   UNL     1       5.184  -7.820   2.751  0.00  0.00    +0.000 OA
ATOM     32  C   UNL     1       6.830  -9.471   2.309  0.00  0.00    +0.000 A 
ATOM     33  H   UNL     1       6.280  -7.569   4.934  0.00  0.00    +0.000 HD
ENDBRANCH  20  23
ENDBRANCH  18  19
ENDBRANCH   4  18
TORSDOF 7
