REMARK  Name = 
REMARK  7 active torsions:
REMARK  status: ('A' for Active; 'I' for Inactive)
REMARK    1  A    between atoms: N_1  and  C_2
REMARK    2  A    between atoms: C_2  and  C_3
REMARK    3  A    between atoms: C_6  and  O_7
REMARK    4  A    between atoms: O_7  and  C_8
REMARK    5  A    between atoms: C_8  and  C_9
REMARK    6  A    between atoms: C_9  and  C_12
REMARK    7  A    between atoms: C_15  and  C_16
REMARK                            x       y       z     vdW  Elec       q    Type
REMARK                         _______ _______ _______ _____ _____    ______ ____
ROOT
ATOM      1  C   UNL     1       4.562  -2.067   7.431  0.00  0.00    +0.000 C 
ATOM      2  F   UNL     1       5.616  -2.901   7.180  0.00  0.00    +0.000 F 
ATOM      3  F   UNL     1       5.070  -1.127   8.294  0.00  0.00    +0.000 F 
ENDROOT
BRANCH   1   4
ATOM      4  C   UNL     1       3.387  -2.794   8.058  0.00  0.00    +0.000 A 
ATOM      5  C   UNL     1       3.122  -4.134   7.745  0.00  0.00    +0.000 A 
ATOM      6  C   UNL     1       2.076  -4.815   8.374  0.00  0.00    +0.000 A 
ATOM      7  C   UNL     1       1.283  -4.169   9.330  0.00  0.00    +0.000 A 
ATOM      8  C   UNL     1       1.517  -2.821   9.622  0.00  0.00    +0.000 A 
ATOM      9  C   UNL     1       2.561  -2.140   8.988  0.00  0.00    +0.000 A 
BRANCH   7  10
ATOM     10  C   UNL     1       0.207  -4.953   9.996  0.00  0.00    +0.000 C 
ATOM     11  N   UNL     1      -0.194  -4.549  11.240  0.00  0.00    +0.000 N 
ATOM     12  O   UNL     1      -0.275  -5.949   9.476  0.00  0.00    +0.000 OA
ATOM     13  H   UNL     1       0.311  -3.875  11.793  0.00  0.00    +0.000 HD
ATOM     14  H   UNL     1      -0.840  -5.164  11.719  0.00  0.00    +0.000 HD
ENDBRANCH   7  10
ENDBRANCH   1   4
BRANCH   1  15
ATOM     15  C   UNL     1       4.206  -1.322   6.139  0.00  0.00    +0.000 C 
BRANCH  15  16
ATOM     16  O   UNL     1       3.821  -2.209   5.083  0.00  0.00    +0.000 OA
BRANCH  16  20
ATOM     17  C   UNL     1       2.739  -0.627   1.362  0.00  0.00    +0.000 A 
ATOM     18  C   UNL     1       3.133   0.246   2.382  0.00  0.00    +0.000 A 
ATOM     19  C   UNL     1       3.512  -0.243   3.637  0.00  0.00    +0.000 A 
ATOM     20  C   UNL     1       3.493  -1.615   3.893  0.00  0.00    +0.000 A 
ATOM     21  C   UNL     1       3.108  -2.490   2.878  0.00  0.00    +0.000 A 
ATOM     22  C   UNL     1       2.733  -2.004   1.620  0.00  0.00    +0.000 A 
BRANCH  17  23
ATOM     23  C   UNL     1       2.298  -0.085   0.027  0.00  0.00    +0.000 C 
BRANCH  23  24
ATOM     24  N   UNL     1       3.341   0.723  -0.595  0.00  0.00    +0.000 NA
ATOM     25  H   UNL     1       3.055   0.963  -1.542  0.00  0.00    +0.000 HD
ATOM     26  H   UNL     1       4.184   0.156  -0.683  0.00  0.00    +0.000 HD
ENDBRANCH  23  24
ENDBRANCH  17  23
ENDBRANCH  16  20
ENDBRANCH  15  16
ENDBRANCH   1  15
TORSDOF 7
