REMARK  Name = 
REMARK  5 active torsions:
REMARK  status: ('A' for Active; 'I' for Inactive)
REMARK    1  A    between atoms: C_1  and  C_2
REMARK    2  A    between atoms: C_2  and  O_3
REMARK    3  A    between atoms: C_2  and  C_13
REMARK    4  A    between atoms: O_3  and  C_4
REMARK    5  A    between atoms: C_7  and  C_8
REMARK                            x       y       z     vdW  Elec       q    Type
REMARK                         _______ _______ _______ _____ _____    ______ ____
ROOT
ATOM      1  C   UNL     1       2.411   0.386  -2.320  0.00  0.00    +0.000 A 
ATOM      2  C   UNL     1       2.127   1.345  -3.292  0.00  0.00    +0.000 A 
ATOM      3  C   UNL     1       1.741   0.945  -4.569  0.00  0.00    +0.000 A 
ATOM      4  C   UNL     1       1.673  -0.416  -4.835  0.00  0.00    +0.000 A 
ATOM      5  N   UNL     1       1.980  -1.383  -3.925  0.00  0.00    +0.000 NA
ATOM      6  C   UNL     1       2.350  -0.952  -2.696  0.00  0.00    +0.000 A 
ENDROOT
BRANCH   4   7
ATOM      7  C   UNL     1       1.234  -0.889  -6.186  0.00  0.00    +0.000 C 
ATOM      8  N   UNL     1       1.199  -2.246  -6.348  0.00  0.00    +0.000 N 
ATOM      9  O   UNL     1       0.924  -0.121  -7.089  0.00  0.00    +0.000 OA
ATOM     10  H   UNL     1       1.468  -2.850  -5.578  0.00  0.00    +0.000 HD
ATOM     11  H   UNL     1       0.916  -2.637  -7.234  0.00  0.00    +0.000 HD
ENDBRANCH   4   7
BRANCH   1  12
ATOM     12  O   UNL     1       2.735   0.869  -1.088  0.00  0.00    +0.000 OA
BRANCH  12  14
ATOM     13  C   UNL     1       0.963  -0.125   0.279  0.00  0.00    +0.000 C 
ATOM     14  C   UNL     1       2.469   0.040   0.058  0.00  0.00    +0.000 C 
BRANCH  14  15
ATOM     15  C   UNL     1       3.110   0.723   1.255  0.00  0.00    +0.000 A 
ATOM     16  C   UNL     1       4.037   0.034   2.054  0.00  0.00    +0.000 A 
ATOM     17  C   UNL     1       4.660   0.671   3.130  0.00  0.00    +0.000 A 
ATOM     18  C   UNL     1       4.359   1.999   3.424  0.00  0.00    +0.000 A 
ATOM     19  C   UNL     1       3.423   2.687   2.657  0.00  0.00    +0.000 A 
ATOM     20  C   UNL     1       2.800   2.053   1.581  0.00  0.00    +0.000 A 
ENDBRANCH  14  15
ENDBRANCH  12  14
ENDBRANCH   1  12
TORSDOF 4
