REMARK  Name = 
REMARK  8 active torsions:
REMARK  status: ('A' for Active; 'I' for Inactive)
REMARK    1  A    between atoms: C_1  and  O_2
REMARK    2  A    between atoms: O_2  and  C_3
REMARK    3  A    between atoms: C_5  and  C_6
REMARK    4  A    between atoms: C_11  and  O_12
REMARK    5  A    between atoms: O_12  and  C_13
REMARK    6  A    between atoms: C_13  and  C_14
REMARK    7  A    between atoms: C_18  and  C_19
REMARK    8  A    between atoms: C_23  and  C_24
REMARK                            x       y       z     vdW  Elec       q    Type
REMARK                         _______ _______ _______ _____ _____    ______ ____
ROOT
ATOM      1  O   UNL     1       4.677   0.998  -1.382  0.00  0.00    +0.000 OA
ENDROOT
BRANCH   1   7
ATOM      2  C   UNL     1       3.069   0.819   0.527  0.00  0.00    +0.000 A 
ATOM      3  C   UNL     1       2.816   1.209   1.851  0.00  0.00    +0.000 A 
ATOM      4  C   UNL     1       3.728   1.992   2.573  0.00  0.00    +0.000 A 
ATOM      5  C   UNL     1       4.915   2.393   1.959  0.00  0.00    +0.000 A 
ATOM      6  C   UNL     1       5.169   2.021   0.631  0.00  0.00    +0.000 A 
ATOM      7  C   UNL     1       4.256   1.242  -0.096  0.00  0.00    +0.000 A 
BRANCH   4   8
ATOM      8  C   UNL     1       3.363   2.332   3.981  0.00  0.00    +0.000 C 
ATOM      9  N   UNL     1       4.237   3.075   4.724  0.00  0.00    +0.000 N 
ATOM     10  O   UNL     1       2.304   1.964   4.476  0.00  0.00    +0.000 OA
ATOM     11  H   UNL     1       5.128   3.420   4.410  0.00  0.00    +0.000 HD
ATOM     12  H   UNL     1       3.957   3.281   5.675  0.00  0.00    +0.000 HD
ENDBRANCH   4   8
BRANCH   2  14
ATOM     13  C   UNL     1       0.871  -0.088   0.248  0.00  0.00    +0.000 C 
ATOM     14  O   UNL     1       2.232  -0.023  -0.154  0.00  0.00    +0.000 OA
ENDBRANCH   2  14
ENDBRANCH   1   7
BRANCH   1  15
ATOM     15  C   UNL     1       3.806   0.258  -2.234  0.00  0.00    +0.000 C 
BRANCH  15  16
ATOM     16  C   UNL     1       4.409   0.135  -3.613  0.00  0.00    +0.000 A 
ATOM     17  C   UNL     1       4.686  -1.125  -4.154  0.00  0.00    +0.000 A 
ATOM     18  C   UNL     1       5.186  -1.237  -5.447  0.00  0.00    +0.000 A 
ATOM     19  C   UNL     1       5.396  -0.092  -6.217  0.00  0.00    +0.000 A 
ATOM     20  C   UNL     1       5.107   1.191  -5.718  0.00  0.00    +0.000 A 
ATOM     21  C   UNL     1       4.627   1.278  -4.398  0.00  0.00    +0.000 A 
BRANCH  20  22
ATOM     22  C   UNL     1       5.258   2.397  -6.556  0.00  0.00    +0.000 A 
ATOM     23  C   UNL     1       4.985   2.389  -7.926  0.00  0.00    +0.000 A 
ATOM     24  N   UNL     1       5.076   3.463  -8.750  0.00  0.00    +0.000 NA
ATOM     25  C   UNL     1       5.449   4.627  -8.181  0.00  0.00    +0.000 A 
ATOM     26  C   UNL     1       5.742   4.772  -6.833  0.00  0.00    +0.000 A 
ATOM     27  C   UNL     1       6.138   6.089  -6.248  0.00  0.00    +0.000 C 
ATOM     28  C   UNL     1       5.650   3.634  -6.024  0.00  0.00    +0.000 A 
ENDBRANCH  20  22
ENDBRANCH  15  16
ENDBRANCH   1  15
TORSDOF 6
