REMARK  Name = 
REMARK  10 active torsions:
REMARK  status: ('A' for Active; 'I' for Inactive)
REMARK    1  A    between atoms: C_1  and  C_2
REMARK    2  A    between atoms: C_2  and  C_3
REMARK    3  A    between atoms: C_3  and  N_4
REMARK    4  A    between atoms: C_5  and  C_7
REMARK    5  A    between atoms: C_10  and  O_11
REMARK    6  A    between atoms: O_11  and  C_12
REMARK    7  A    between atoms: C_12  and  C_13
REMARK    8  A    between atoms: C_13  and  C_14
REMARK    9  A    between atoms: C_13  and  C_15
REMARK   10  A    between atoms: C_19  and  C_20
REMARK                            x       y       z     vdW  Elec       q    Type
REMARK                         _______ _______ _______ _____ _____    ______ ____
ROOT
ATOM      1  O   UNL     1      14.020  -1.171  -0.184  0.00  0.00    +0.000 OA
ENDROOT
BRANCH   1   5
ATOM      2  C   UNL     1      15.046  -3.856  -3.131  0.00  0.00    +0.000 A 
ATOM      3  C   UNL     1      15.771  -2.669  -3.001  0.00  0.00    +0.000 A 
ATOM      4  C   UNL     1      15.412  -1.759  -2.004  0.00  0.00    +0.000 A 
ATOM      5  C   UNL     1      14.360  -2.085  -1.160  0.00  0.00    +0.000 A 
ATOM      6  N   UNL     1      13.627  -3.211  -1.279  0.00  0.00    +0.000 NA
ATOM      7  C   UNL     1      13.977  -4.065  -2.270  0.00  0.00    +0.000 A 
BRANCH   2   9
ATOM      8  N   UNL     1      16.669  -5.053  -4.483  0.00  0.00    +0.000 N 
ATOM      9  C   UNL     1      15.344  -4.895  -4.140  0.00  0.00    +0.000 C 
ATOM     10  O   UNL     1      14.435  -5.583  -4.591  0.00  0.00    +0.000 OA
ATOM     11  H   UNL     1      17.385  -4.513  -4.017  0.00  0.00    +0.000 HD
BRANCH   8  12
ATOM     12  C   UNL     1      17.090  -6.041  -5.456  0.00  0.00    +0.000 C 
BRANCH  12  14
ATOM     13  C   UNL     1      17.932  -4.329  -7.125  0.00  0.00    +0.000 C 
ATOM     14  C   UNL     1      17.010  -5.516  -6.887  0.00  0.00    +0.000 C 
ENDBRANCH  12  14
ENDBRANCH   8  12
ENDBRANCH   2   9
ENDBRANCH   1   5
BRANCH   1  15
ATOM     15  C   UNL     1      13.457  -1.812   0.968  0.00  0.00    +0.000 C 
BRANCH  15  16
ATOM     16  C   UNL     1      13.047  -0.786   2.045  0.00  0.00    +0.000 C 
ATOM     17  C   UNL     1      11.906   0.111   1.553  0.00  0.00    +0.000 C 
BRANCH  16  18
ATOM     18  C   UNL     1      14.210   0.029   2.580  0.00  0.00    +0.000 A 
ATOM     19  C   UNL     1      14.887   0.960   1.796  0.00  0.00    +0.000 A 
ATOM     20  N   UNL     1      15.917   1.722   2.232  0.00  0.00    +0.000 NA
ATOM     21  C   UNL     1      16.294   1.558   3.523  0.00  0.00    +0.000 A 
ATOM     22  C   UNL     1      15.697   0.667   4.402  0.00  0.00    +0.000 A 
ATOM     23  C   UNL     1      14.639  -0.109   3.908  0.00  0.00    +0.000 A 
BRANCH  22  24
ATOM     24  C   UNL     1      16.119   0.505   5.815  0.00  0.00    +0.000 C 
ATOM     25  N   UNL     1      17.126   1.289   6.307  0.00  0.00    +0.000 N 
ATOM     26  O   UNL     1      15.577  -0.318   6.545  0.00  0.00    +0.000 OA
ATOM     27  H   UNL     1      17.614   2.016   5.807  0.00  0.00    +0.000 HD
ATOM     28  H   UNL     1      17.367   1.153   7.281  0.00  0.00    +0.000 HD
ENDBRANCH  22  24
ENDBRANCH  16  18
ENDBRANCH  15  16
ENDBRANCH   1  15
TORSDOF 8
