REMARK  Name = 
REMARK  6 active torsions:
REMARK  status: ('A' for Active; 'I' for Inactive)
REMARK    1  A    between atoms: C_2  and  C_3
REMARK    2  A    between atoms: C_7  and  C_8
REMARK    3  A    between atoms: C_8  and  C_9
REMARK    4  A    between atoms: C_12  and  C_13
REMARK    5  A    between atoms: C_13  and  N_14
REMARK    6  A    between atoms: C_15  and  C_17
REMARK                            x       y       z     vdW  Elec       q    Type
REMARK                         _______ _______ _______ _____ _____    ______ ____
ROOT
ATOM      1  C   UNL     1       1.422   7.080   0.070  0.00  0.00    +0.000 C 
ENDROOT
BRANCH   1   5
ATOM      2  C   UNL     1      -1.369   3.758   0.064  0.00  0.00    +0.000 A 
ATOM      3  C   UNL     1      -0.520   3.977  -1.030  0.00  0.00    +0.000 A 
ATOM      4  C   UNL     1       0.365   5.063  -1.044  0.00  0.00    +0.000 A 
ATOM      5  C   UNL     1       0.424   5.949   0.038  0.00  0.00    +0.000 A 
ATOM      6  C   UNL     1      -0.471   5.767   1.101  0.00  0.00    +0.000 A 
ATOM      7  C   UNL     1      -1.350   4.679   1.120  0.00  0.00    +0.000 A 
BRANCH   2   8
ATOM      8  C   UNL     1      -2.255   2.533   0.121  0.00  0.00    +0.000 C 
BRANCH   8  13
ATOM      9  C   UNL     1      -0.991  -0.029   2.664  0.00  0.00    +0.000 A 
ATOM     10  C   UNL     1      -0.301  -0.858   1.796  0.00  0.00    +0.000 A 
ATOM     11  N   UNL     1      -0.223  -0.655   0.460  0.00  0.00    +0.000 NA
ATOM     12  C   UNL     1      -0.858   0.436  -0.028  0.00  0.00    +0.000 A 
ATOM     13  C   UNL     1      -1.590   1.332   0.748  0.00  0.00    +0.000 A 
ATOM     14  C   UNL     1      -1.652   1.081   2.126  0.00  0.00    +0.000 A 
BRANCH   9  16
ATOM     15  N   UNL     1      -1.027  -0.526   5.204  0.00  0.00    +0.000 NA
ATOM     16  C   UNL     1      -1.012  -0.304   4.066  0.00  0.00    +0.000 C 
ENDBRANCH   9  16
ENDBRANCH   8  13
ENDBRANCH   2   8
ENDBRANCH   1   5
BRANCH   1  17
ATOM     17  N   UNL     1       0.883   8.284  -0.508  0.00  0.00    +0.000 N 
ATOM     18  C   UNL     1       1.640   9.423  -0.623  0.00  0.00    +0.000 C 
ATOM     19  O   UNL     1       2.818   9.465  -0.279  0.00  0.00    +0.000 OA
ATOM     20  H   UNL     1      -0.128   8.356  -0.552  0.00  0.00    +0.000 HD
BRANCH  18  21
ATOM     21  C   UNL     1       0.980  10.578  -1.245  0.00  0.00    +0.000 A 
ATOM     22  C   UNL     1       1.740  11.548  -1.886  0.00  0.00    +0.000 A 
ATOM     23  S   UNL     1       0.806  12.787  -2.597  0.00  0.00    +0.000 S 
ATOM     24  C   UNL     1      -0.642  12.100  -2.025  0.00  0.00    +0.000 A 
ATOM     25  N   UNL     1      -1.842  12.693  -2.264  0.00  0.00    +0.000 NA
ATOM     26  C   UNL     1      -2.854  12.079  -1.749  0.00  0.00    +0.000 A 
ATOM     27  N   UNL     1      -2.776  10.919  -1.021  0.00  0.00    +0.000 N 
ATOM     28  C   UNL     1      -1.590  10.267  -0.783  0.00  0.00    +0.000 A 
ATOM     29  O   UNL     1      -1.562   9.203  -0.173  0.00  0.00    +0.000 OA
ATOM     30  C   UNL     1      -0.419  10.927  -1.326  0.00  0.00    +0.000 A 
ATOM     31  H   UNL     1      -3.606  10.480  -0.655  0.00  0.00    +0.000 HD
ENDBRANCH  18  21
ENDBRANCH   1  17
TORSDOF 6
