REMARK  Name = 
REMARK  5 active torsions:
REMARK  status: ('A' for Active; 'I' for Inactive)
REMARK    1  A    between atoms: C_2  and  O_3
REMARK    2  A    between atoms: C_2  and  C_4
REMARK    3  A    between atoms: N_8  and  C_9
REMARK    4  A    between atoms: C_9  and  C_10
REMARK    5  A    between atoms: C_14  and  C_15
REMARK                            x       y       z     vdW  Elec       q    Type
REMARK                         _______ _______ _______ _____ _____    ______ ____
ROOT
ATOM      1  C   UNL     1       5.116  -2.626   5.313  0.00  0.00    +0.000 C 
ATOM      2  C   UNL     1       5.019  -4.128   5.064  0.00  0.00    +0.000 C 
ATOM      3  C   UNL     1       3.831  -3.384   5.572  0.00  0.00    +0.000 C 
ENDROOT
BRANCH   1   8
ATOM      4  C   UNL     1       3.567   1.793   3.057  0.00  0.00    +0.000 A 
ATOM      5  C   UNL     1       2.791   0.848   3.723  0.00  0.00    +0.000 A 
ATOM      6  C   UNL     1       3.378  -0.353   4.126  0.00  0.00    +0.000 A 
ATOM      7  C   UNL     1       4.717  -0.596   3.840  0.00  0.00    +0.000 A 
ATOM      8  N   UNL     1       5.342  -1.819   4.099  0.00  0.00    +0.000 N 
ATOM      9  N   UNL     1       5.475   0.314   3.192  0.00  0.00    +0.000 NA
ATOM     10  C   UNL     1       4.893   1.479   2.808  0.00  0.00    +0.000 A 
ATOM     11  H   UNL     1       6.321  -1.678   3.848  0.00  0.00    +0.000 HD
BRANCH   4  13
ATOM     12  O   UNL     1       3.431   3.597   1.530  0.00  0.00    +0.000 OA
ATOM     13  C   UNL     1       3.028   3.070   2.552  0.00  0.00    +0.000 C 
BRANCH  13  14
ATOM     14  O   UNL     1       2.077   3.604   3.344  0.00  0.00    +0.000 OA
ATOM     15  H   UNL     1       1.976   3.193   4.220  0.00  0.00    +0.000 HD
ENDBRANCH  13  14
ENDBRANCH   4  13
ENDBRANCH   1   8
BRANCH   1  16
ATOM     16  C   UNL     1       5.945  -2.141   6.500  0.00  0.00    +0.000 A 
ATOM     17  C   UNL     1       7.212  -2.682   6.772  0.00  0.00    +0.000 A 
ATOM     18  C   UNL     1       8.028  -2.154   7.768  0.00  0.00    +0.000 A 
ATOM     19  C   UNL     1       7.604  -1.045   8.497  0.00  0.00    +0.000 A 
ATOM     20  C   UNL     1       6.356  -0.447   8.254  0.00  0.00    +0.000 A 
ATOM     21  C   UNL     1       5.527  -1.043   7.283  0.00  0.00    +0.000 A 
BRANCH  20  22
ATOM     22  C   UNL     1       5.980   0.809   8.924  0.00  0.00    +0.000 A 
ATOM     23  C   UNL     1       6.893   1.832   9.149  0.00  0.00    +0.000 A 
ATOM     24  N   UNL     1       6.608   3.015   9.736  0.00  0.00    +0.000 NA
ATOM     25  C   UNL     1       5.333   3.182  10.103  0.00  0.00    +0.000 A 
ATOM     26  N   UNL     1       4.343   2.287   9.936  0.00  0.00    +0.000 NA
ATOM     27  C   UNL     1       4.701   1.121   9.352  0.00  0.00    +0.000 A 
ENDBRANCH  20  22
ENDBRANCH   1  16
TORSDOF 5
