REMARK  Name = 
REMARK  7 active torsions:
REMARK  status: ('A' for Active; 'I' for Inactive)
REMARK    1  A    between atoms: C_1  and  C_2
REMARK    2  A    between atoms: C_2  and  N_3
REMARK    3  A    between atoms: C_2  and  C_16
REMARK    4  A    between atoms: C_4  and  C_6
REMARK    5  A    between atoms: C_19  and  C_20
REMARK    6  A    between atoms: C_20  and  N_21
REMARK    7  A    between atoms: C_22  and  C_24
REMARK                            x       y       z     vdW  Elec       q    Type
REMARK                         _______ _______ _______ _____ _____    ______ ____
ROOT
ATOM      1  C   UNL     1       0.985   0.267  -0.340  0.00  0.00    +0.000 C 
ATOM      2  C   UNL     1       2.465   0.056   0.012  0.00  0.00    +0.000 C 
ENDROOT
BRANCH   2   3
ATOM      3  C   UNL     1       3.003  -1.188  -0.687  0.00  0.00    +0.000 A 
ATOM      4  C   UNL     1       4.065  -1.093  -1.598  0.00  0.00    +0.000 A 
ATOM      5  C   UNL     1       4.517  -2.222  -2.295  0.00  0.00    +0.000 A 
ATOM      6  C   UNL     1       3.912  -3.471  -2.103  0.00  0.00    +0.000 A 
ATOM      7  C   UNL     1       2.893  -3.581  -1.149  0.00  0.00    +0.000 A 
ATOM      8  C   UNL     1       2.443  -2.455  -0.452  0.00  0.00    +0.000 A 
BRANCH   6   9
ATOM      9  C   UNL     1       4.324  -4.670  -2.919  0.00  0.00    +0.000 C 
BRANCH   9  10
ATOM     10  N   UNL     1       5.388  -5.419  -2.300  0.00  0.00    +0.000 N 
ATOM     11  C   UNL     1       5.825  -6.605  -2.847  0.00  0.00    +0.000 C 
ATOM     12  O   UNL     1       5.318  -7.094  -3.851  0.00  0.00    +0.000 OA
ATOM     13  H   UNL     1       5.882  -5.000  -1.528  0.00  0.00    +0.000 HD
BRANCH  11  14
ATOM     14  C   UNL     1       6.927  -7.234  -2.167  0.00  0.00    +0.000 A 
ATOM     15  C   UNL     1       7.636  -6.917  -1.026  0.00  0.00    +0.000 A 
ATOM     16  N   UNL     1       8.621  -7.838  -0.774  0.00  0.00    +0.000 NA
ATOM     17  C   UNL     1       8.523  -8.719  -1.741  0.00  0.00    +0.000 A 
ATOM     18  N   UNL     1       7.513  -8.404  -2.602  0.00  0.00    +0.000 N 
ATOM     19  H   UNL     1       7.232  -8.926  -3.421  0.00  0.00    +0.000 HD
ENDBRANCH  11  14
ENDBRANCH   9  10
ENDBRANCH   6   9
ENDBRANCH   2   3
BRANCH   2  20
ATOM     20  N   UNL     1       2.685  -0.050   1.445  0.00  0.00    +0.000 N 
ATOM     21  C   UNL     1       2.379   0.965   2.319  0.00  0.00    +0.000 C 
ATOM     22  O   UNL     1       1.849   2.012   1.963  0.00  0.00    +0.000 OA
ATOM     23  H   UNL     1       3.380  -0.730   1.738  0.00  0.00    +0.000 HD
BRANCH  21  24
ATOM     24  C   UNL     1       2.657   0.708   3.736  0.00  0.00    +0.000 A 
ATOM     25  C   UNL     1       1.882   1.320   4.711  0.00  0.00    +0.000 A 
ATOM     26  S   UNL     1       2.337   0.908   6.302  0.00  0.00    +0.000 S 
ATOM     27  C   UNL     1       3.614  -0.065   5.741  0.00  0.00    +0.000 A 
ATOM     28  N   UNL     1       4.452  -0.691   6.611  0.00  0.00    +0.000 NA
ATOM     29  C   UNL     1       5.401  -1.363   6.048  0.00  0.00    +0.000 A 
ATOM     30  N   UNL     1       5.579  -1.479   4.693  0.00  0.00    +0.000 N 
ATOM     31  C   UNL     1       4.732  -0.902   3.777  0.00  0.00    +0.000 A 
ATOM     32  O   UNL     1       4.867  -1.085   2.572  0.00  0.00    +0.000 OA
ATOM     33  C   UNL     1       3.671  -0.104   4.361  0.00  0.00    +0.000 A 
ATOM     34  H   UNL     1       6.330  -2.038   4.318  0.00  0.00    +0.000 HD
ENDBRANCH  21  24
ENDBRANCH   2  20
TORSDOF 6
