REMARK  Name = 
REMARK  9 active torsions:
REMARK  status: ('A' for Active; 'I' for Inactive)
REMARK    1  A    between atoms: C_1  and  O_2
REMARK    2  A    between atoms: O_2  and  C_3
REMARK    3  A    between atoms: C_10  and  C_11
REMARK    4  A    between atoms: N_13  and  C_14
REMARK    5  A    between atoms: C_14  and  C_15
REMARK    6  A    between atoms: C_18  and  O_19
REMARK    7  A    between atoms: O_19  and  C_20
REMARK    8  A    between atoms: C_20  and  C_21
REMARK    9  A    between atoms: C_21  and  N_22
REMARK                            x       y       z     vdW  Elec       q    Type
REMARK                         _______ _______ _______ _____ _____    ______ ____
ROOT
ATOM      1  C   UNL     1       2.574   3.316  -1.022  0.00  0.00    +0.000 C 
ENDROOT
BRANCH   1   2
ATOM      2  C   UNL     1       1.346   2.837  -1.753  0.00  0.00    +0.000 A 
ATOM      3  C   UNL     1       1.264   1.519  -2.222  0.00  0.00    +0.000 A 
ATOM      4  C   UNL     1       0.107   1.058  -2.863  0.00  0.00    +0.000 A 
ATOM      5  C   UNL     1      -0.985   1.905  -3.037  0.00  0.00    +0.000 A 
ATOM      6  C   UNL     1      -0.881   3.240  -2.644  0.00  0.00    +0.000 A 
ATOM      7  C   UNL     1       0.275   3.705  -2.006  0.00  0.00    +0.000 A 
BRANCH   5   8
ATOM      8  O   UNL     1      -2.186   1.534  -3.582  0.00  0.00    +0.000 OA
BRANCH   8   9
ATOM      9  C   UNL     1      -2.523   0.142  -3.444  0.00  0.00    +0.000 C 
BRANCH   9  10
ATOM     10  C   UNL     1      -4.056   0.002  -3.452  0.00  0.00    +0.000 C 
BRANCH  10  11
ATOM     11  N   UNL     1      -4.575  -1.378  -3.373  0.00  0.00    +0.000 NA
ATOM     12  C   UNL     1      -6.059  -1.384  -3.405  0.00  0.00    +0.000 C 
ATOM     13  C   UNL     1      -6.703  -0.926  -2.084  0.00  0.00    +0.000 C 
ATOM     14  O   UNL     1      -6.281  -1.759  -0.998  0.00  0.00    +0.000 OA
ATOM     15  C   UNL     1      -4.854  -1.745  -0.867  0.00  0.00    +0.000 C 
ATOM     16  C   UNL     1      -4.151  -2.140  -2.178  0.00  0.00    +0.000 C 
ENDBRANCH  10  11
ENDBRANCH   9  10
ENDBRANCH   8   9
ENDBRANCH   5   8
ENDBRANCH   1   2
BRANCH   1  19
ATOM     17  C   UNL     1       4.753   4.349  -1.501  0.00  0.00    +0.000 C 
ATOM     18  O   UNL     1       5.077   4.294  -0.320  0.00  0.00    +0.000 OA
ATOM     19  N   UNL     1       3.540   3.882  -1.929  0.00  0.00    +0.000 N 
ATOM     20  H   UNL     1       3.281   3.950  -2.903  0.00  0.00    +0.000 HD
BRANCH  17  28
ATOM     21  C   UNL     1       4.559   4.675  -4.923  0.00  0.00    +0.000 A 
ATOM     22  N   UNL     1       4.715   4.969  -6.228  0.00  0.00    +0.000 NA
ATOM     23  C   UNL     1       5.826   5.613  -6.597  0.00  0.00    +0.000 A 
ATOM     24  N   UNL     1       6.824   6.002  -5.809  0.00  0.00    +0.000 NA
ATOM     25  C   UNL     1       6.622   5.702  -4.514  0.00  0.00    +0.000 A 
ATOM     26  S   UNL     1       7.798   6.117  -3.363  0.00  0.00    +0.000 S 
ATOM     27  C   UNL     1       6.864   5.465  -2.102  0.00  0.00    +0.000 A 
ATOM     28  C   UNL     1       5.651   4.928  -2.518  0.00  0.00    +0.000 A 
ATOM     29  C   UNL     1       5.518   5.056  -3.968  0.00  0.00    +0.000 A 
BRANCH  21  31
ATOM     30  C   UNL     1       2.823   3.250  -5.585  0.00  0.00    +0.000 C 
ATOM     31  O   UNL     1       3.412   4.016  -4.537  0.00  0.00    +0.000 OA
ENDBRANCH  21  31
ENDBRANCH  17  28
ENDBRANCH   1  19
TORSDOF 8
