REMARK  Name = 
REMARK  8 active torsions:
REMARK  status: ('A' for Active; 'I' for Inactive)
REMARK    1  A    between atoms: N_1  and  C_2
REMARK    2  A    between atoms: C_2  and  C_3
REMARK    3  A    between atoms: C_3  and  N_4
REMARK    4  A    between atoms: N_4  and  C_5
REMARK    5  A    between atoms: C_5  and  C_6
REMARK    6  A    between atoms: C_8  and  C_9
REMARK    7  A    between atoms: C_9  and  N_10
REMARK    8  A    between atoms: C_11  and  C_13
REMARK                            x       y       z     vdW  Elec       q    Type
REMARK                         _______ _______ _______ _____ _____    ______ ____
ROOT
ATOM      1  C   UNL     1       9.276  -2.379   2.846  0.00  0.00    +0.000 C 
ENDROOT
BRANCH   1   4
ATOM      2  C   UNL     1       6.501  -2.926   0.330  0.00  0.00    +0.000 A 
ATOM      3  C   UNL     1       7.156  -2.691   1.537  0.00  0.00    +0.000 A 
ATOM      4  C   UNL     1       8.552  -2.658   1.561  0.00  0.00    +0.000 A 
ATOM      5  C   UNL     1       9.243  -2.843   0.361  0.00  0.00    +0.000 A 
ATOM      6  C   UNL     1       8.515  -3.077  -0.794  0.00  0.00    +0.000 A 
ATOM      7  N   UNL     1       7.166  -3.123  -0.838  0.00  0.00    +0.000 NA
BRANCH   2   8
ATOM      8  C   UNL     1       4.986  -2.875   0.277  0.00  0.00    +0.000 C 
BRANCH   8   9
ATOM      9  N   UNL     1       4.415  -1.546   0.573  0.00  0.00    +0.000 NA
ATOM     10  H   UNL     1       3.410  -1.618   0.393  0.00  0.00    +0.000 HD
BRANCH   9  11
ATOM     11  C   UNL     1       4.914  -0.505  -0.343  0.00  0.00    +0.000 C 
BRANCH  11  12
ATOM     12  C   UNL     1       4.457  -0.692  -1.803  0.00  0.00    +0.000 C 
BRANCH  12  13
ATOM     13  N   UNL     1       2.998  -0.832  -1.889  0.00  0.00    +0.000 NA
ATOM     14  H   UNL     1       2.738  -0.947  -2.868  0.00  0.00    +0.000 HD
ATOM     15  H   UNL     1       2.566   0.038  -1.580  0.00  0.00    +0.000 HD
ENDBRANCH  12  13
ENDBRANCH  11  12
ENDBRANCH   9  11
ENDBRANCH   8   9
ENDBRANCH   2   8
ENDBRANCH   1   4
BRANCH   1  16
ATOM     16  N   UNL     1       9.524  -0.969   3.017  0.00  0.00    +0.000 N 
ATOM     17  C   UNL     1       8.755  -0.182   3.835  0.00  0.00    +0.000 C 
ATOM     18  O   UNL     1       7.810  -0.632   4.478  0.00  0.00    +0.000 OA
ATOM     19  H   UNL     1      10.176  -0.536   2.373  0.00  0.00    +0.000 HD
BRANCH  17  20
ATOM     20  C   UNL     1       9.166   1.223   3.971  0.00  0.00    +0.000 A 
ATOM     21  C   UNL     1       8.728   1.954   5.067  0.00  0.00    +0.000 A 
ATOM     22  S   UNL     1       9.323   3.550   5.111  0.00  0.00    +0.000 S 
ATOM     23  C   UNL     1      10.151   3.339   3.641  0.00  0.00    +0.000 A 
ATOM     24  N   UNL     1      10.861   4.360   3.089  0.00  0.00    +0.000 NA
ATOM     25  C   UNL     1      11.412   4.078   1.956  0.00  0.00    +0.000 A 
ATOM     26  N   UNL     1      11.324   2.860   1.330  0.00  0.00    +0.000 N 
ATOM     27  C   UNL     1      10.674   1.780   1.882  0.00  0.00    +0.000 A 
ATOM     28  O   UNL     1      10.709   0.678   1.344  0.00  0.00    +0.000 OA
ATOM     29  C   UNL     1       9.999   2.058   3.136  0.00  0.00    +0.000 A 
ATOM     30  H   UNL     1      11.799   2.697   0.455  0.00  0.00    +0.000 HD
ENDBRANCH  17  20
ENDBRANCH   1  16
TORSDOF 8
