REMARK  Name = 
REMARK  5 active torsions:
REMARK  status: ('A' for Active; 'I' for Inactive)
REMARK    1  A    between atoms: N_1  and  C_2
REMARK    2  A    between atoms: C_2  and  C_3
REMARK    3  A    between atoms: C_6  and  S_7
REMARK    4  A    between atoms: S_7  and  C_8
REMARK    5  A    between atoms: C_8  and  C_9
REMARK                            x       y       z     vdW  Elec       q    Type
REMARK                         _______ _______ _______ _____ _____    ______ ____
ROOT
ATOM      1  C   UNL     1       2.845  -0.661  -1.243  0.00  0.00    +0.000 A 
ATOM      2  C   UNL     1       3.389   0.094  -2.284  0.00  0.00    +0.000 A 
ATOM      3  C   UNL     1       3.800  -0.536  -3.459  0.00  0.00    +0.000 A 
ATOM      4  C   UNL     1       3.644  -1.912  -3.571  0.00  0.00    +0.000 A 
ATOM      5  N   UNL     1       3.127  -2.668  -2.577  0.00  0.00    +0.000 NA
ATOM      6  C   UNL     1       2.747  -2.032  -1.445  0.00  0.00    +0.000 A 
ENDROOT
BRANCH   1   7
ATOM      7  C   UNL     1       2.395  -0.031   0.045  0.00  0.00    +0.000 C 
BRANCH   7   8
ATOM      8  N   UNL     1       1.309   0.917  -0.171  0.00  0.00    +0.000 NA
ATOM      9  H   UNL     1       0.968   1.247   0.730  0.00  0.00    +0.000 HD
ATOM     10  H   UNL     1       0.526   0.436  -0.612  0.00  0.00    +0.000 HD
ENDBRANCH   7   8
ENDBRANCH   1   7
BRANCH   4  11
ATOM     11  S   UNL     1       4.179  -2.739  -5.060  0.00  0.00    +0.000 S 
BRANCH  11  12
ATOM     12  C   UNL     1       3.081  -4.191  -5.017  0.00  0.00    +0.000 C 
BRANCH  12  13
ATOM     13  C   UNL     1       3.374  -5.162  -6.137  0.00  0.00    +0.000 A 
ATOM     14  C   UNL     1       4.260  -6.230  -5.934  0.00  0.00    +0.000 A 
ATOM     15  C   UNL     1       4.513  -7.149  -6.954  0.00  0.00    +0.000 A 
ATOM     16  C   UNL     1       3.889  -7.007  -8.191  0.00  0.00    +0.000 A 
ATOM     17  C   UNL     1       3.016  -5.942  -8.411  0.00  0.00    +0.000 A 
ATOM     18  C   UNL     1       2.761  -5.022  -7.393  0.00  0.00    +0.000 A 
ENDBRANCH  12  13
ENDBRANCH  11  12
ENDBRANCH   4  11
TORSDOF 5
