REMARK  Name = 
REMARK  7 active torsions:
REMARK  status: ('A' for Active; 'I' for Inactive)
REMARK    1  A    between atoms: C_1  and  C_2
REMARK    2  A    between atoms: C_2  and  C_3
REMARK    3  A    between atoms: C_2  and  C_15
REMARK    4  A    between atoms: C_3  and  N_4
REMARK    5  A    between atoms: N_4  and  C_5
REMARK    6  A    between atoms: C_8  and  C_9
REMARK    7  A    between atoms: C_19  and  C_20
REMARK                            x       y       z     vdW  Elec       q    Type
REMARK                         _______ _______ _______ _____ _____    ______ ____
ROOT
ATOM      1  N   UNL     1       2.789   0.047  -2.423  0.00  0.00    +0.000 N 
ATOM      2  H   UNL     1       1.785  -0.101  -2.517  0.00  0.00    +0.000 HD
ENDROOT
BRANCH   1   3
ATOM      3  C   UNL     1       3.347   0.539  -3.611  0.00  0.00    +0.000 A 
ATOM      4  C   UNL     1       2.699   0.317  -4.835  0.00  0.00    +0.000 A 
ATOM      5  C   UNL     1       3.258   0.763  -6.042  0.00  0.00    +0.000 A 
ATOM      6  C   UNL     1       4.499   1.413  -6.047  0.00  0.00    +0.000 A 
ATOM      7  C   UNL     1       5.162   1.585  -4.836  0.00  0.00    +0.000 A 
ATOM      8  F   UNL     1       6.364   2.181  -4.773  0.00  0.00    +0.000 F 
ATOM      9  C   UNL     1       4.607   1.141  -3.645  0.00  0.00    +0.000 A 
BRANCH   6  10
ATOM     10  C   UNL     1       5.070   1.885  -7.334  0.00  0.00    +0.000 C 
ATOM     11  N   UNL     1       6.287   2.507  -7.302  0.00  0.00    +0.000 N 
ATOM     12  O   UNL     1       4.476   1.729  -8.390  0.00  0.00    +0.000 OA
ATOM     13  H   UNL     1       6.813   2.645  -6.448  0.00  0.00    +0.000 HD
ATOM     14  H   UNL     1       6.689   2.824  -8.173  0.00  0.00    +0.000 HD
ENDBRANCH   6  10
ENDBRANCH   1   3
BRANCH   1  15
ATOM     15  C   UNL     1       3.115   0.778  -1.199  0.00  0.00    +0.000 C 
BRANCH  15  17
ATOM     16  C   UNL     1       2.850  -1.195   0.424  0.00  0.00    +0.000 C 
ATOM     17  C   UNL     1       2.375   0.135  -0.069  0.00  0.00    +0.000 C 
BRANCH  17  18
ATOM     18  C   UNL     1       0.986   0.549   0.166  0.00  0.00    +0.000 A 
ATOM     19  C   UNL     1       0.665   1.884   0.441  0.00  0.00    +0.000 A 
ATOM     20  C   UNL     1      -0.669   2.271   0.576  0.00  0.00    +0.000 A 
ATOM     21  C   UNL     1      -1.688   1.328   0.430  0.00  0.00    +0.000 A 
ATOM     22  C   UNL     1      -1.371  -0.004   0.169  0.00  0.00    +0.000 A 
ATOM     23  C   UNL     1      -0.037  -0.393   0.048  0.00  0.00    +0.000 A 
BRANCH  22  24
ATOM     24  C   UNL     1      -2.404  -0.980  -0.006  0.00  0.00    +0.000 C 
ATOM     25  N   UNL     1      -3.227  -1.781  -0.167  0.00  0.00    +0.000 NA
ENDBRANCH  22  24
ENDBRANCH  17  18
ENDBRANCH  15  17
ENDBRANCH   1  15
TORSDOF 6
