REMARK  Name = 
REMARK  5 active torsions:
REMARK  status: ('A' for Active; 'I' for Inactive)
REMARK    1  A    between atoms: N_1  and  C_2
REMARK    2  A    between atoms: C_2  and  C_3
REMARK    3  A    between atoms: C_6  and  C_7
REMARK    4  A    between atoms: C_7  and  N_8
REMARK    5  A    between atoms: C_13  and  C_14
REMARK                            x       y       z     vdW  Elec       q    Type
REMARK                         _______ _______ _______ _____ _____    ______ ____
ROOT
ATOM      1  N   UNL     1       7.507   1.703  -2.596  0.00  0.00    +0.000 N 
ATOM      2  C   UNL     1       8.125   1.811  -3.812  0.00  0.00    +0.000 A 
ATOM      3  N   UNL     1       9.241   1.120  -3.854  0.00  0.00    +0.000 NA
ATOM      4  C   UNL     1       9.374   0.579  -2.600  0.00  0.00    +0.000 A 
ATOM      5  C   UNL     1      10.392  -0.246  -2.100  0.00  0.00    +0.000 A 
ATOM      6  C   UNL     1      10.338  -0.645  -0.755  0.00  0.00    +0.000 A 
ATOM      7  C   UNL     1       9.266  -0.237   0.055  0.00  0.00    +0.000 A 
ATOM      8  C   UNL     1       8.228   0.563  -0.437  0.00  0.00    +0.000 A 
ATOM      9  C   UNL     1       8.316   0.954  -1.776  0.00  0.00    +0.000 A 
ENDROOT
BRANCH   6  10
ATOM     10  C   UNL     1      11.394  -1.491  -0.126  0.00  0.00    +0.000 C 
ATOM     11  N   UNL     1      12.467  -1.873  -0.880  0.00  0.00    +0.000 N 
ATOM     12  O   UNL     1      11.321  -1.832   1.049  0.00  0.00    +0.000 OA
ATOM     13  H   UNL     1      12.633  -1.611  -1.838  0.00  0.00    +0.000 HD
ATOM     14  H   UNL     1      13.176  -2.424  -0.412  0.00  0.00    +0.000 HD
ENDBRANCH   6  10
BRANCH   1  15
ATOM     15  C   UNL     1       6.208   2.260  -2.264  0.00  0.00    +0.000 C 
BRANCH  15  19
ATOM     16  C   UNL     1       2.870   0.404  -1.490  0.00  0.00    +0.000 C 
ATOM     17  C   UNL     1       4.219  -0.292  -1.736  0.00  0.00    +0.000 C 
ATOM     18  C   UNL     1       4.902   0.171  -3.022  0.00  0.00    +0.000 C 
ATOM     19  C   UNL     1       5.058   1.700  -3.128  0.00  0.00    +0.000 C 
ATOM     20  C   UNL     1       3.736   2.419  -2.807  0.00  0.00    +0.000 C 
ATOM     21  C   UNL     1       3.068   1.928  -1.522  0.00  0.00    +0.000 C 
BRANCH  16  22
ATOM     22  C   UNL     1       1.764  -0.034  -2.474  0.00  0.00    +0.000 C 
BRANCH  22  23
ATOM     23  N   UNL     1       1.461  -1.455  -2.352  0.00  0.00    +0.000 NA
ATOM     24  H   UNL     1       0.716  -1.701  -3.004  0.00  0.00    +0.000 HD
ATOM     25  H   UNL     1       1.097  -1.651  -1.420  0.00  0.00    +0.000 HD
ENDBRANCH  22  23
ENDBRANCH  16  22
ENDBRANCH  15  19
ENDBRANCH   1  15
TORSDOF 5
