REMARK  Name = 
REMARK  8 active torsions:
REMARK  status: ('A' for Active; 'I' for Inactive)
REMARK    1  A    between atoms: C_2  and  C_3
REMARK    2  A    between atoms: C_7  and  C_8
REMARK    3  A    between atoms: C_8  and  N_9
REMARK    4  A    between atoms: N_9  and  C_10
REMARK    5  A    between atoms: C_10  and  C_11
REMARK    6  A    between atoms: C_14  and  C_15
REMARK    7  A    between atoms: C_15  and  N_16
REMARK    8  A    between atoms: C_17  and  C_19
REMARK                            x       y       z     vdW  Elec       q    Type
REMARK                         _______ _______ _______ _____ _____    ______ ____
ROOT
ATOM      1  C   UNL     1       6.019   3.316   0.140  0.00  0.00    +0.000 A 
ATOM      2  C   UNL     1       6.908   4.393   0.155  0.00  0.00    +0.000 A 
ATOM      3  C   UNL     1       8.275   4.157   0.253  0.00  0.00    +0.000 A 
ATOM      4  C   UNL     1       8.727   2.844   0.347  0.00  0.00    +0.000 A 
ATOM      5  N   UNL     1       7.884   1.780   0.308  0.00  0.00    +0.000 NA
ATOM      6  C   UNL     1       6.562   2.038   0.205  0.00  0.00    +0.000 A 
ENDROOT
BRANCH   1   7
ATOM      7  C   UNL     1       4.532   3.532   0.089  0.00  0.00    +0.000 C 
BRANCH   7   8
ATOM      8  N   UNL     1       3.817   2.958   1.231  0.00  0.00    +0.000 NA
ATOM      9  H   UNL     1       2.818   3.119   1.107  0.00  0.00    +0.000 HD
BRANCH   8  10
ATOM     10  C   UNL     1       4.222   3.554   2.506  0.00  0.00    +0.000 C 
BRANCH  10  15
ATOM     11  C   UNL     1       2.862   0.947   4.939  0.00  0.00    +0.000 A 
ATOM     12  C   UNL     1       2.106   1.743   5.805  0.00  0.00    +0.000 A 
ATOM     13  C   UNL     1       2.029   3.121   5.600  0.00  0.00    +0.000 A 
ATOM     14  C   UNL     1       2.705   3.710   4.529  0.00  0.00    +0.000 A 
ATOM     15  C   UNL     1       3.465   2.925   3.652  0.00  0.00    +0.000 A 
ATOM     16  C   UNL     1       3.543   1.539   3.872  0.00  0.00    +0.000 A 
BRANCH  11  18
ATOM     17  N   UNL     1       2.992  -1.616   5.314  0.00  0.00    +0.000 NA
ATOM     18  C   UNL     1       2.938  -0.470   5.144  0.00  0.00    +0.000 C 
ENDBRANCH  11  18
ENDBRANCH  10  15
ENDBRANCH   8  10
ENDBRANCH   7   8
ENDBRANCH   1   7
BRANCH   4  19
ATOM     19  C   UNL     1      10.201   2.558   0.478  0.00  0.00    +0.000 C 
BRANCH  19  20
ATOM     20  N   UNL     1      10.835   2.379  -0.808  0.00  0.00    +0.000 N 
ATOM     21  C   UNL     1      11.513   3.383  -1.443  0.00  0.00    +0.000 C 
ATOM     22  O   UNL     1      11.631   4.503  -0.953  0.00  0.00    +0.000 OA
ATOM     23  H   UNL     1      10.538   1.559  -1.328  0.00  0.00    +0.000 HD
BRANCH  21  24
ATOM     24  C   UNL     1      12.160   3.030  -2.713  0.00  0.00    +0.000 A 
ATOM     25  C   UNL     1      13.241   3.777  -3.163  0.00  0.00    +0.000 A 
ATOM     26  S   UNL     1      13.905   3.208  -4.626  0.00  0.00    +0.000 S 
ATOM     27  C   UNL     1      12.746   1.967  -4.734  0.00  0.00    +0.000 A 
ATOM     28  N   UNL     1      12.736   1.109  -5.789  0.00  0.00    +0.000 NA
ATOM     29  C   UNL     1      11.786   0.233  -5.755  0.00  0.00    +0.000 A 
ATOM     30  N   UNL     1      10.849   0.136  -4.760  0.00  0.00    +0.000 N 
ATOM     31  C   UNL     1      10.850   0.951  -3.654  0.00  0.00    +0.000 A 
ATOM     32  O   UNL     1      10.046   0.784  -2.743  0.00  0.00    +0.000 OA
ATOM     33  C   UNL     1      11.879   1.972  -3.655  0.00  0.00    +0.000 A 
ATOM     34  H   UNL     1      10.142  -0.583  -4.780  0.00  0.00    +0.000 HD
ENDBRANCH  21  24
ENDBRANCH  19  20
ENDBRANCH   4  19
TORSDOF 8
