REMARK  Name = 
REMARK  5 active torsions:
REMARK  status: ('A' for Active; 'I' for Inactive)
REMARK    1  A    between atoms: C_2  and  C_4
REMARK    2  A    between atoms: C_7  and  O_8
REMARK    3  A    between atoms: O_8  and  C_9
REMARK    4  A    between atoms: C_9  and  C_10
REMARK    5  A    between atoms: C_14  and  C_15
REMARK                            x       y       z     vdW  Elec       q    Type
REMARK                         _______ _______ _______ _____ _____    ______ ____
ROOT
ATOM      1  C   UNL     1       4.889   3.352   4.922  0.00  0.00    +0.000 C 
ATOM      2  C   UNL     1       5.031   2.389   6.095  0.00  0.00    +0.000 C 
ATOM      3  C   UNL     1       3.674   2.830   5.660  0.00  0.00    +0.000 C 
ENDROOT
BRANCH   1   4
ATOM      4  C   UNL     1       5.369   4.781   5.103  0.00  0.00    +0.000 A 
ATOM      5  C   UNL     1       6.738   5.061   5.231  0.00  0.00    +0.000 A 
ATOM      6  C   UNL     1       7.207   6.370   5.294  0.00  0.00    +0.000 A 
ATOM      7  C   UNL     1       6.309   7.435   5.225  0.00  0.00    +0.000 A 
ATOM      8  C   UNL     1       4.928   7.216   5.091  0.00  0.00    +0.000 A 
ATOM      9  C   UNL     1       4.485   5.878   5.052  0.00  0.00    +0.000 A 
BRANCH   8  10
ATOM     10  C   UNL     1       3.988   8.344   4.919  0.00  0.00    +0.000 A 
ATOM     11  C   UNL     1       4.319   9.463   4.139  0.00  0.00    +0.000 A 
ATOM     12  C   UNL     1       3.403  10.496   3.943  0.00  0.00    +0.000 A 
ATOM     13  C   UNL     1       2.160  10.389   4.537  0.00  0.00    +0.000 A 
ATOM     14  N   UNL     1       1.790   9.345   5.306  0.00  0.00    +0.000 NA
ATOM     15  C   UNL     1       2.707   8.357   5.476  0.00  0.00    +0.000 A 
ENDBRANCH   8  10
ENDBRANCH   1   4
BRANCH   1  16
ATOM     16  O   UNL     1       5.287   2.709   3.688  0.00  0.00    +0.000 OA
BRANCH  16  20
ATOM     17  C   UNL     1       3.012   2.986   0.346  0.00  0.00    +0.000 A 
ATOM     18  C   UNL     1       2.603   3.632   1.508  0.00  0.00    +0.000 A 
ATOM     19  N   UNL     1       3.333   3.606   2.657  0.00  0.00    +0.000 NA
ATOM     20  C   UNL     1       4.494   2.916   2.577  0.00  0.00    +0.000 A 
ATOM     21  C   UNL     1       4.917   2.300   1.403  0.00  0.00    +0.000 A 
ATOM     22  N   UNL     1       4.192   2.307   0.259  0.00  0.00    +0.000 NA
BRANCH  17  24
ATOM     23  N   UNL     1       2.561   2.181  -1.888  0.00  0.00    +0.000 N 
ATOM     24  C   UNL     1       2.121   2.953  -0.843  0.00  0.00    +0.000 C 
ATOM     25  O   UNL     1       1.056   3.552  -0.887  0.00  0.00    +0.000 OA
ATOM     26  H   UNL     1       1.977   2.065  -2.704  0.00  0.00    +0.000 HD
ATOM     27  H   UNL     1       3.428   1.663  -1.804  0.00  0.00    +0.000 HD
ENDBRANCH  17  24
ENDBRANCH  16  20
ENDBRANCH   1  16
TORSDOF 5
