REMARK  Name = 
REMARK  3 active torsions:
REMARK  status: ('A' for Active; 'I' for Inactive)
REMARK    1  A    between atoms: C_2  and  C_4
REMARK    2  A    between atoms: N_8  and  C_9
REMARK    3  A    between atoms: C_9  and  C_10
REMARK                            x       y       z     vdW  Elec       q    Type
REMARK                         _______ _______ _______ _____ _____    ______ ____
ROOT
ATOM      1  C   UNL     1       5.536   2.225   0.395  0.00  0.00    +0.000 A 
ATOM      2  C   UNL     1       5.982   1.331  -0.572  0.00  0.00    +0.000 A 
ATOM      3  C   UNL     1       5.733   1.607  -1.917  0.00  0.00    +0.000 A 
ATOM      4  C   UNL     1       5.064   2.777  -2.283  0.00  0.00    +0.000 A 
ATOM      5  N   UNL     1       4.905   3.030  -3.656  0.00  0.00    +0.000 N 
ATOM      6  N   UNL     1       4.622   3.639  -1.344  0.00  0.00    +0.000 NA
ATOM      7  C   UNL     1       4.840   3.342  -0.035  0.00  0.00    +0.000 A 
ATOM      8  H   UNL     1       4.470   2.253  -4.142  0.00  0.00    +0.000 HD
ENDROOT
BRANCH   1  10
ATOM      9  N   UNL     1       6.886   1.334   2.204  0.00  0.00    +0.000 N 
ATOM     10  C   UNL     1       5.763   2.027   1.840  0.00  0.00    +0.000 C 
ATOM     11  O   UNL     1       5.010   2.503   2.678  0.00  0.00    +0.000 OA
ATOM     12  H   UNL     1       7.100   1.311   3.193  0.00  0.00    +0.000 HD
ATOM     13  H   UNL     1       7.653   1.177   1.560  0.00  0.00    +0.000 HD
ENDBRANCH   1  10
BRANCH   5  14
ATOM     14  C   UNL     1       4.777   4.353  -4.282  0.00  0.00    +0.000 C 
ATOM     15  C   UNL     1       4.406   5.641  -3.560  0.00  0.00    +0.000 C 
ATOM     16  C   UNL     1       3.388   4.958  -4.410  0.00  0.00    +0.000 C 
BRANCH  14  17
ATOM     17  C   UNL     1       5.774   4.555  -5.419  0.00  0.00    +0.000 A 
ATOM     18  C   UNL     1       7.085   4.985  -5.137  0.00  0.00    +0.000 A 
ATOM     19  C   UNL     1       7.950   5.392  -6.154  0.00  0.00    +0.000 A 
ATOM     20  C   UNL     1       7.530   5.351  -7.481  0.00  0.00    +0.000 A 
ATOM     21  C   UNL     1       6.273   4.839  -7.792  0.00  0.00    +0.000 A 
ATOM     22  C   UNL     1       5.421   4.430  -6.769  0.00  0.00    +0.000 A 
ATOM     23  F   UNL     1       4.212   3.951  -7.102  0.00  0.00    +0.000 F 
ENDBRANCH  14  17
ENDBRANCH   5  14
TORSDOF 3
