REMARK  Name = 
REMARK  5 active torsions:
REMARK  status: ('A' for Active; 'I' for Inactive)
REMARK    1  A    between atoms: C_2  and  C_18
REMARK    2  A    between atoms: N_3  and  C_4
REMARK    3  A    between atoms: C_4  and  C_5
REMARK    4  A    between atoms: N_9  and  C_10
REMARK    5  A    between atoms: C_10  and  C_11
REMARK                            x       y       z     vdW  Elec       q    Type
REMARK                         _______ _______ _______ _____ _____    ______ ____
ROOT
ATOM      1  C   UNL     1       2.184  -1.746  -1.958  0.00  0.00    +0.000 C 
ENDROOT
BRANCH   1   2
ATOM      2  C   UNL     1       3.125  -2.513  -2.836  0.00  0.00    +0.000 A 
ATOM      3  C   UNL     1       4.144  -1.890  -3.554  0.00  0.00    +0.000 A 
ATOM      4  C   UNL     1       4.970  -2.653  -4.381  0.00  0.00    +0.000 A 
ATOM      5  C   UNL     1       4.739  -4.020  -4.513  0.00  0.00    +0.000 A 
ATOM      6  N   UNL     1       5.570  -4.767  -5.372  0.00  0.00    +0.000 N 
ATOM      7  N   UNL     1       3.790  -4.641  -3.784  0.00  0.00    +0.000 NA
ATOM      8  C   UNL     1       3.024  -3.891  -2.956  0.00  0.00    +0.000 A 
ATOM      9  H   UNL     1       5.878  -4.179  -6.141  0.00  0.00    +0.000 HD
BRANCH   6  10
ATOM     10  C   UNL     1       4.925  -5.991  -5.856  0.00  0.00    +0.000 C 
BRANCH  10  11
ATOM     11  C   UNL     1       5.797  -6.778  -6.850  0.00  0.00    +0.000 C 
ATOM     12  C   UNL     1       7.138  -7.215  -6.275  0.00  0.00    +0.000 C 
ATOM     13  C   UNL     1       8.102  -6.155  -6.763  0.00  0.00    +0.000 C 
ATOM     14  N   UNL     1       7.632  -5.817  -8.113  0.00  0.00    +0.000 NA
ATOM     15  C   UNL     1       6.170  -5.993  -8.109  0.00  0.00    +0.000 C 
ATOM     16  H   UNL     1       8.034  -6.490  -8.766  0.00  0.00    +0.000 HD
ENDBRANCH  10  11
ENDBRANCH   6  10
ENDBRANCH   1   2
BRANCH   1  19
ATOM     17  O   UNL     1       1.593  -3.278   0.319  0.00  0.00    +0.000 OA
ATOM     18  C   UNL     1       2.410  -2.367   0.417  0.00  0.00    +0.000 C 
ATOM     19  N   UNL     1       2.724  -1.552  -0.639  0.00  0.00    +0.000 N 
ATOM     20  H   UNL     1       3.514  -0.921  -0.564  0.00  0.00    +0.000 HD
BRANCH  18  21
ATOM     21  C   UNL     1       3.064  -2.056   1.695  0.00  0.00    +0.000 A 
ATOM     22  C   UNL     1       2.501  -2.504   2.883  0.00  0.00    +0.000 A 
ATOM     23  S   UNL     1       3.373  -2.038   4.272  0.00  0.00    +0.000 S 
ATOM     24  C   UNL     1       4.558  -1.259   3.334  0.00  0.00    +0.000 A 
ATOM     25  N   UNL     1       5.629  -0.662   3.920  0.00  0.00    +0.000 NA
ATOM     26  C   UNL     1       6.475  -0.148   3.090  0.00  0.00    +0.000 A 
ATOM     27  N   UNL     1       6.338  -0.166   1.726  0.00  0.00    +0.000 N 
ATOM     28  C   UNL     1       5.237  -0.688   1.094  0.00  0.00    +0.000 A 
ATOM     29  O   UNL     1       5.085  -0.568  -0.119  0.00  0.00    +0.000 OA
ATOM     30  C   UNL     1       4.279  -1.326   1.980  0.00  0.00    +0.000 A 
ATOM     31  H   UNL     1       7.021   0.280   1.133  0.00  0.00    +0.000 HD
ENDBRANCH  18  21
ENDBRANCH   1  19
TORSDOF 5
