REMARK  Name = 
REMARK  8 active torsions:
REMARK  status: ('A' for Active; 'I' for Inactive)
REMARK    1  A    between atoms: C_1  and  C_2
REMARK    2  A    between atoms: C_2  and  N_3
REMARK    3  A    between atoms: C_4  and  C_6
REMARK    4  A    between atoms: N_10  and  C_11
REMARK    5  A    between atoms: C_11  and  C_12
REMARK    6  A    between atoms: C_12  and  C_13
REMARK    7  A    between atoms: C_12  and  C_14
REMARK    8  A    between atoms: C_12  and  C_15
REMARK                            x       y       z     vdW  Elec       q    Type
REMARK                         _______ _______ _______ _____ _____    ______ ____
ROOT
ATOM      1  C   UNL     1       4.771  -2.785   1.344  0.00  0.00    +0.000 A 
ATOM      2  C   UNL     1       6.104  -2.580   1.689  0.00  0.00    +0.000 A 
ATOM      3  C   UNL     1       6.820  -3.637   2.263  0.00  0.00    +0.000 A 
ATOM      4  C   UNL     1       6.207  -4.873   2.471  0.00  0.00    +0.000 A 
ATOM      5  N   UNL     1       7.000  -5.920   2.918  0.00  0.00    +0.000 N 
ATOM      6  N   UNL     1       4.917  -5.076   2.143  0.00  0.00    +0.000 NA
ATOM      7  C   UNL     1       4.230  -4.029   1.610  0.00  0.00    +0.000 A 
ATOM      8  H   UNL     1       7.636  -5.690   3.670  0.00  0.00    +0.000 HD
ENDROOT
BRANCH   1  10
ATOM      9  N   UNL     1       4.522  -0.739   0.029  0.00  0.00    +0.000 N 
ATOM     10  C   UNL     1       3.900  -1.736   0.759  0.00  0.00    +0.000 C 
ATOM     11  O   UNL     1       2.691  -1.788   0.924  0.00  0.00    +0.000 OA
ATOM     12  H   UNL     1       5.493  -0.834  -0.230  0.00  0.00    +0.000 HD
BRANCH   9  14
ATOM     13  C   UNL     1       3.224  -0.053  -1.952  0.00  0.00    +0.000 C 
ATOM     14  C   UNL     1       3.750   0.327  -0.580  0.00  0.00    +0.000 C 
ENDBRANCH   9  14
ENDBRANCH   1  10
BRANCH   5  15
ATOM     15  C   UNL     1       6.502  -7.292   2.817  0.00  0.00    +0.000 C 
BRANCH  15  16
ATOM     16  C   UNL     1       7.365  -8.315   3.619  0.00  0.00    +0.000 C 
ATOM     17  C   UNL     1       8.861  -8.130   3.260  0.00  0.00    +0.000 C 
ATOM     18  C   UNL     1       7.202  -8.091   5.139  0.00  0.00    +0.000 C 
BRANCH  16  19
ATOM     19  C   UNL     1       6.914  -9.749   3.276  0.00  0.00    +0.000 A 
ATOM     20  C   UNL     1       5.613 -10.189   3.533  0.00  0.00    +0.000 A 
ATOM     21  C   UNL     1       5.259 -11.501   3.225  0.00  0.00    +0.000 A 
ATOM     22  C   UNL     1       6.202 -12.353   2.666  0.00  0.00    +0.000 A 
ATOM     23  C   UNL     1       7.468 -11.851   2.438  0.00  0.00    +0.000 A 
ATOM     24  N   UNL     1       7.836 -10.583   2.729  0.00  0.00    +0.000 NA
ENDBRANCH  16  19
ENDBRANCH  15  16
ENDBRANCH   5  15
TORSDOF 5
