REMARK  Name = 
REMARK  6 active torsions:
REMARK  status: ('A' for Active; 'I' for Inactive)
REMARK    1  A    between atoms: C_1  and  N_2
REMARK    2  A    between atoms: N_2  and  C_3
REMARK    3  A    between atoms: C_3  and  C_4
REMARK    4  A    between atoms: C_4  and  C_5
REMARK    5  A    between atoms: C_8  and  C_9
REMARK    6  A    between atoms: C_9  and  N_10
REMARK                            x       y       z     vdW  Elec       q    Type
REMARK                         _______ _______ _______ _____ _____    ______ ____
ROOT
ATOM      1  C   UNL     1       4.785  -2.343  -1.685  0.00  0.00    +0.000 A 
ATOM      2  C   UNL     1       5.408  -2.112  -2.912  0.00  0.00    +0.000 A 
ATOM      3  C   UNL     1       5.767  -3.189  -3.722  0.00  0.00    +0.000 A 
ATOM      4  C   UNL     1       5.507  -4.483  -3.277  0.00  0.00    +0.000 A 
ATOM      5  N   UNL     1       4.894  -4.730  -2.094  0.00  0.00    +0.000 NA
ATOM      6  C   UNL     1       4.537  -3.667  -1.340  0.00  0.00    +0.000 A 
ENDROOT
BRANCH   1   7
ATOM      7  C   UNL     1       4.384  -1.215  -0.769  0.00  0.00    +0.000 C 
BRANCH   7   8
ATOM      8  C   UNL     1       5.120  -1.277   0.580  0.00  0.00    +0.000 C 
BRANCH   8  10
ATOM      9  C   UNL     1       5.367  -0.274   2.752  0.00  0.00    +0.000 C 
ATOM     10  N   UNL     1       4.695  -0.186   1.461  0.00  0.00    +0.000 NA
ATOM     11  H   UNL     1       4.915   0.711   1.029  0.00  0.00    +0.000 HD
ENDBRANCH   8  10
ENDBRANCH   7   8
ENDBRANCH   1   7
BRANCH   4  12
ATOM     12  C   UNL     1       5.877  -5.683  -4.110  0.00  0.00    +0.000 C 
BRANCH  12  13
ATOM     13  N   UNL     1       4.816  -6.036  -5.036  0.00  0.00    +0.000 N 
ATOM     14  C   UNL     1       3.570  -6.467  -4.667  0.00  0.00    +0.000 A 
ATOM     15  N   UNL     1       2.811  -6.707  -5.710  0.00  0.00    +0.000 NA
ATOM     16  C   UNL     1       3.598  -6.438  -6.809  0.00  0.00    +0.000 A 
ATOM     17  C   UNL     1       3.328  -6.505  -8.187  0.00  0.00    +0.000 A 
ATOM     18 CL   UNL     1       1.750  -6.975  -8.643  0.00  0.00    +0.000 Cl
ATOM     19  C   UNL     1       4.311  -6.194  -9.125  0.00  0.00    +0.000 A 
ATOM     20  C   UNL     1       5.584  -5.821  -8.694  0.00  0.00    +0.000 A 
ATOM     21  C   UNL     1       5.895  -5.736  -7.330  0.00  0.00    +0.000 A 
ATOM     22  C   UNL     1       4.878  -6.038  -6.410  0.00  0.00    +0.000 A 
ENDBRANCH  12  13
ENDBRANCH   4  12
TORSDOF 5
