REMARK  Name = 
REMARK  10 active torsions:
REMARK  status: ('A' for Active; 'I' for Inactive)
REMARK    1  A    between atoms: CB_1  and  CA_2
REMARK    2  A    between atoms: CA_2  and  C_3
REMARK    3  A    between atoms: CA_2  and  N_5
REMARK    4  A    between atoms: C_3  and  O_4
REMARK    5  A    between atoms: N_5  and  C_6
REMARK    6  A    between atoms: C_6  and  C_7
REMARK    7  A    between atoms: C_10  and  C_11
REMARK    8  A    between atoms: C_11  and  O_12
REMARK    9  A    between atoms: O_12  and  C_13
REMARK   10  A    between atoms: C_16  and  C_17
REMARK                            x       y       z     vdW  Elec       q    Type
REMARK                         _______ _______ _______ _____ _____    ______ ____
ROOT
ATOM      1  C   UNK A   0       4.926  -2.771  -0.835  0.00  0.00    +0.000 A 
ATOM      2  C   UNK A   0       6.180  -2.956  -1.434  0.00  0.00    +0.000 A 
ATOM      3  C   UNK A   0       6.622  -4.232  -1.781  0.00  0.00    +0.000 A 
ATOM      4  C   UNK A   0       5.816  -5.355  -1.541  0.00  0.00    +0.000 A 
ATOM      5  C   UNK A   0       4.578  -5.178  -0.912  0.00  0.00    +0.000 A 
ATOM      6  C   UNK A   0       4.135  -3.898  -0.565  0.00  0.00    +0.000 A 
ENDROOT
BRANCH   1   7
ATOM      7  C   UNK A   0       4.442  -1.383  -0.490  0.00  0.00    +0.000 C 
BRANCH   7   8
ATOM      8  N   ALA A   1       4.326  -0.478  -1.646  0.00  0.00    +0.000 NA
ATOM      9  H   ALA A   1       4.035   0.436  -1.296  0.00  0.00    +0.000 HD
BRANCH   8  11
ATOM     10  CB  ALA A   1       1.924  -1.023  -2.145  0.00  0.00    +0.000 C 
ATOM     11  CA  ALA A   1       3.356  -0.930  -2.671  0.00  0.00    +0.000 C 
BRANCH  11  12
ATOM     12  C   ALA A   1       3.390   0.053  -3.865  0.00  0.00    +0.000 C 
BRANCH  12  13
ATOM     13  O   ALA A   1       4.711   0.173  -4.388  0.00  0.00    +0.000 OA
ATOM     14  H   ALA A   1       5.292   0.198  -3.603  0.00  0.00    +0.000 HD
ENDBRANCH  12  13
ENDBRANCH  11  12
ENDBRANCH   8  11
ENDBRANCH   7   8
ENDBRANCH   1   7
BRANCH   4  15
ATOM     15  C   UNK A   0       6.283  -6.729  -1.952  0.00  0.00    +0.000 C 
BRANCH  15  16
ATOM     16  O   UNK A   0       7.032  -7.302  -0.883  0.00  0.00    +0.000 OA
BRANCH  16  17
ATOM     17  C   UNK A   0       7.562  -8.544  -1.100  0.00  0.00    +0.000 A 
ATOM     18  C   UNK A   0       7.393  -9.318  -2.249  0.00  0.00    +0.000 A 
ATOM     19  C   UNK A   0       7.989 -10.582  -2.342  0.00  0.00    +0.000 A 
ATOM     20  C   UNK A   0       8.766 -11.083  -1.289  0.00  0.00    +0.000 A 
ATOM     21  C   UNK A   0       8.932 -10.299  -0.149  0.00  0.00    +0.000 A 
ATOM     22  F   UNK A   0       9.667 -10.729   0.890  0.00  0.00    +0.000 F 
ATOM     23  C   UNK A   0       8.336  -9.042  -0.051  0.00  0.00    +0.000 A 
BRANCH  20  24
ATOM     24  C   UNK A   0       9.373 -12.430  -1.447  0.00  0.00    +0.000 C 
ATOM     25  N   UNK A   0      10.136 -12.918  -0.426  0.00  0.00    +0.000 N 
ATOM     26  O   UNK A   0       9.200 -13.092  -2.464  0.00  0.00    +0.000 OA
ATOM     27  H   UNK A   0      10.311 -12.406   0.430  0.00  0.00    +0.000 HD
ATOM     28  H   UNK A   0      10.550 -13.834  -0.538  0.00  0.00    +0.000 HD
ENDBRANCH  20  24
ENDBRANCH  16  17
ENDBRANCH  15  16
ENDBRANCH   4  15
TORSDOF 9
