REMARK  Name = 
REMARK  9 active torsions:
REMARK  status: ('A' for Active; 'I' for Inactive)
REMARK    1  A    between atoms: N_1  and  C_2
REMARK    2  A    between atoms: C_2  and  C_3
REMARK    3  A    between atoms: C_3  and  N_4
REMARK    4  A    between atoms: N_4  and  C_5
REMARK    5  A    between atoms: C_5  and  C_6
REMARK    6  A    between atoms: C_9  and  C_10
REMARK    7  A    between atoms: C_10  and  N_11
REMARK    8  A    between atoms: C_12  and  C_14
REMARK    9  A    between atoms: C_26  and  C_28
REMARK                            x       y       z     vdW  Elec       q    Type
REMARK                         _______ _______ _______ _____ _____    ______ ____
ROOT
ATOM      1  C   UNL     1       4.278   0.866   0.679  0.00  0.00    +0.000 A 
ATOM      2  C   UNL     1       3.509   0.405   1.755  0.00  0.00    +0.000 A 
ATOM      3  C   UNL     1       2.702   1.288   2.474  0.00  0.00    +0.000 A 
ATOM      4  C   UNL     1       2.635   2.639   2.112  0.00  0.00    +0.000 A 
ATOM      5  C   UNL     1       3.484   3.118   1.108  0.00  0.00    +0.000 A 
ATOM      6  C   UNL     1       4.298   2.239   0.396  0.00  0.00    +0.000 A 
ENDROOT
BRANCH   1   7
ATOM      7  C   UNL     1       5.103  -0.091  -0.138  0.00  0.00    +0.000 C 
BRANCH   7   8
ATOM      8  N   UNL     1       4.469  -0.782  -1.265  0.00  0.00    +0.000 N 
ATOM      9  C   UNL     1       5.042  -1.926  -1.852  0.00  0.00    +0.000 C 
ATOM     10  O   UNL     1       4.537  -2.432  -2.856  0.00  0.00    +0.000 OA
BRANCH   9  11
ATOM     11  C   UNL     1       6.203  -2.572  -1.254  0.00  0.00    +0.000 A 
ATOM     12  C   UNL     1       7.321  -2.124  -0.563  0.00  0.00    +0.000 A 
ATOM     13  C   UNL     1       8.113  -3.243  -0.209  0.00  0.00    +0.000 A 
ATOM     14  C   UNL     1       7.506  -4.352  -0.744  0.00  0.00    +0.000 A 
ATOM     15  N   UNL     1       6.382  -3.937  -1.402  0.00  0.00    +0.000 N 
ATOM     16  H   UNL     1       5.742  -4.527  -1.920  0.00  0.00    +0.000 HD
ENDBRANCH   9  11
BRANCH   8  17
ATOM     17  C   UNL     1       3.411  -0.113  -2.049  0.00  0.00    +0.000 C 
BRANCH  17  18
ATOM     18  C   UNL     1       2.075  -0.890  -2.078  0.00  0.00    +0.000 C 
BRANCH  18  19
ATOM     19  N   UNL     1       1.046  -0.210  -2.876  0.00  0.00    +0.000 NA
ATOM     20  H   UNL     1       0.183  -0.752  -2.826  0.00  0.00    +0.000 HD
ATOM     21  H   UNL     1       1.322  -0.231  -3.859  0.00  0.00    +0.000 HD
ENDBRANCH  18  19
ENDBRANCH  17  18
ENDBRANCH   8  17
ENDBRANCH   7   8
ENDBRANCH   1   7
BRANCH   4  22
ATOM     22  C   UNL     1       1.626   3.555   2.746  0.00  0.00    +0.000 C 
BRANCH  22  23
ATOM     23  N   UNL     1       2.150   4.256   3.884  0.00  0.00    +0.000 N 
ATOM     24  C   UNL     1       1.326   5.080   4.610  0.00  0.00    +0.000 C 
ATOM     25  O   UNL     1       0.128   5.187   4.357  0.00  0.00    +0.000 OA
ATOM     26  H   UNL     1       3.157   4.369   3.946  0.00  0.00    +0.000 HD
BRANCH  24  27
ATOM     27  C   UNL     1       1.927   5.780   5.748  0.00  0.00    +0.000 A 
ATOM     28  C   UNL     1       1.119   6.210   6.792  0.00  0.00    +0.000 A 
ATOM     29  S   UNL     1       1.980   6.957   8.059  0.00  0.00    +0.000 S 
ATOM     30  C   UNL     1       3.456   6.783   7.229  0.00  0.00    +0.000 A 
ATOM     31  N   UNL     1       4.616   7.251   7.762  0.00  0.00    +0.000 NA
ATOM     32  C   UNL     1       5.652   7.084   7.014  0.00  0.00    +0.000 A 
ATOM     33  N   UNL     1       5.638   6.485   5.780  0.00  0.00    +0.000 N 
ATOM     34  C   UNL     1       4.493   5.979   5.209  0.00  0.00    +0.000 A 
ATOM     35  O   UNL     1       4.517   5.415   4.119  0.00  0.00    +0.000 OA
ATOM     36  C   UNL     1       3.295   6.148   6.011  0.00  0.00    +0.000 A 
ATOM     37  H   UNL     1       6.484   6.383   5.243  0.00  0.00    +0.000 HD
ENDBRANCH  24  27
ENDBRANCH  22  23
ENDBRANCH   4  22
TORSDOF 9
