REMARK  Name = 
REMARK  6 active torsions:
REMARK  status: ('A' for Active; 'I' for Inactive)
REMARK    1  A    between atoms: N_1  and  C_2
REMARK    2  A    between atoms: C_2  and  C_3
REMARK    3  A    between atoms: C_2  and  C_17
REMARK    4  A    between atoms: C_3  and  N_4
REMARK    5  A    between atoms: C_7  and  C_8
REMARK    6  A    between atoms: C_8  and  N_9
REMARK                            x       y       z     vdW  Elec       q    Type
REMARK                         _______ _______ _______ _____ _____    ______ ____
ROOT
ATOM      1  C   UNL     1       2.242   1.588   1.532  0.00  0.00    +0.000 C 
ENDROOT
BRANCH   1   2
ATOM      2  C   UNL     1       2.335   3.007   2.100  0.00  0.00    +0.000 A 
ATOM      3  C   UNL     1       1.236   3.832   2.354  0.00  0.00    +0.000 A 
ATOM      4  S   UNL     1       1.644   5.444   2.723  0.00  0.00    +0.000 S 
ATOM      5  C   UNL     1       3.304   5.100   2.638  0.00  0.00    +0.000 A 
ATOM      6  N   UNL     1       4.226   6.088   2.799  0.00  0.00    +0.000 NA
ATOM      7  C   UNL     1       5.450   5.695   2.687  0.00  0.00    +0.000 A 
ATOM      8  N   UNL     1       5.836   4.401   2.451  0.00  0.00    +0.000 N 
ATOM      9  C   UNL     1       4.942   3.365   2.324  0.00  0.00    +0.000 A 
ATOM     10  O   UNL     1       5.325   2.201   2.186  0.00  0.00    +0.000 OA
ATOM     11  C   UNL     1       3.549   3.761   2.375  0.00  0.00    +0.000 A 
ATOM     12  H   UNL     1       6.816   4.156   2.413  0.00  0.00    +0.000 HD
ENDBRANCH   1   2
BRANCH   1  13
ATOM     13  N   UNL     1       0.810   1.263   1.316  0.00  0.00    +0.000 NA
ATOM     14  H   UNL     1       0.751   0.315   0.943  0.00  0.00    +0.000 HD
ATOM     15  H   UNL     1       0.517   1.837   0.517  0.00  0.00    +0.000 HD
ENDBRANCH   1  13
BRANCH   1  16
ATOM     16  C   UNL     1       2.989   1.340   0.164  0.00  0.00    +0.000 C 
BRANCH  16  17
ATOM     17  N   UNL     1       2.471   2.064  -1.033  0.00  0.00    +0.000 NA
ATOM     18  C   UNL     1       2.613   3.512  -0.852  0.00  0.00    +0.000 C 
ATOM     19  C   UNL     1       2.227   4.329  -2.068  0.00  0.00    +0.000 C 
ATOM     20  C   UNL     1       3.064   3.931  -3.272  0.00  0.00    +0.000 C 
ATOM     21  C   UNL     1       2.853   2.428  -3.497  0.00  0.00    +0.000 C 
ATOM     22  C   UNL     1       3.186   1.599  -2.243  0.00  0.00    +0.000 C 
BRANCH  20  23
ATOM     23  C   UNL     1       4.556   4.314  -3.077  0.00  0.00    +0.000 C 
BRANCH  23  24
ATOM     24  N   UNL     1       5.403   3.996  -4.240  0.00  0.00    +0.000 NA
ATOM     25  C   UNL     1       5.015   4.801  -5.408  0.00  0.00    +0.000 C 
ATOM     26  C   UNL     1       5.875   4.474  -6.624  0.00  0.00    +0.000 C 
ATOM     27  C   UNL     1       7.349   4.681  -6.316  0.00  0.00    +0.000 C 
ATOM     28  C   UNL     1       7.739   3.869  -5.088  0.00  0.00    +0.000 C 
ATOM     29  C   UNL     1       6.824   4.187  -3.903  0.00  0.00    +0.000 C 
ENDBRANCH  23  24
ENDBRANCH  20  23
ENDBRANCH  16  17
ENDBRANCH   1  16
TORSDOF 6
