REMARK  Name = 
REMARK  10 active torsions:
REMARK  status: ('A' for Active; 'I' for Inactive)
REMARK    1  A    between atoms: C_1  and  C_2
REMARK    2  A    between atoms: C_2  and  N_3
REMARK    3  A    between atoms: C_2  and  C_20
REMARK    4  A    between atoms: N_3  and  C_4
REMARK    5  A    between atoms: C_4  and  C_5
REMARK    6  A    between atoms: C_8  and  C_9
REMARK    7  A    between atoms: C_9  and  N_10
REMARK    8  A    between atoms: N_10  and  C_11
REMARK    9  A    between atoms: C_11  and  C_12
REMARK   10  A    between atoms: N_15  and  C_16
REMARK                            x       y       z     vdW  Elec       q    Type
REMARK                         _______ _______ _______ _____ _____    ______ ____
ROOT
ATOM      1  C   UNL     1     -12.358   5.382  -1.138  0.00  0.00    +0.000 C 
ENDROOT
BRANCH   1   2
ATOM      2  C   UNL     1     -11.977   3.925  -1.130  0.00  0.00    +0.000 A 
ATOM      3  C   UNL     1     -10.640   3.535  -1.000  0.00  0.00    +0.000 A 
ATOM      4  C   UNL     1     -10.304   2.183  -0.910  0.00  0.00    +0.000 A 
ATOM      5  C   UNL     1     -11.302   1.196  -0.943  0.00  0.00    +0.000 A 
ATOM      6  C   UNL     1     -12.639   1.587  -1.073  0.00  0.00    +0.000 A 
ATOM      7  C   UNL     1     -12.975   2.937  -1.167  0.00  0.00    +0.000 A 
BRANCH   5   8
ATOM      8  C   UNL     1     -10.944  -0.265  -0.825  0.00  0.00    +0.000 C 
BRANCH   8   9
ATOM      9  N   UNL     1     -10.284  -0.519   0.447  0.00  0.00    +0.000 NA
ATOM     10  H   UNL     1     -10.894  -0.212   1.205  0.00  0.00    +0.000 HD
BRANCH   9  11
ATOM     11  C   UNL     1      -9.934  -1.923   0.620  0.00  0.00    +0.000 C 
BRANCH  11  12
ATOM     12  C   UNL     1      -9.201  -2.085   1.953  0.00  0.00    +0.000 C 
ATOM     13  C   UNL     1      -8.757  -3.525   2.229  0.00  0.00    +0.000 C 
ATOM     14  C   UNL     1      -7.238  -3.459   2.300  0.00  0.00    +0.000 C 
ATOM     15  N   UNL     1      -6.997  -2.099   2.779  0.00  0.00    +0.000 NA
ATOM     16  C   UNL     1      -5.612  -1.684   2.598  0.00  0.00    +0.000 C 
ATOM     17  C   UNL     1      -7.911  -1.260   2.000  0.00  0.00    +0.000 C 
ENDBRANCH  11  12
ENDBRANCH   9  11
ENDBRANCH   8   9
ENDBRANCH   5   8
ENDBRANCH   1   2
BRANCH   1  18
ATOM     18  N   UNL     1     -11.825   6.107  -2.291  0.00  0.00    +0.000 NA
ATOM     19  H   UNL     1     -12.084   5.596  -3.139  0.00  0.00    +0.000 HD
BRANCH  18  21
ATOM     20  C   UNL     1     -12.218   8.289  -1.099  0.00  0.00    +0.000 C 
ATOM     21  C   UNL     1     -12.400   7.460  -2.387  0.00  0.00    +0.000 C 
BRANCH  21  22
ATOM     22  C   UNL     1     -11.746   8.184  -3.551  0.00  0.00    +0.000 A 
ATOM     23  C   UNL     1     -10.375   8.298  -3.741  0.00  0.00    +0.000 A 
ATOM     24  S   UNL     1      -9.952   9.351  -5.016  0.00  0.00    +0.000 S 
ATOM     25  C   UNL     1     -11.585   9.700  -5.349  0.00  0.00    +0.000 A 
ATOM     26  N   UNL     1     -11.939  10.636  -6.277  0.00  0.00    +0.000 NA
ATOM     27  C   UNL     1     -13.212  10.813  -6.387  0.00  0.00    +0.000 A 
ATOM     28  N   UNL     1     -14.167  10.114  -5.694  0.00  0.00    +0.000 N 
ATOM     29  C   UNL     1     -13.861   9.102  -4.812  0.00  0.00    +0.000 A 
ATOM     30  O   UNL     1     -14.735   8.396  -4.320  0.00  0.00    +0.000 OA
ATOM     31  C   UNL     1     -12.440   8.949  -4.561  0.00  0.00    +0.000 A 
ATOM     32  H   UNL     1     -15.148  10.260  -5.878  0.00  0.00    +0.000 HD
ENDBRANCH  21  22
ENDBRANCH  18  21
ENDBRANCH   1  18
TORSDOF 8
