REMARK  Name = 
REMARK  5 active torsions:
REMARK  status: ('A' for Active; 'I' for Inactive)
REMARK    1  A    between atoms: C_2  and  C_4
REMARK    2  A    between atoms: C_7  and  O_8
REMARK    3  A    between atoms: O_8  and  C_9
REMARK    4  A    between atoms: C_9  and  C_10
REMARK    5  A    between atoms: C_14  and  N_15
REMARK                            x       y       z     vdW  Elec       q    Type
REMARK                         _______ _______ _______ _____ _____    ______ ____
ROOT
ATOM      1  C   UNL     1       5.230   0.933   5.864  0.00  0.00    +0.000 C 
ENDROOT
BRANCH   1   2
ATOM      2  C   UNL     1       6.224   1.431   6.877  0.00  0.00    +0.000 A 
ATOM      3  C   UNL     1       7.031   0.534   7.563  0.00  0.00    +0.000 A 
ATOM      4  N   UNL     1       7.898   0.890   8.531  0.00  0.00    +0.000 NA
ATOM      5  C   UNL     1       7.947   2.212   8.836  0.00  0.00    +0.000 A 
ATOM      6  C   UNL     1       7.184   3.222   8.243  0.00  0.00    +0.000 A 
ATOM      7  C   UNL     1       6.306   2.781   7.246  0.00  0.00    +0.000 A 
BRANCH   6   8
ATOM      8  N   UNL     1       7.256   4.551   8.612  0.00  0.00    +0.000 N 
ATOM      9  C   UNL     1       7.597   4.961   9.974  0.00  0.00    +0.000 C 
ATOM     10  C   UNL     1       6.505   5.894  10.505  0.00  0.00    +0.000 C 
ATOM     11  C   UNL     1       6.225   7.052   9.547  0.00  0.00    +0.000 C 
ATOM     12  C   UNL     1       5.937   6.544   8.135  0.00  0.00    +0.000 C 
ATOM     13  C   UNL     1       7.061   5.634   7.648  0.00  0.00    +0.000 C 
ENDBRANCH   6   8
ENDBRANCH   1   2
BRANCH   1  14
ATOM     14  O   UNL     1       5.022   1.905   4.832  0.00  0.00    +0.000 OA
BRANCH  14  18
ATOM     15  C   UNL     1       2.288   0.689   2.004  0.00  0.00    +0.000 A 
ATOM     16  C   UNL     1       2.890   1.944   1.888  0.00  0.00    +0.000 A 
ATOM     17  C   UNL     1       3.811   2.348   2.856  0.00  0.00    +0.000 A 
ATOM     18  C   UNL     1       4.098   1.481   3.900  0.00  0.00    +0.000 A 
ATOM     19  N   UNL     1       3.524   0.266   4.041  0.00  0.00    +0.000 NA
ATOM     20  C   UNL     1       2.624  -0.098   3.096  0.00  0.00    +0.000 A 
BRANCH  15  22
ATOM     21  N   UNL     1       1.363   0.623  -0.243  0.00  0.00    +0.000 N 
ATOM     22  C   UNL     1       1.301   0.162   1.041  0.00  0.00    +0.000 C 
ATOM     23  O   UNL     1       0.483  -0.688   1.369  0.00  0.00    +0.000 OA
ATOM     24  H   UNL     1       0.758   0.159  -0.910  0.00  0.00    +0.000 HD
ATOM     25  H   UNL     1       2.166   1.115  -0.609  0.00  0.00    +0.000 HD
ENDBRANCH  15  22
ENDBRANCH  14  18
ENDBRANCH   1  14
TORSDOF 5
