REMARK  Name = 
REMARK  8 active torsions:
REMARK  status: ('A' for Active; 'I' for Inactive)
REMARK    1  A    between atoms: C_1  and  C_2
REMARK    2  A    between atoms: C_5  and  O_6
REMARK    3  A    between atoms: O_6  and  C_7
REMARK    4  A    between atoms: C_9  and  C_10
REMARK    5  A    between atoms: C_10  and  C_11
REMARK    6  A    between atoms: C_11  and  N_12
REMARK    7  A    between atoms: C_16  and  C_17
REMARK    8  A    between atoms: C_24  and  C_25
REMARK                            x       y       z     vdW  Elec       q    Type
REMARK                         _______ _______ _______ _____ _____    ______ ____
ROOT
ATOM      1  C   UNL     1       1.243   2.489   1.597  0.00  0.00    +0.000 A 
ATOM      2  C   UNL     1       1.363   3.680   2.344  0.00  0.00    +0.000 A 
ATOM      3  C   UNL     1       0.429   4.724   2.222  0.00  0.00    +0.000 A 
ATOM      4  C   UNL     1      -0.649   4.557   1.348  0.00  0.00    +0.000 A 
ATOM      5  C   UNL     1      -0.790   3.375   0.621  0.00  0.00    +0.000 A 
ATOM      6  C   UNL     1       0.142   2.332   0.742  0.00  0.00    +0.000 A 
ENDROOT
BRANCH   6   7
ATOM      7  C   UNL     1      -0.142   1.146  -0.010  0.00  0.00    +0.000 C 
ATOM      8  N   UNL     1      -0.404   0.200  -0.631  0.00  0.00    +0.000 NA
ENDBRANCH   6   7
BRANCH   1   9
ATOM      9  O   UNL     1       2.244   1.570   1.850  0.00  0.00    +0.000 OA
BRANCH   9  14
ATOM     10  C   UNL     1       4.109  -1.492   0.519  0.00  0.00    +0.000 C 
ATOM     11  C   UNL     1       4.021  -0.065   1.051  0.00  0.00    +0.000 C 
ATOM     12  C   UNL     1       4.607   1.042   0.157  0.00  0.00    +0.000 C 
ATOM     13  N   UNL     1       3.252   1.317  -0.361  0.00  0.00    +0.000 NA
ATOM     14  C   UNL     1       2.666   0.646   0.820  0.00  0.00    +0.000 C 
ATOM     15  H   UNL     1       3.047   0.821  -1.228  0.00  0.00    +0.000 HD
ENDBRANCH   9  14
ENDBRANCH   1   9
BRANCH   3  16
ATOM     16  C   UNL     1       0.542   6.001   3.033  0.00  0.00    +0.000 C 
BRANCH  16  17
ATOM     17  C   UNL     1      -0.238   5.913   4.351  0.00  0.00    +0.000 C 
BRANCH  17  18
ATOM     18  N   UNL     1      -0.169   7.173   5.108  0.00  0.00    +0.000 N 
ATOM     19  C   UNL     1      -0.900   7.124   6.314  0.00  0.00    +0.000 A 
ATOM     20  C   UNL     1      -0.930   8.246   7.139  0.00  0.00    +0.000 A 
ATOM     21  C   UNL     1      -1.656   8.206   8.335  0.00  0.00    +0.000 A 
ATOM     22  C   UNL     1      -2.341   7.042   8.691  0.00  0.00    +0.000 A 
ATOM     23  C   UNL     1      -2.242   5.972   7.821  0.00  0.00    +0.000 A 
ATOM     24  N   UNL     1      -1.542   5.990   6.660  0.00  0.00    +0.000 NA
ATOM     25  H   UNL     1      -0.501   7.970   4.569  0.00  0.00    +0.000 HD
BRANCH  22  26
ATOM     26  C   UNL     1      -3.129   7.001   9.947  0.00  0.00    +0.000 C 
ATOM     27  N   UNL     1      -3.810   5.859  10.271  0.00  0.00    +0.000 N 
ATOM     28  O   UNL     1      -3.185   7.978  10.690  0.00  0.00    +0.000 OA
ATOM     29  H   UNL     1      -3.839   5.007   9.734  0.00  0.00    +0.000 HD
ATOM     30  H   UNL     1      -4.344   5.880  11.131  0.00  0.00    +0.000 HD
ENDBRANCH  22  26
ENDBRANCH  17  18
ENDBRANCH  16  17
ENDBRANCH   3  16
TORSDOF 7
