REMARK  Name = 
REMARK  8 active torsions:
REMARK  status: ('A' for Active; 'I' for Inactive)
REMARK    1  A    between atoms: C_1  and  O_2
REMARK    2  A    between atoms: O_2  and  C_3
REMARK    3  A    between atoms: C_8  and  N_9
REMARK    4  A    between atoms: N_9  and  C_10
REMARK    5  A    between atoms: C_10  and  C_11
REMARK    6  A    between atoms: C_14  and  C_15
REMARK    7  A    between atoms: C_15  and  N_16
REMARK    8  A    between atoms: C_17  and  C_19
REMARK                            x       y       z     vdW  Elec       q    Type
REMARK                         _______ _______ _______ _____ _____    ______ ____
ROOT
ATOM      1  C   UNL     1       4.306  -3.114  -1.873  0.00  0.00    +0.000 A 
ATOM      2  C   UNL     1       5.270  -3.140  -2.882  0.00  0.00    +0.000 A 
ATOM      3  C   UNL     1       5.646  -4.369  -3.438  0.00  0.00    +0.000 A 
ATOM      4  C   UNL     1       5.071  -5.556  -2.981  0.00  0.00    +0.000 A 
ATOM      5  C   UNL     1       4.125  -5.433  -1.970  0.00  0.00    +0.000 A 
ATOM      6  N   UNL     1       3.730  -4.258  -1.422  0.00  0.00    +0.000 NA
ENDROOT
BRANCH   1   7
ATOM      7  C   UNL     1       3.790  -1.798  -1.299  0.00  0.00    +0.000 C 
BRANCH   7   8
ATOM      8  N   UNL     1       4.551  -1.305  -0.147  0.00  0.00    +0.000 N 
ATOM      9  H   UNL     1       5.552  -1.294  -0.310  0.00  0.00    +0.000 HD
BRANCH   8  15
ATOM     10  C   UNL     1       3.003   0.655   0.226  0.00  0.00    +0.000 A 
ATOM     11  C   UNL     1       2.721   1.806   0.981  0.00  0.00    +0.000 A 
ATOM     12  C   UNL     1       3.549   2.201   2.027  0.00  0.00    +0.000 A 
ATOM     13  C   UNL     1       4.658   1.436   2.343  0.00  0.00    +0.000 A 
ATOM     14  C   UNL     1       4.951   0.291   1.596  0.00  0.00    +0.000 A 
ATOM     15  C   UNL     1       4.154  -0.116   0.505  0.00  0.00    +0.000 A 
BRANCH  10  17
ATOM     16  C   UNL     1       1.357   1.249  -1.370  0.00  0.00    +0.000 C 
ATOM     17  O   UNL     1       2.143   0.237  -0.759  0.00  0.00    +0.000 OA
ENDBRANCH  10  17
ENDBRANCH   8  15
ENDBRANCH   7   8
ENDBRANCH   1   7
BRANCH   4  18
ATOM     18  C   UNL     1       5.433  -6.916  -3.517  0.00  0.00    +0.000 C 
BRANCH  18  19
ATOM     19  N   UNL     1       6.522  -7.527  -2.791  0.00  0.00    +0.000 N 
ATOM     20  C   UNL     1       7.035  -8.763  -3.128  0.00  0.00    +0.000 C 
ATOM     21  O   UNL     1       6.588  -9.429  -4.055  0.00  0.00    +0.000 OA
ATOM     22  H   UNL     1       6.635  -7.228  -1.824  0.00  0.00    +0.000 HD
BRANCH  20  23
ATOM     23  C   UNL     1       8.157  -9.209  -2.302  0.00  0.00    +0.000 A 
ATOM     24  C   UNL     1       9.112 -10.058  -2.839  0.00  0.00    +0.000 A 
ATOM     25  S   UNL     1      10.373 -10.439  -1.752  0.00  0.00    +0.000 S 
ATOM     26  C   UNL     1       9.663  -9.512  -0.513  0.00  0.00    +0.000 A 
ATOM     27  N   UNL     1      10.229  -9.436   0.722  0.00  0.00    +0.000 NA
ATOM     28  C   UNL     1       9.563  -8.725   1.572  0.00  0.00    +0.000 A 
ATOM     29  N   UNL     1       8.390  -8.068   1.293  0.00  0.00    +0.000 N 
ATOM     30  C   UNL     1       7.818  -8.060   0.046  0.00  0.00    +0.000 A 
ATOM     31  O   UNL     1       6.831  -7.387  -0.199  0.00  0.00    +0.000 OA
ATOM     32  C   UNL     1       8.502  -8.892  -0.934  0.00  0.00    +0.000 A 
ATOM     33  H   UNL     1       7.937  -7.502   1.994  0.00  0.00    +0.000 HD
ENDBRANCH  20  23
ENDBRANCH  18  19
ENDBRANCH   4  18
TORSDOF 7
