REMARK  Name = 
REMARK  8 active torsions:
REMARK  status: ('A' for Active; 'I' for Inactive)
REMARK    1  A    between atoms: C_1  and  C_2
REMARK    2  A    between atoms: C_2  and  N_3
REMARK    3  A    between atoms: C_2  and  C_25
REMARK    4  A    between atoms: N_3  and  C_4
REMARK    5  A    between atoms: C_4  and  C_5
REMARK    6  A    between atoms: C_8  and  C_9
REMARK    7  A    between atoms: C_9  and  N_10
REMARK    8  A    between atoms: C_11  and  C_13
REMARK                            x       y       z     vdW  Elec       q    Type
REMARK                         _______ _______ _______ _____ _____    ______ ____
ROOT
ATOM      1  C   UNL     1      -0.887   0.127   1.365  0.00  0.00    +0.000 A 
ATOM      2  C   UNL     1      -1.577  -0.566   2.370  0.00  0.00    +0.000 A 
ATOM      3  C   UNL     1      -2.965  -0.444   2.507  0.00  0.00    +0.000 A 
ATOM      4  C   UNL     1      -3.696   0.369   1.632  0.00  0.00    +0.000 A 
ATOM      5  C   UNL     1      -3.007   1.058   0.624  0.00  0.00    +0.000 A 
ATOM      6  C   UNL     1      -1.620   0.932   0.484  0.00  0.00    +0.000 A 
ENDROOT
BRANCH   1   7
ATOM      7  C   UNL     1       0.624   0.086   1.321  0.00  0.00    +0.000 C 
BRANCH   7   8
ATOM      8  N   UNL     1       1.142  -1.275   1.203  0.00  0.00    +0.000 NA
ATOM      9  H   UNL     1       0.770  -1.694   0.349  0.00  0.00    +0.000 HD
BRANCH   8  11
ATOM     10  C   UNL     1       3.299  -0.719   2.381  0.00  0.00    +0.000 C 
ATOM     11  C   UNL     1       2.610  -1.341   1.156  0.00  0.00    +0.000 C 
BRANCH  11  12
ATOM     12  C   UNL     1       3.037  -2.793   1.016  0.00  0.00    +0.000 A 
ATOM     13  C   UNL     1       3.779  -3.215  -0.091  0.00  0.00    +0.000 A 
ATOM     14  C   UNL     1       4.148  -4.549  -0.177  0.00  0.00    +0.000 A 
ATOM     15  N   UNL     1       3.837  -5.479   0.750  0.00  0.00    +0.000 NA
ATOM     16  C   UNL     1       3.121  -5.056   1.813  0.00  0.00    +0.000 A 
ATOM     17  C   UNL     1       2.703  -3.747   1.987  0.00  0.00    +0.000 A 
ENDBRANCH  11  12
ENDBRANCH   8  11
ENDBRANCH   7   8
ENDBRANCH   1   7
BRANCH   4  18
ATOM     18  C   UNL     1      -5.189   0.538   1.771  0.00  0.00    +0.000 C 
BRANCH  18  19
ATOM     19  N   UNL     1      -5.525   1.651   2.624  0.00  0.00    +0.000 N 
ATOM     20  C   UNL     1      -6.830   1.969   2.902  0.00  0.00    +0.000 C 
ATOM     21  O   UNL     1      -7.774   1.314   2.469  0.00  0.00    +0.000 OA
ATOM     22  H   UNL     1      -4.819   2.374   2.727  0.00  0.00    +0.000 HD
BRANCH  20  23
ATOM     23  C   UNL     1      -7.040   3.112   3.799  0.00  0.00    +0.000 A 
ATOM     24  C   UNL     1      -8.181   3.174   4.590  0.00  0.00    +0.000 A 
ATOM     25  S   UNL     1      -8.258   4.569   5.570  0.00  0.00    +0.000 S 
ATOM     26  C   UNL     1      -6.789   5.155   4.942  0.00  0.00    +0.000 A 
ATOM     27  N   UNL     1      -6.290   6.358   5.338  0.00  0.00    +0.000 NA
ATOM     28  C   UNL     1      -5.174   6.682   4.776  0.00  0.00    +0.000 A 
ATOM     29  N   UNL     1      -4.510   5.913   3.854  0.00  0.00    +0.000 N 
ATOM     30  C   UNL     1      -4.960   4.680   3.448  0.00  0.00    +0.000 A 
ATOM     31  O   UNL     1      -4.311   3.989   2.677  0.00  0.00    +0.000 OA
ATOM     32  C   UNL     1      -6.227   4.281   4.032  0.00  0.00    +0.000 A 
ATOM     33  H   UNL     1      -3.624   6.212   3.471  0.00  0.00    +0.000 HD
ENDBRANCH  20  23
ENDBRANCH  18  19
ENDBRANCH   4  18
TORSDOF 7
