REMARK  Name = 
REMARK  4 active torsions:
REMARK  status: ('A' for Active; 'I' for Inactive)
REMARK    1  A    between atoms: N_1  and  C_2
REMARK    2  A    between atoms: C_2  and  C_3
REMARK    3  A    between atoms: N_6  and  C_7
REMARK    4  A    between atoms: C_7  and  C_8
REMARK                            x       y       z     vdW  Elec       q    Type
REMARK                         _______ _______ _______ _____ _____    ______ ____
ROOT
ATOM      1  C   UNL     1       4.518  -3.139  -2.408  0.00  0.00    +0.000 C 
ENDROOT
BRANCH   1   2
ATOM      2  C   UNL     1       5.960  -3.249  -2.802  0.00  0.00    +0.000 A 
ATOM      3  C   UNL     1       6.909  -4.090  -2.249  0.00  0.00    +0.000 A 
ATOM      4  N   UNL     1       8.080  -3.934  -2.937  0.00  0.00    +0.000 N 
ATOM      5  C   UNL     1       7.919  -3.024  -3.955  0.00  0.00    +0.000 A 
ATOM      6  C   UNL     1       8.824  -2.596  -4.935  0.00  0.00    +0.000 A 
ATOM      7  C   UNL     1       8.381  -1.644  -5.857  0.00  0.00    +0.000 A 
ATOM      8  C   UNL     1       7.091  -1.124  -5.785  0.00  0.00    +0.000 A 
ATOM      9  C   UNL     1       6.199  -1.564  -4.799  0.00  0.00    +0.000 A 
ATOM     10  C   UNL     1       6.610  -2.546  -3.873  0.00  0.00    +0.000 A 
ATOM     11  H   UNL     1       8.938  -4.431  -2.745  0.00  0.00    +0.000 HD
ENDBRANCH   1   2
BRANCH   1  15
ATOM     12  C   UNL     1       3.077  -0.834   0.920  0.00  0.00    +0.000 C 
ATOM     13  C   UNL     1       4.585  -0.846   0.636  0.00  0.00    +0.000 C 
ATOM     14  C   UNL     1       4.907  -1.389  -0.762  0.00  0.00    +0.000 C 
ATOM     15  N   UNL     1       4.340  -2.725  -0.999  0.00  0.00    +0.000 NA
ATOM     16  C   UNL     1       2.899  -2.790  -0.685  0.00  0.00    +0.000 C 
ATOM     17  C   UNL     1       2.557  -2.260   0.707  0.00  0.00    +0.000 C 
BRANCH  12  18
ATOM     18  C   UNL     1       2.363   0.223   0.052  0.00  0.00    +0.000 C 
BRANCH  18  19
ATOM     19  N   UNL     1       0.930   0.276   0.313  0.00  0.00    +0.000 NA
ATOM     20  H   UNL     1       0.514   1.024  -0.242  0.00  0.00    +0.000 HD
ATOM     21  H   UNL     1       0.770   0.525   1.289  0.00  0.00    +0.000 HD
ENDBRANCH  18  19
ENDBRANCH  12  18
ENDBRANCH   1  15
TORSDOF 4
