REMARK  Name = 
REMARK  4 active torsions:
REMARK  status: ('A' for Active; 'I' for Inactive)
REMARK    1  A    between atoms: C_2  and  C_4
REMARK    2  A    between atoms: C_7  and  O_8
REMARK    3  A    between atoms: O_8  and  C_9
REMARK    4  A    between atoms: C_9  and  C_10
REMARK                            x       y       z     vdW  Elec       q    Type
REMARK                         _______ _______ _______ _____ _____    ______ ____
ROOT
ATOM      1  C   UNL     1       2.743   1.036   1.172  0.00  0.00    +0.000 A 
ATOM      2  C   UNL     1       3.799   1.608   0.458  0.00  0.00    +0.000 A 
ATOM      3  C   UNL     1       4.665   2.491   1.112  0.00  0.00    +0.000 A 
ATOM      4  C   UNL     1       4.441   2.765   2.453  0.00  0.00    +0.000 A 
ATOM      5  N   UNL     1       3.425   2.225   3.162  0.00  0.00    +0.000 NA
ATOM      6  C   UNL     1       2.595   1.383   2.506  0.00  0.00    +0.000 A 
ENDROOT
BRANCH   1   8
ATOM      7  N   UNL     1       2.168  -0.636  -0.494  0.00  0.00    +0.000 N 
ATOM      8  C   UNL     1       1.762   0.108   0.576  0.00  0.00    +0.000 C 
ATOM      9  O   UNL     1       0.636  -0.018   1.042  0.00  0.00    +0.000 OA
ATOM     10  H   UNL     1       1.516  -1.338  -0.824  0.00  0.00    +0.000 HD
ATOM     11  H   UNL     1       3.142  -0.753  -0.738  0.00  0.00    +0.000 HD
ENDBRANCH   1   8
BRANCH   4  12
ATOM     12  O   UNL     1       5.309   3.644   3.076  0.00  0.00    +0.000 OA
BRANCH  12  13
ATOM     13  C   UNL     1       4.982   3.826   4.460  0.00  0.00    +0.000 C 
BRANCH  13  14
ATOM     14  C   UNL     1       5.984   4.777   5.134  0.00  0.00    +0.000 C 
ATOM     15  C   UNL     1       7.416   4.226   5.048  0.00  0.00    +0.000 C 
ATOM     16  C   UNL     1       8.409   5.110   5.798  0.00  0.00    +0.000 C 
ATOM     17  C   UNL     1       7.993   5.314   7.251  0.00  0.00    +0.000 C 
ATOM     18  C   UNL     1       6.581   5.879   7.350  0.00  0.00    +0.000 C 
ATOM     19  C   UNL     1       5.575   5.011   6.599  0.00  0.00    +0.000 C 
ENDBRANCH  13  14
ENDBRANCH  12  13
ENDBRANCH   4  12
TORSDOF 4
