REMARK  Name = 
REMARK  5 active torsions:
REMARK  status: ('A' for Active; 'I' for Inactive)
REMARK    1  A    between atoms: C_2  and  C_3
REMARK    2  A    between atoms: C_6  and  O_7
REMARK    3  A    between atoms: O_7  and  C_8
REMARK    4  A    between atoms: C_8  and  C_9
REMARK    5  A    between atoms: C_13  and  C_14
REMARK                            x       y       z     vdW  Elec       q    Type
REMARK                         _______ _______ _______ _____ _____    ______ ____
ROOT
ATOM      1  C   UNL     1       5.898  -0.972   0.304  0.00  0.00    +0.000 A 
ATOM      2  C   UNL     1       6.782  -2.040   0.409  0.00  0.00    +0.000 A 
ATOM      3  N   UNL     1       8.117  -1.907   0.538  0.00  0.00    +0.000 NA
ATOM      4  C   UNL     1       8.599  -0.642   0.575  0.00  0.00    +0.000 A 
ATOM      5  C   UNL     1       7.827   0.519   0.491  0.00  0.00    +0.000 A 
ATOM      6  C   UNL     1       6.443   0.317   0.361  0.00  0.00    +0.000 A 
ENDROOT
BRANCH   5   7
ATOM      7  C   UNL     1       8.424   1.870   0.538  0.00  0.00    +0.000 A 
ATOM      8  C   UNL     1       9.708   2.124   0.016  0.00  0.00    +0.000 A 
ATOM      9  C   UNL     1      10.281   3.402   0.069  0.00  0.00    +0.000 A 
ATOM     10  C   UNL     1       9.573   4.458   0.636  0.00  0.00    +0.000 A 
ATOM     11  C   UNL     1       8.305   4.224   1.146  0.00  0.00    +0.000 A 
ATOM     12  F   UNL     1       7.617   5.236   1.690  0.00  0.00    +0.000 F 
ATOM     13  C   UNL     1       7.734   2.956   1.108  0.00  0.00    +0.000 A 
ENDBRANCH   5   7
BRANCH   1  14
ATOM     14  C   UNL     1       4.418  -1.227   0.208  0.00  0.00    +0.000 C 
BRANCH  14  15
ATOM     15  O   UNL     1       3.776  -0.181  -0.523  0.00  0.00    +0.000 OA
BRANCH  15  19
ATOM     16  C   UNL     1      -0.344  -0.250  -1.173  0.00  0.00    +0.000 A 
ATOM     17  C   UNL     1       0.238  -1.310  -0.471  0.00  0.00    +0.000 A 
ATOM     18  C   UNL     1       1.618  -1.328  -0.233  0.00  0.00    +0.000 A 
ATOM     19  C   UNL     1       2.424  -0.287  -0.696  0.00  0.00    +0.000 A 
ATOM     20  C   UNL     1       1.840   0.766  -1.406  0.00  0.00    +0.000 A 
ATOM     21  C   UNL     1       0.463   0.788  -1.646  0.00  0.00    +0.000 A 
BRANCH  16  23
ATOM     22  N   UNL     1      -2.908  -0.213  -1.562  0.00  0.00    +0.000 NA
ATOM     23  C   UNL     1      -1.760  -0.227  -1.394  0.00  0.00    +0.000 C 
ENDBRANCH  16  23
ENDBRANCH  15  19
ENDBRANCH  14  15
ENDBRANCH   1  14
TORSDOF 5
