REMARK  Name = 
REMARK  6 active torsions:
REMARK  status: ('A' for Active; 'I' for Inactive)
REMARK    1  A    between atoms: C_2  and  C_18
REMARK    2  A    between atoms: N_3  and  C_4
REMARK    3  A    between atoms: C_4  and  C_5
REMARK    4  A    between atoms: C_8  and  O_9
REMARK    5  A    between atoms: O_9  and  C_10
REMARK    6  A    between atoms: C_10  and  C_11
REMARK                            x       y       z     vdW  Elec       q    Type
REMARK                         _______ _______ _______ _____ _____    ______ ____
ROOT
ATOM      1  O   UNL     1      -0.096   3.485   1.702  0.00  0.00    +0.000 OA
ATOM      2  C   UNL     1       0.406   2.524   2.279  0.00  0.00    +0.000 C 
ATOM      3  N   UNL     1       1.609   1.991   1.910  0.00  0.00    +0.000 N 
ATOM      4  H   UNL     1       1.990   1.190   2.399  0.00  0.00    +0.000 HD
ENDROOT
BRANCH   2   5
ATOM      5  C   UNL     1      -0.243   1.900   3.435  0.00  0.00    +0.000 A 
ATOM      6  C   UNL     1      -1.114   2.631   4.229  0.00  0.00    +0.000 A 
ATOM      7  S   UNL     1      -1.785   1.725   5.511  0.00  0.00    +0.000 S 
ATOM      8  C   UNL     1      -0.960   0.320   5.023  0.00  0.00    +0.000 A 
ATOM      9  N   UNL     1      -1.123  -0.857   5.690  0.00  0.00    +0.000 NA
ATOM     10  C   UNL     1      -0.470  -1.850   5.185  0.00  0.00    +0.000 A 
ATOM     11  N   UNL     1       0.339  -1.774   4.081  0.00  0.00    +0.000 N 
ATOM     12  C   UNL     1       0.582  -0.598   3.414  0.00  0.00    +0.000 A 
ATOM     13  O   UNL     1       1.393  -0.549   2.497  0.00  0.00    +0.000 OA
ATOM     14  C   UNL     1      -0.162   0.542   3.917  0.00  0.00    +0.000 A 
ATOM     15  H   UNL     1       0.847  -2.582   3.753  0.00  0.00    +0.000 HD
ENDBRANCH   2   5
BRANCH   3  16
ATOM     16  C   UNL     1       2.363   2.462   0.772  0.00  0.00    +0.000 C 
BRANCH  16  17
ATOM     17  C   UNL     1       3.270   3.612   1.133  0.00  0.00    +0.000 A 
ATOM     18  C   UNL     1       2.802   4.921   1.045  0.00  0.00    +0.000 A 
ATOM     19  C   UNL     1       3.636   5.974   1.423  0.00  0.00    +0.000 A 
ATOM     20  C   UNL     1       4.917   5.700   1.885  0.00  0.00    +0.000 A 
ATOM     21  C   UNL     1       5.301   4.364   1.941  0.00  0.00    +0.000 A 
ATOM     22  N   UNL     1       4.515   3.318   1.584  0.00  0.00    +0.000 NA
BRANCH  20  23
ATOM     23  O   UNL     1       5.845   6.612   2.292  0.00  0.00    +0.000 OA
BRANCH  23  24
ATOM     24  C   UNL     1       5.429   7.978   2.348  0.00  0.00    +0.000 C 
BRANCH  24  25
ATOM     25  C   UNL     1       6.598   8.816   2.878  0.00  0.00    +0.000 C 
ATOM     26  C   UNL     1       6.999   8.434   4.299  0.00  0.00    +0.000 C 
ATOM     27  C   UNL     1       6.133   9.333   5.155  0.00  0.00    +0.000 C 
ATOM     28  N   UNL     1       6.098  10.606   4.429  0.00  0.00    +0.000 NA
ATOM     29  C   UNL     1       6.219  10.291   2.996  0.00  0.00    +0.000 C 
ATOM     30  H   UNL     1       6.912  11.157   4.706  0.00  0.00    +0.000 HD
ENDBRANCH  24  25
ENDBRANCH  23  24
ENDBRANCH  20  23
ENDBRANCH  16  17
ENDBRANCH   3  16
TORSDOF 6
