REMARK  Name = 
REMARK  4 active torsions:
REMARK  status: ('A' for Active; 'I' for Inactive)
REMARK    1  A    between atoms: C_2  and  C_4
REMARK    2  A    between atoms: N_8  and  C_9
REMARK    3  A    between atoms: C_9  and  C_10
REMARK    4  A    between atoms: C_15  and  C_16
REMARK                            x       y       z     vdW  Elec       q    Type
REMARK                         _______ _______ _______ _____ _____    ______ ____
ROOT
ATOM      1  C   UNL     1       5.156   1.352   5.735  0.00  0.00    +0.000 C 
ENDROOT
BRANCH   1   6
ATOM      2  C   UNL     1       7.779   0.186   1.477  0.00  0.00    +0.000 A 
ATOM      3  C   UNL     1       7.249  -0.663   2.439  0.00  0.00    +0.000 A 
ATOM      4  C   UNL     1       6.427  -0.139   3.439  0.00  0.00    +0.000 A 
ATOM      5  C   UNL     1       6.164   1.228   3.470  0.00  0.00    +0.000 A 
ATOM      6  N   UNL     1       5.303   1.814   4.370  0.00  0.00    +0.000 N 
ATOM      7  N   UNL     1       6.682   2.062   2.549  0.00  0.00    +0.000 NA
ATOM      8  C   UNL     1       7.481   1.537   1.579  0.00  0.00    +0.000 A 
ATOM      9  H   UNL     1       5.347   2.819   4.241  0.00  0.00    +0.000 HD
BRANCH   2  11
ATOM     10  N   UNL     1       8.471  -1.589  -0.028  0.00  0.00    +0.000 N 
ATOM     11  C   UNL     1       8.637  -0.290   0.374  0.00  0.00    +0.000 C 
ATOM     12  O   UNL     1       9.440   0.447  -0.179  0.00  0.00    +0.000 OA
ATOM     13  H   UNL     1       9.000  -1.879  -0.842  0.00  0.00    +0.000 HD
ATOM     14  H   UNL     1       7.667  -2.143   0.226  0.00  0.00    +0.000 HD
ENDBRANCH   2  11
ENDBRANCH   1   6
BRANCH   1  15
ATOM     15  C   UNL     1       6.184   1.945   6.671  0.00  0.00    +0.000 A 
ATOM     16  C   UNL     1       6.235   3.323   6.896  0.00  0.00    +0.000 A 
ATOM     17  C   UNL     1       7.126   3.837   7.828  0.00  0.00    +0.000 A 
ATOM     18  F   UNL     1       7.150   5.156   8.056  0.00  0.00    +0.000 F 
ATOM     19  C   UNL     1       7.977   3.005   8.551  0.00  0.00    +0.000 A 
ATOM     20  C   UNL     1       7.960   1.614   8.361  0.00  0.00    +0.000 A 
ATOM     21  C   UNL     1       7.052   1.109   7.404  0.00  0.00    +0.000 A 
BRANCH  20  22
ATOM     22  C   UNL     1       8.829   0.713   9.155  0.00  0.00    +0.000 A 
ATOM     23  C   UNL     1       9.198   0.999  10.480  0.00  0.00    +0.000 A 
ATOM     24  C   UNL     1       9.996   0.116  11.209  0.00  0.00    +0.000 A 
ATOM     25  C   UNL     1      10.409  -1.053  10.599  0.00  0.00    +0.000 A 
ATOM     26  N   UNL     1      10.093  -1.379   9.331  0.00  0.00    +0.000 NA
ATOM     27  C   UNL     1       9.326  -0.491   8.647  0.00  0.00    +0.000 A 
ENDBRANCH  20  22
ENDBRANCH   1  15
TORSDOF 4
