REMARK  Name = 
REMARK  14 active torsions:
REMARK  status: ('A' for Active; 'I' for Inactive)
REMARK    1  A    between atoms: C_1  and  N_2
REMARK    2  A    between atoms: N_2  and  C_3
REMARK    3  A    between atoms: N_2  and  C_4
REMARK    4  A    between atoms: C_4  and  C_5
REMARK    5  A    between atoms: C_6  and  C_7
REMARK    6  A    between atoms: C_10  and  C_11
REMARK    7  A    between atoms: C_15  and  N_16
REMARK    8  A    between atoms: N_16  and  C_17
REMARK    9  A    between atoms: C_17  and  C_18
REMARK   10  A    between atoms: C_18  and  C_19
REMARK   11  A    between atoms: C_18  and  C_20
REMARK   12  A    between atoms: C_18  and  C_21
REMARK   13  A    between atoms: C_24  and  O_25
REMARK   14  A    between atoms: O_25  and  C_26
REMARK                            x       y       z     vdW  Elec       q    Type
REMARK                         _______ _______ _______ _____ _____    ______ ____
ROOT
ATOM      1  C   UNL     1       9.235  -0.820   1.155  0.00  0.00    +0.000 A 
ATOM      2  C   UNL     1       9.648   0.279   0.397  0.00  0.00    +0.000 A 
ATOM      3  N   UNL     1       8.920   1.407   0.194  0.00  0.00    +0.000 NA
ATOM      4  C   UNL     1       7.712   1.440   0.813  0.00  0.00    +0.000 A 
ATOM      5  C   UNL     1       7.206   0.396   1.571  0.00  0.00    +0.000 A 
ATOM      6  C   UNL     1       7.941  -0.789   1.719  0.00  0.00    +0.000 A 
ENDROOT
BRANCH   4   7
ATOM      7  C   UNL     1       6.888   2.684   0.672  0.00  0.00    +0.000 C 
ATOM      8  N   UNL     1       7.455   3.692  -0.058  0.00  0.00    +0.000 N 
ATOM      9  O   UNL     1       5.778   2.806   1.177  0.00  0.00    +0.000 OA
ATOM     10  H   UNL     1       8.388   3.570  -0.443  0.00  0.00    +0.000 HD
ATOM     11  H   UNL     1       6.966   4.565  -0.156  0.00  0.00    +0.000 HD
ENDBRANCH   4   7
BRANCH   1  13
ATOM     12  C   UNL     1      10.965  -2.915   1.546  0.00  0.00    +0.000 C 
ATOM     13  C   UNL     1      10.151  -1.919   1.330  0.00  0.00    +0.000 C 
BRANCH  12  14
ATOM     14  C   UNL     1      11.913  -4.076   1.797  0.00  0.00    +0.000 C 
BRANCH  14  16
ATOM     15  C   UNL     1      13.940  -4.727   2.933  0.00  0.00    +0.000 C 
ATOM     16  N   UNL     1      13.025  -3.627   2.654  0.00  0.00    +0.000 NA
ATOM     17  C   UNL     1      13.768  -2.502   2.067  0.00  0.00    +0.000 C 
ENDBRANCH  14  16
ENDBRANCH  12  14
ENDBRANCH   1  13
BRANCH   6  18
ATOM     18  N   UNL     1       7.436  -1.845   2.508  0.00  0.00    +0.000 N 
ATOM     19  H   UNL     1       7.965  -2.706   2.390  0.00  0.00    +0.000 HD
BRANCH  18  20
ATOM     20  C   UNL     1       5.971  -2.037   2.534  0.00  0.00    +0.000 C 
BRANCH  20  21
ATOM     21  C   UNL     1       5.474  -3.178   3.481  0.00  0.00    +0.000 C 
ATOM     22  C   UNL     1       3.932  -3.213   3.316  0.00  0.00    +0.000 C 
ATOM     23  C   UNL     1       6.042  -4.523   2.976  0.00  0.00    +0.000 C 
BRANCH  21  24
ATOM     24  C   UNL     1       5.822  -2.985   4.970  0.00  0.00    +0.000 A 
ATOM     25  C   UNL     1       6.545  -1.878   5.437  0.00  0.00    +0.000 A 
ATOM     26  C   UNL     1       6.956  -1.784   6.768  0.00  0.00    +0.000 A 
ATOM     27  C   UNL     1       6.627  -2.773   7.692  0.00  0.00    +0.000 A 
ATOM     28  C   UNL     1       5.875  -3.861   7.266  0.00  0.00    +0.000 A 
ATOM     29  C   UNL     1       5.463  -3.955   5.926  0.00  0.00    +0.000 A 
BRANCH  27  30
ATOM     30  O   UNL     1       7.165  -2.575   8.923  0.00  0.00    +0.000 OA
BRANCH  30  31
ATOM     31  C   UNL     1       6.543  -3.106  10.079  0.00  0.00    +0.000 C 
ATOM     32  F   UNL     1       5.327  -3.645   9.861  0.00  0.00    +0.000 F 
ATOM     33  F   UNL     1       7.345  -4.044  10.629  0.00  0.00    +0.000 F 
ATOM     34  F   UNL     1       6.396  -2.104  10.976  0.00  0.00    +0.000 F 
ENDBRANCH  30  31
ENDBRANCH  27  30
ENDBRANCH  21  24
ENDBRANCH  20  21
ENDBRANCH  18  20
ENDBRANCH   6  18
TORSDOF 10
