REMARK  Name = 
REMARK  9 active torsions:
REMARK  status: ('A' for Active; 'I' for Inactive)
REMARK    1  A    between atoms: C_1  and  C_2
REMARK    2  A    between atoms: C_2  and  C_3
REMARK    3  A    between atoms: C_2  and  C_4
REMARK    4  A    between atoms: C_2  and  C_22
REMARK    5  A    between atoms: C_4  and  N_5
REMARK    6  A    between atoms: N_5  and  C_6
REMARK    7  A    between atoms: C_10  and  C_11
REMARK    8  A    between atoms: C_14  and  S_15
REMARK    9  A    between atoms: S_15  and  C_16
REMARK                            x       y       z     vdW  Elec       q    Type
REMARK                         _______ _______ _______ _____ _____    ______ ____
ROOT
ATOM      1  C   UNL     1       2.917   2.431   2.862  0.00  0.00    +0.000 A 
ATOM      2  C   UNL     1       4.204   2.317   3.380  0.00  0.00    +0.000 A 
ATOM      3  C   UNL     1       4.642   3.186   4.381  0.00  0.00    +0.000 A 
ATOM      4  C   UNL     1       3.789   4.170   4.884  0.00  0.00    +0.000 A 
ATOM      5  C   UNL     1       2.483   4.319   4.393  0.00  0.00    +0.000 A 
ATOM      6  C   UNL     1       2.066   3.406   3.410  0.00  0.00    +0.000 A 
ENDROOT
BRANCH   5   7
ATOM      7  C   UNL     1       1.604   5.434   4.813  0.00  0.00    +0.000 A 
ATOM      8  C   UNL     1       2.152   6.691   5.130  0.00  0.00    +0.000 A 
ATOM      9  C   UNL     1       1.344   7.785   5.450  0.00  0.00    +0.000 A 
ATOM     10  C   UNL     1      -0.040   7.637   5.449  0.00  0.00    +0.000 A 
ATOM     11  C   UNL     1      -0.620   6.403   5.159  0.00  0.00    +0.000 A 
ATOM     12  C   UNL     1       0.201   5.313   4.849  0.00  0.00    +0.000 A 
BRANCH  10  13
ATOM     13  S   UNL     1      -1.060   9.016   5.912  0.00  0.00    +0.000 S 
ATOM     14  C   UNL     1      -1.356   9.865   4.386  0.00  0.00    +0.000 C 
ATOM     15  O   UNL     1      -2.329   8.482   6.376  0.00  0.00    +0.000 OA
ATOM     16  O   UNL     1      -0.266   9.881   6.757  0.00  0.00    +0.000 OA
ENDBRANCH  10  13
ENDBRANCH   5   7
BRANCH   1  17
ATOM     17  N   UNL     1       2.372   1.604   1.879  0.00  0.00    +0.000 N 
ATOM     18  H   UNL     1       1.785   2.167   1.268  0.00  0.00    +0.000 HD
BRANCH  17  19
ATOM     19  C   UNL     1       3.187   0.626   1.163  0.00  0.00    +0.000 C 
BRANCH  19  21
ATOM     20  C   UNL     1       1.144  -0.818   0.662  0.00  0.00    +0.000 C 
ATOM     21  C   UNL     1       2.367  -0.094   0.043  0.00  0.00    +0.000 C 
ATOM     22  C   UNL     1       1.796   0.943  -0.961  0.00  0.00    +0.000 C 
BRANCH  21  23
ATOM     23  C   UNL     1       3.311  -1.082  -0.663  0.00  0.00    +0.000 A 
ATOM     24  C   UNL     1       4.097  -0.710  -1.765  0.00  0.00    +0.000 A 
ATOM     25  C   UNL     1       4.944  -1.631  -2.378  0.00  0.00    +0.000 A 
ATOM     26  C   UNL     1       5.001  -2.912  -1.865  0.00  0.00    +0.000 A 
ATOM     27  N   UNL     1       4.293  -3.313  -0.793  0.00  0.00    +0.000 NA
ATOM     28  C   UNL     1       3.476  -2.397  -0.220  0.00  0.00    +0.000 A 
ENDBRANCH  21  23
ENDBRANCH  19  21
ENDBRANCH  17  19
ENDBRANCH   1  17
TORSDOF 6
