REMARK  Name = 
REMARK  4 active torsions:
REMARK  status: ('A' for Active; 'I' for Inactive)
REMARK    1  A    between atoms: C_2  and  C_4
REMARK    2  A    between atoms: C_7  and  O_8
REMARK    3  A    between atoms: O_8  and  C_9
REMARK    4  A    between atoms: C_9  and  C_10
REMARK                            x       y       z     vdW  Elec       q    Type
REMARK                         _______ _______ _______ _____ _____    ______ ____
ROOT
ATOM      1  C   UNL     1       3.283  -0.859   0.827  0.00  0.00    +0.000 A 
ATOM      2  C   UNL     1       2.916  -2.172   1.087  0.00  0.00    +0.000 A 
ATOM      3  C   UNL     1       3.745  -2.935   1.909  0.00  0.00    +0.000 A 
ATOM      4  C   UNL     1       4.908  -2.372   2.429  0.00  0.00    +0.000 A 
ATOM      5  C   UNL     1       5.159  -1.031   2.153  0.00  0.00    +0.000 A 
ATOM      6  N   UNL     1       4.386  -0.259   1.357  0.00  0.00    +0.000 NA
ENDROOT
BRANCH   1   8
ATOM      7  N   UNL     1       2.994   1.219  -0.372  0.00  0.00    +0.000 N 
ATOM      8  C   UNL     1       2.474  -0.021  -0.113  0.00  0.00    +0.000 C 
ATOM      9  O   UNL     1       1.437  -0.413  -0.629  0.00  0.00    +0.000 OA
ATOM     10  H   UNL     1       2.530   1.834  -1.024  0.00  0.00    +0.000 HD
ATOM     11  H   UNL     1       3.874   1.487   0.056  0.00  0.00    +0.000 HD
ENDBRANCH   1   8
BRANCH   4  12
ATOM     12  O   UNL     1       5.710  -3.200   3.163  0.00  0.00    +0.000 OA
BRANCH  12  13
ATOM     13  C   UNL     1       7.083  -2.791   3.239  0.00  0.00    +0.000 C 
BRANCH  13  14
ATOM     14  C   UNL     1       7.996  -3.952   3.550  0.00  0.00    +0.000 A 
ATOM     15  C   UNL     1       7.620  -4.961   4.433  0.00  0.00    +0.000 A 
ATOM     16  C   UNL     1       8.515  -5.997   4.688  0.00  0.00    +0.000 A 
ATOM     17  C   UNL     1       9.759  -5.993   4.069  0.00  0.00    +0.000 A 
ATOM     18  C   UNL     1      10.063  -4.945   3.221  0.00  0.00    +0.000 A 
ATOM     19  N   UNL     1       9.217  -3.929   2.955  0.00  0.00    +0.000 NA
ENDBRANCH  13  14
ENDBRANCH  12  13
ENDBRANCH   4  12
TORSDOF 4
