REMARK  Name = 
REMARK  6 active torsions:
REMARK  status: ('A' for Active; 'I' for Inactive)
REMARK    1  A    between atoms: C_1  and  C_2
REMARK    2  A    between atoms: C_4  and  C_5
REMARK    3  A    between atoms: C_10  and  N_11
REMARK    4  A    between atoms: N_11  and  C_12
REMARK    5  A    between atoms: C_12  and  C_13
REMARK    6  A    between atoms: C_12  and  C_14
REMARK                            x       y       z     vdW  Elec       q    Type
REMARK                         _______ _______ _______ _____ _____    ______ ____
ROOT
ATOM      1  C   UNL     1      -1.353  -1.428  -1.914  0.00  0.00    +0.000 C 
ATOM      2  C   UNL     1      -0.643  -0.575  -0.895  0.00  0.00    +0.000 A 
ATOM      3  C   UNL     1      -1.077   0.754  -0.757  0.00  0.00    +0.000 A 
ATOM      4  C   UNL     1      -0.506   1.605   0.196  0.00  0.00    +0.000 A 
ATOM      5  C   UNL     1       0.507   1.057   0.958  0.00  0.00    +0.000 A 
ATOM      6  N   UNL     1       0.998  -0.203   0.809  0.00  0.00    +0.000 NA
ATOM      7  C   UNL     1       0.436  -1.018  -0.118  0.00  0.00    +0.000 A 
ENDROOT
BRANCH   4   8
ATOM      8  C   UNL     1      -1.022   2.982   0.319  0.00  0.00    +0.000 C 
ATOM      9  N   UNL     1      -0.495   3.812   1.269  0.00  0.00    +0.000 N 
ATOM     10  O   UNL     1      -1.921   3.386  -0.415  0.00  0.00    +0.000 OA
ATOM     11  H   UNL     1       0.246   3.583   1.916  0.00  0.00    +0.000 HD
ATOM     12  H   UNL     1      -0.887   4.746   1.316  0.00  0.00    +0.000 HD
ENDBRANCH   4   8
BRANCH   7  13
ATOM     13  N   UNL     1       0.944  -2.322  -0.260  0.00  0.00    +0.000 N 
ATOM     14  H   UNL     1       0.289  -2.974   0.158  0.00  0.00    +0.000 HD
BRANCH  13  15
ATOM     15  C   UNL     1       2.333  -2.539   0.192  0.00  0.00    +0.000 C 
ATOM     16  C   UNL     1       2.447  -2.858   1.691  0.00  0.00    +0.000 C 
BRANCH  15  17
ATOM     17  C   UNL     1       3.007  -3.677  -0.584  0.00  0.00    +0.000 A 
ATOM     18  C   UNL     1       4.403  -3.638  -0.768  0.00  0.00    +0.000 A 
ATOM     19  C   UNL     1       5.088  -4.710  -1.348  0.00  0.00    +0.000 A 
ATOM     20  C   UNL     1       4.389  -5.841  -1.758  0.00  0.00    +0.000 A 
ATOM     21  C   UNL     1       3.005  -5.889  -1.614  0.00  0.00    +0.000 A 
ATOM     22  C   UNL     1       2.316  -4.816  -1.030  0.00  0.00    +0.000 A 
ENDBRANCH  15  17
ENDBRANCH  13  15
ENDBRANCH   7  13
TORSDOF 4
