REMARK  Name = 
REMARK  4 active torsions:
REMARK  status: ('A' for Active; 'I' for Inactive)
REMARK    1  A    between atoms: C_2  and  C_3
REMARK    2  A    between atoms: N_7  and  C_8
REMARK    3  A    between atoms: C_8  and  C_9
REMARK    4  A    between atoms: C_13  and  C_14
REMARK                            x       y       z     vdW  Elec       q    Type
REMARK                         _______ _______ _______ _____ _____    ______ ____
ROOT
ATOM      1  C   UNL     1      -4.443   1.258  -0.224  0.00  0.00    +0.000 C 
ATOM      2  C   UNL     1      -3.022   1.222   0.360  0.00  0.00    +0.000 C 
ATOM      3  C   UNL     1      -3.240   0.883  -1.073  0.00  0.00    +0.000 C 
ENDROOT
BRANCH   1   8
ATOM      4  C   UNL     1      -6.999   5.036  -2.851  0.00  0.00    +0.000 A 
ATOM      5  C   UNL     1      -6.101   4.096  -3.352  0.00  0.00    +0.000 A 
ATOM      6  C   UNL     1      -5.462   3.206  -2.479  0.00  0.00    +0.000 A 
ATOM      7  C   UNL     1      -5.723   3.293  -1.121  0.00  0.00    +0.000 A 
ATOM      8  N   UNL     1      -5.051   2.580  -0.133  0.00  0.00    +0.000 N 
ATOM      9  N   UNL     1      -6.607   4.192  -0.625  0.00  0.00    +0.000 NA
ATOM     10  C   UNL     1      -7.225   5.027  -1.485  0.00  0.00    +0.000 A 
ATOM     11  H   UNL     1      -5.483   2.833   0.747  0.00  0.00    +0.000 HD
BRANCH   4  13
ATOM     12  N   UNL     1      -8.168   6.788  -4.356  0.00  0.00    +0.000 NA
ATOM     13  C   UNL     1      -7.645   5.993  -3.686  0.00  0.00    +0.000 C 
ENDBRANCH   4  13
ENDBRANCH   1   8
BRANCH   1  14
ATOM     14  C   UNL     1      -5.337   0.105   0.230  0.00  0.00    +0.000 A 
ATOM     15  C   UNL     1      -5.728  -0.911  -0.655  0.00  0.00    +0.000 A 
ATOM     16  C   UNL     1      -6.207  -2.130  -0.179  0.00  0.00    +0.000 A 
ATOM     17  C   UNL     1      -6.342  -2.334   1.191  0.00  0.00    +0.000 A 
ATOM     18  C   UNL     1      -6.076  -1.299   2.097  0.00  0.00    +0.000 A 
ATOM     19  C   UNL     1      -5.610  -0.076   1.598  0.00  0.00    +0.000 A 
BRANCH  18  20
ATOM     20  C   UNL     1      -6.155  -1.507   3.597  0.00  0.00    +0.000 C 
ATOM     21  C   UNL     1      -5.018  -2.424   4.074  0.00  0.00    +0.000 C 
ATOM     22  C   UNL     1      -5.166  -2.754   5.550  0.00  0.00    +0.000 C 
ATOM     23  O   UNL     1      -6.457  -3.299   5.820  0.00  0.00    +0.000 OA
ATOM     24  C   UNL     1      -7.503  -2.374   5.527  0.00  0.00    +0.000 C 
ATOM     25  C   UNL     1      -7.522  -2.040   4.044  0.00  0.00    +0.000 C 
ENDBRANCH  18  20
ENDBRANCH   1  14
TORSDOF 4
