REMARK  Name = 
REMARK  11 active torsions:
REMARK  status: ('A' for Active; 'I' for Inactive)
REMARK    1  A    between atoms: N_1  and  C_2
REMARK    2  A    between atoms: C_2  and  C_3
REMARK    3  A    between atoms: C_3  and  N_4
REMARK    4  A    between atoms: N_4  and  C_5
REMARK    5  A    between atoms: C_5  and  C_6
REMARK    6  A    between atoms: C_5  and  C_20
REMARK    7  A    between atoms: C_6  and  C_7
REMARK    8  A    between atoms: C_10  and  C_11
REMARK    9  A    between atoms: C_11  and  N_12
REMARK   10  A    between atoms: N_12  and  C_13
REMARK   11  A    between atoms: C_20  and  C_22
REMARK                            x       y       z     vdW  Elec       q    Type
REMARK                         _______ _______ _______ _____ _____    ______ ____
ROOT
ATOM      1  C   UNL     1      -4.115   1.936  -7.819  0.00  0.00    +0.000 C 
ENDROOT
BRANCH   1   2
ATOM      2  N   UNL     1      -2.651   1.744  -7.987  0.00  0.00    +0.000 NA
ATOM      3  H   UNL     1      -2.274   2.504  -8.556  0.00  0.00    +0.000 HD
BRANCH   2   4
ATOM      4  C   UNL     1      -2.193   0.454  -8.501  0.00  0.00    +0.000 C 
BRANCH   4   5
ATOM      5  C   UNL     1      -2.732  -0.076  -9.850  0.00  0.00    +0.000 C 
BRANCH   5   6
ATOM      6  N   UNL     1      -2.211  -1.427 -10.088  0.00  0.00    +0.000 NA
ATOM      7  H   UNL     1      -2.614  -1.821 -10.936  0.00  0.00    +0.000 HD
ATOM      8  H   UNL     1      -2.497  -2.040  -9.324  0.00  0.00    +0.000 HD
ENDBRANCH   5   6
ENDBRANCH   4   5
ENDBRANCH   2   4
ENDBRANCH   1   2
BRANCH   1   9
ATOM      9  C   UNL     1      -4.388   3.387  -7.337  0.00  0.00    +0.000 C 
ATOM     10  O   UNL     1      -3.590   3.944  -6.572  0.00  0.00    +0.000 OA
BRANCH   9  11
ATOM     11  C   UNL     1      -5.516   4.195  -7.880  0.00  0.00    +0.000 A 
ATOM     12  C   UNL     1      -5.650   5.521  -7.474  0.00  0.00    +0.000 A 
ATOM     13  S   UNL     1      -6.855   6.386  -8.314  0.00  0.00    +0.000 S 
ATOM     14  C   UNL     1      -7.249   5.024  -9.247  0.00  0.00    +0.000 A 
ATOM     15  N   UNL     1      -8.163   5.114 -10.252  0.00  0.00    +0.000 NA
ATOM     16  C   UNL     1      -8.309   4.029 -10.933  0.00  0.00    +0.000 A 
ATOM     17  N   UNL     1      -7.674   2.854 -10.679  0.00  0.00    +0.000 N 
ATOM     18  C   UNL     1      -6.913   2.672  -9.548  0.00  0.00    +0.000 A 
ATOM     19  O   UNL     1      -6.658   1.536  -9.178  0.00  0.00    +0.000 OA
ATOM     20  C   UNL     1      -6.542   3.895  -8.860  0.00  0.00    +0.000 A 
ATOM     21  H   UNL     1      -7.920   2.010 -11.170  0.00  0.00    +0.000 HD
ENDBRANCH   9  11
ENDBRANCH   1   9
BRANCH   1  22
ATOM     22  C   UNL     1      -4.894   0.900  -6.958  0.00  0.00    +0.000 C 
BRANCH  22  23
ATOM     23  C   UNL     1      -4.758   0.807  -5.452  0.00  0.00    +0.000 A 
ATOM     24  C   UNL     1      -5.924   0.620  -4.684  0.00  0.00    +0.000 A 
ATOM     25  C   UNL     1      -5.889   0.656  -3.289  0.00  0.00    +0.000 A 
ATOM     26  C   UNL     1      -4.671   0.796  -2.619  0.00  0.00    +0.000 A 
ATOM     27  C   UNL     1      -3.492   0.811  -3.381  0.00  0.00    +0.000 A 
ATOM     28  C   UNL     1      -3.536   0.835  -4.784  0.00  0.00    +0.000 A 
BRANCH  26  29
ATOM     29  C   UNL     1      -4.635   0.949  -1.113  0.00  0.00    +0.000 C 
BRANCH  29  30
ATOM     30  N   UNL     1      -5.194  -0.227  -0.465  0.00  0.00    +0.000 NA
ATOM     31  H   UNL     1      -4.701  -1.051  -0.788  0.00  0.00    +0.000 HD
BRANCH  30  32
ATOM     32  C   UNL     1      -5.236  -0.187   0.980  0.00  0.00    +0.000 C 
ATOM     33  C   UNL     1      -5.860  -1.472   1.521  0.00  0.00    +0.000 C 
ATOM     34  C   UNL     1      -4.741  -2.501   1.395  0.00  0.00    +0.000 C 
ATOM     35  C   UNL     1      -3.463  -1.671   1.443  0.00  0.00    +0.000 C 
ATOM     36  N   UNL     1      -3.904  -0.283   1.542  0.00  0.00    +0.000 NA
ATOM     37  H   UNL     1      -3.252   0.367   1.121  0.00  0.00    +0.000 HD
ENDBRANCH  30  32
ENDBRANCH  29  30
ENDBRANCH  26  29
ENDBRANCH  22  23
ENDBRANCH   1  22
TORSDOF 11
