REMARK  Name = 
REMARK  6 active torsions:
REMARK  status: ('A' for Active; 'I' for Inactive)
REMARK    1  A    between atoms: C_1  and  C_2
REMARK    2  A    between atoms: C_4  and  C_5
REMARK    3  A    between atoms: C_5  and  N_6
REMARK    4  A    between atoms: C_7  and  C_9
REMARK    5  A    between atoms: C_21  and  C_22
REMARK    6  A    between atoms: C_22  and  N_23
REMARK                            x       y       z     vdW  Elec       q    Type
REMARK                         _______ _______ _______ _____ _____    ______ ____
ROOT
ATOM      1  N   UNL     1      -2.649   2.889  -1.083  0.00  0.00    +0.000 N 
ATOM      2  C   UNL     1      -3.977   2.844  -1.401  0.00  0.00    +0.000 C 
ATOM      3  O   UNL     1      -4.821   2.403  -0.626  0.00  0.00    +0.000 OA
ATOM      4  H   UNL     1      -1.953   3.032  -1.809  0.00  0.00    +0.000 HD
ENDROOT
BRANCH   2   5
ATOM      5  C   UNL     1      -4.353   3.435  -2.691  0.00  0.00    +0.000 A 
ATOM      6  C   UNL     1      -5.654   3.874  -2.889  0.00  0.00    +0.000 A 
ATOM      7  S   UNL     1      -5.905   4.601  -4.411  0.00  0.00    +0.000 S 
ATOM      8  C   UNL     1      -4.295   4.319  -4.873  0.00  0.00    +0.000 A 
ATOM      9  N   UNL     1      -3.844   4.696  -6.102  0.00  0.00    +0.000 NA
ATOM     10  C   UNL     1      -2.608   4.402  -6.332  0.00  0.00    +0.000 A 
ATOM     11  N   UNL     1      -1.780   3.763  -5.442  0.00  0.00    +0.000 N 
ATOM     12  C   UNL     1      -2.182   3.385  -4.182  0.00  0.00    +0.000 A 
ATOM     13  O   UNL     1      -1.400   2.861  -3.400  0.00  0.00    +0.000 OA
ATOM     14  C   UNL     1      -3.569   3.685  -3.879  0.00  0.00    +0.000 A 
ATOM     15  H   UNL     1      -0.819   3.568  -5.678  0.00  0.00    +0.000 HD
ENDBRANCH   2   5
BRANCH   1  16
ATOM     16  C   UNL     1      -2.131   2.438   0.184  0.00  0.00    +0.000 C 
BRANCH  16  20
ATOM     17  C   UNL     1       1.883   0.283  -1.298  0.00  0.00    +0.000 C 
ATOM     18  C   UNL     1       0.621   0.081  -0.517  0.00  0.00    +0.000 A 
ATOM     19  N   UNL     1      -0.122   1.214  -0.414  0.00  0.00    +0.000 NA
ATOM     20  C   UNL     1      -1.388   1.135   0.053  0.00  0.00    +0.000 A 
ATOM     21  C   UNL     1      -1.980  -0.077   0.363  0.00  0.00    +0.000 A 
ATOM     22  C   UNL     1      -1.192  -1.227   0.313  0.00  0.00    +0.000 A 
ATOM     23  C   UNL     1       0.155  -1.167  -0.089  0.00  0.00    +0.000 A 
BRANCH  23  24
ATOM     24  C   UNL     1       0.985  -2.435  -0.112  0.00  0.00    +0.000 C 
BRANCH  24  25
ATOM     25  N   UNL     1       1.693  -2.851   1.106  0.00  0.00    +0.000 NA
ATOM     26  C   UNL     1       0.889  -3.112   2.295  0.00  0.00    +0.000 C 
ATOM     27  C   UNL     1       1.106  -1.904   3.186  0.00  0.00    +0.000 C 
ATOM     28  C   UNL     1       2.550  -1.526   2.920  0.00  0.00    +0.000 C 
ATOM     29  C   UNL     1       2.848  -2.058   1.522  0.00  0.00    +0.000 C 
ENDBRANCH  24  25
ENDBRANCH  23  24
ENDBRANCH  16  20
ENDBRANCH   1  16
TORSDOF 5
