REMARK  Name = 
REMARK  7 active torsions:
REMARK  status: ('A' for Active; 'I' for Inactive)
REMARK    1  A    between atoms: C_1  and  N_2
REMARK    2  A    between atoms: N_2  and  C_3
REMARK    3  A    between atoms: C_4  and  C_6
REMARK    4  A    between atoms: C_9  and  N_10
REMARK    5  A    between atoms: N_10  and  C_11
REMARK    6  A    between atoms: C_11  and  C_12
REMARK    7  A    between atoms: C_12  and  C_15
REMARK                            x       y       z     vdW  Elec       q    Type
REMARK                         _______ _______ _______ _____ _____    ______ ____
ROOT
ATOM      1  N   UNL     1       8.769  -1.119   0.103  0.00  0.00    +0.000 N 
ATOM      2  H   UNL     1       9.121  -1.820   0.749  0.00  0.00    +0.000 HD
ENDROOT
BRANCH   1   6
ATOM      3  C   UNL     1       4.659  -1.209   0.292  0.00  0.00    +0.000 A 
ATOM      4  C   UNL     1       5.386  -0.254   0.989  0.00  0.00    +0.000 A 
ATOM      5  N   UNL     1       6.745  -0.185   0.952  0.00  0.00    +0.000 NA
ATOM      6  C   UNL     1       7.369  -1.094   0.174  0.00  0.00    +0.000 A 
ATOM      7  C   UNL     1       6.627  -2.065  -0.503  0.00  0.00    +0.000 A 
ATOM      8  N   UNL     1       5.273  -2.147  -0.471  0.00  0.00    +0.000 NA
BRANCH   3  12
ATOM      9  C   UNL     1       0.961  -2.142   0.013  0.00  0.00    +0.000 C 
ATOM     10  N   UNL     1       2.403  -2.294   0.053  0.00  0.00    +0.000 N 
ATOM     11  C   UNL     1       2.949  -3.641  -0.016  0.00  0.00    +0.000 C 
ATOM     12  C   UNL     1       3.166  -1.157   0.341  0.00  0.00    +0.000 C 
ATOM     13  O   UNL     1       2.639  -0.081   0.635  0.00  0.00    +0.000 OA
ENDBRANCH   3  12
ENDBRANCH   1   6
BRANCH   1  14
ATOM     14  C   UNL     1       9.408   0.206   0.272  0.00  0.00    +0.000 C 
BRANCH  14  15
ATOM     15  C   UNL     1       9.477   1.001  -1.063  0.00  0.00    +0.000 C 
ATOM     16  F   UNL     1      10.230   0.269  -1.947  0.00  0.00    +0.000 F 
ATOM     17  F   UNL     1       8.234   1.061  -1.630  0.00  0.00    +0.000 F 
BRANCH  15  18
ATOM     18  C   UNL     1      10.059   2.384  -0.859  0.00  0.00    +0.000 A 
ATOM     19  C   UNL     1      11.446   2.596  -0.946  0.00  0.00    +0.000 A 
ATOM     20  C   UNL     1      11.971   3.881  -0.798  0.00  0.00    +0.000 A 
ATOM     21  C   UNL     1      11.125   4.959  -0.566  0.00  0.00    +0.000 A 
ATOM     22  C   UNL     1       9.749   4.760  -0.471  0.00  0.00    +0.000 A 
ATOM     23  C   UNL     1       9.218   3.479  -0.616  0.00  0.00    +0.000 A 
ENDBRANCH  15  18
ENDBRANCH  14  15
ENDBRANCH   1  14
TORSDOF 5
