REMARK  Name = 
REMARK  4 active torsions:
REMARK  status: ('A' for Active; 'I' for Inactive)
REMARK    1  A    between atoms: C_2  and  C_4
REMARK    2  A    between atoms: C_7  and  O_8
REMARK    3  A    between atoms: O_8  and  C_9
REMARK    4  A    between atoms: C_9  and  C_10
REMARK                            x       y       z     vdW  Elec       q    Type
REMARK                         _______ _______ _______ _____ _____    ______ ____
ROOT
ATOM      1  C   UNL     1       3.198   0.970   0.715  0.00  0.00    +0.000 A 
ATOM      2  C   UNL     1       2.754   1.341   1.984  0.00  0.00    +0.000 A 
ATOM      3  C   UNL     1       3.500   2.261   2.728  0.00  0.00    +0.000 A 
ATOM      4  C   UNL     1       4.676   2.755   2.181  0.00  0.00    +0.000 A 
ATOM      5  N   UNL     1       5.121   2.418   0.950  0.00  0.00    +0.000 NA
ATOM      6  C   UNL     1       4.377   1.529   0.248  0.00  0.00    +0.000 A 
ENDROOT
BRANCH   1   8
ATOM      7  N   UNL     1       1.148  -0.139   0.025  0.00  0.00    +0.000 N 
ATOM      8  C   UNL     1       2.497  -0.017  -0.138  0.00  0.00    +0.000 C 
ATOM      9  O   UNL     1       3.099  -0.676  -0.974  0.00  0.00    +0.000 OA
ATOM     10  H   UNL     1       0.668  -0.744  -0.632  0.00  0.00    +0.000 HD
ATOM     11  H   UNL     1       0.594   0.559   0.501  0.00  0.00    +0.000 HD
ENDBRANCH   1   8
BRANCH   4  12
ATOM     12  O   UNL     1       5.414   3.652   2.930  0.00  0.00    +0.000 OA
BRANCH  12  13
ATOM     13  C   UNL     1       6.795   3.636   2.548  0.00  0.00    +0.000 C 
BRANCH  13  14
ATOM     14  C   UNL     1       7.572   4.666   3.325  0.00  0.00    +0.000 A 
ATOM     15  C   UNL     1       8.619   4.307   4.180  0.00  0.00    +0.000 A 
ATOM     16  C   UNL     1       9.360   5.296   4.821  0.00  0.00    +0.000 A 
ATOM     17  C   UNL     1       9.031   6.620   4.585  0.00  0.00    +0.000 A 
ATOM     18  N   UNL     1       8.026   7.007   3.772  0.00  0.00    +0.000 NA
ATOM     19  C   UNL     1       7.320   6.024   3.164  0.00  0.00    +0.000 A 
ENDBRANCH  13  14
ENDBRANCH  12  13
ENDBRANCH   4  12
TORSDOF 4
