REMARK  Name = 
REMARK  6 active torsions:
REMARK  status: ('A' for Active; 'I' for Inactive)
REMARK    1  A    between atoms: C_1  and  O_2
REMARK    2  A    between atoms: O_2  and  C_3
REMARK    3  A    between atoms: C_5  and  C_6
REMARK    4  A    between atoms: C_6  and  N_7
REMARK    5  A    between atoms: C_14  and  C_15
REMARK    6  A    between atoms: C_21  and  O_22
REMARK                            x       y       z     vdW  Elec       q    Type
REMARK                         _______ _______ _______ _____ _____    ______ ____
ROOT
ATOM      1  N   UNL     1       0.992   4.782   0.016  0.00  0.00    +0.000 N 
ATOM      2  C   UNL     1       0.065   4.613  -0.999  0.00  0.00    +0.000 A 
ATOM      3  C   UNL     1      -1.159   4.368  -0.433  0.00  0.00    +0.000 A 
ATOM      4  C   UNL     1      -0.989   4.435   0.963  0.00  0.00    +0.000 A 
ATOM      5  N   UNL     1      -1.953   4.249   1.894  0.00  0.00    +0.000 NA
ATOM      6  C   UNL     1      -1.572   4.408   3.165  0.00  0.00    +0.000 A 
ATOM      7  C   UNL     1      -0.297   4.745   3.566  0.00  0.00    +0.000 A 
ATOM      8  C   UNL     1       0.715   4.917   2.607  0.00  0.00    +0.000 A 
ATOM      9  C   UNL     1       0.352   4.749   1.251  0.00  0.00    +0.000 A 
ENDROOT
BRANCH   8  10
ATOM     10  C   UNL     1       2.048   5.345   3.091  0.00  0.00    +0.000 C 
ATOM     11  N   UNL     1       2.464   4.839   4.295  0.00  0.00    +0.000 N 
ATOM     12  O   UNL     1       2.753   6.132   2.481  0.00  0.00    +0.000 OA
ATOM     13  H   UNL     1       1.958   4.145   4.827  0.00  0.00    +0.000 HD
ATOM     14  H   UNL     1       3.359   5.154   4.650  0.00  0.00    +0.000 HD
ENDBRANCH   8  10
BRANCH   1  15
ATOM     15  C   UNL     1       2.413   4.911  -0.303  0.00  0.00    +0.000 C 
BRANCH  15  18
ATOM     16  C   UNL     1       3.678   1.468  -1.405  0.00  0.00    +0.000 A 
ATOM     17  C   UNL     1       3.081   2.734  -1.428  0.00  0.00    +0.000 A 
ATOM     18  C   UNL     1       3.107   3.569  -0.292  0.00  0.00    +0.000 A 
ATOM     19  C   UNL     1       3.761   3.122   0.862  0.00  0.00    +0.000 A 
ATOM     20  C   UNL     1       4.355   1.861   0.900  0.00  0.00    +0.000 A 
ATOM     21  C   UNL     1       4.309   1.043  -0.228  0.00  0.00    +0.000 A 
BRANCH  16  23
ATOM     22  C   UNL     1       3.074   0.978  -3.663  0.00  0.00    +0.000 C 
ATOM     23  O   UNL     1       3.695   0.581  -2.449  0.00  0.00    +0.000 OA
ENDBRANCH  16  23
BRANCH  21  24
ATOM     24  O   UNL     1       4.883  -0.200  -0.186  0.00  0.00    +0.000 OA
ATOM     25  H   UNL     1       5.248  -0.349   0.699  0.00  0.00    +0.000 HD
ENDBRANCH  21  24
ENDBRANCH  15  18
ENDBRANCH   1  15
TORSDOF 5
