REMARK  Name = 
REMARK  6 active torsions:
REMARK  status: ('A' for Active; 'I' for Inactive)
REMARK    1  A    between atoms: C_2  and  C_3
REMARK    2  A    between atoms: N_10  and  C_11
REMARK    3  A    between atoms: C_11  and  C_12
REMARK    4  A    between atoms: C_15  and  C_16
REMARK    5  A    between atoms: C_16  and  N_17
REMARK    6  A    between atoms: C_18  and  C_20
REMARK                            x       y       z     vdW  Elec       q    Type
REMARK                         _______ _______ _______ _____ _____    ______ ____
ROOT
ATOM      1  C   UNL     1       0.737  -4.230  -0.019  0.00  0.00    +0.000 A 
ATOM      2  C   UNL     1       0.090  -5.465  -0.003  0.00  0.00    +0.000 A 
ATOM      3  C   UNL     1      -1.303  -5.513  -0.044  0.00  0.00    +0.000 A 
ATOM      4  C   UNL     1      -2.038  -4.328  -0.108  0.00  0.00    +0.000 A 
ATOM      5  C   UNL     1      -1.314  -3.140  -0.103  0.00  0.00    +0.000 A 
ATOM      6  N   UNL     1       0.043  -3.064  -0.075  0.00  0.00    +0.000 NA
ENDROOT
BRANCH   1   7
ATOM      7  C   UNL     1       2.250  -4.143   0.059  0.00  0.00    +0.000 C 
BRANCH   7  15
ATOM      8  C   UNL     1       4.691  -4.483  -3.639  0.00  0.00    +0.000 A 
ATOM      9  C   UNL     1       4.836  -4.687  -5.000  0.00  0.00    +0.000 A 
ATOM     10  C   UNL     1       3.797  -5.544  -5.423  0.00  0.00    +0.000 A 
ATOM     11  C   UNL     1       3.069  -5.869  -4.305  0.00  0.00    +0.000 A 
ATOM     12  N   UNL     1       3.579  -5.195  -3.202  0.00  0.00    +0.000 N 
ATOM     13  C   UNL     1       3.074  -5.350  -1.902  0.00  0.00    +0.000 C 
ATOM     14  O   UNL     1       2.736  -6.460  -1.516  0.00  0.00    +0.000 OA
ATOM     15  N   UNL     1       2.915  -4.159  -1.237  0.00  0.00    +0.000 N 
ATOM     16  H   UNL     1       2.931  -3.284  -1.748  0.00  0.00    +0.000 HD
BRANCH   8  18
ATOM     17  N   UNL     1       6.364  -3.217  -2.134  0.00  0.00    +0.000 NA
ATOM     18  C   UNL     1       5.601  -3.785  -2.799  0.00  0.00    +0.000 C 
ENDBRANCH   8  18
ENDBRANCH   7  15
ENDBRANCH   1   7
BRANCH   4  19
ATOM     19  C   UNL     1      -3.537  -4.328  -0.148  0.00  0.00    +0.000 C 
BRANCH  19  20
ATOM     20  N   UNL     1      -4.109  -4.227   1.172  0.00  0.00    +0.000 N 
ATOM     21  C   UNL     1      -5.470  -4.141   1.349  0.00  0.00    +0.000 C 
ATOM     22  O   UNL     1      -6.242  -4.001   0.405  0.00  0.00    +0.000 OA
ATOM     23  H   UNL     1      -3.534  -4.542   1.947  0.00  0.00    +0.000 HD
BRANCH  21  24
ATOM     24  C   UNL     1      -5.955  -4.207   2.732  0.00  0.00    +0.000 A 
ATOM     25  C   UNL     1      -7.159  -3.608   3.077  0.00  0.00    +0.000 A 
ATOM     26  S   UNL     1      -7.592  -3.834   4.711  0.00  0.00    +0.000 S 
ATOM     27  C   UNL     1      -6.222  -4.802   4.996  0.00  0.00    +0.000 A 
ATOM     28  N   UNL     1      -6.032  -5.418   6.195  0.00  0.00    +0.000 NA
ATOM     29  C   UNL     1      -4.963  -6.140   6.259  0.00  0.00    +0.000 A 
ATOM     30  N   UNL     1      -4.049  -6.275   5.247  0.00  0.00    +0.000 N 
ATOM     31  C   UNL     1      -4.177  -5.636   4.038  0.00  0.00    +0.000 A 
ATOM     32  O   UNL     1      -3.299  -5.705   3.183  0.00  0.00    +0.000 OA
ATOM     33  C   UNL     1      -5.399  -4.872   3.886  0.00  0.00    +0.000 A 
ATOM     34  H   UNL     1      -3.207  -6.815   5.379  0.00  0.00    +0.000 HD
ENDBRANCH  21  24
ENDBRANCH  19  20
ENDBRANCH   4  19
TORSDOF 6
