REMARK  Name = 
REMARK  10 active torsions:
REMARK  status: ('A' for Active; 'I' for Inactive)
REMARK    1  A    between atoms: N_1  and  C_2
REMARK    2  A    between atoms: C_2  and  C_3
REMARK    3  A    between atoms: C_3  and  N_4
REMARK    4  A    between atoms: N_4  and  C_5
REMARK    5  A    between atoms: C_5  and  C_6
REMARK    6  A    between atoms: C_9  and  C_10
REMARK    7  A    between atoms: C_10  and  C_11
REMARK    8  A    between atoms: C_14  and  C_15
REMARK    9  A    between atoms: C_15  and  N_16
REMARK   10  A    between atoms: C_17  and  C_19
REMARK                            x       y       z     vdW  Elec       q    Type
REMARK                         _______ _______ _______ _____ _____    ______ ____
ROOT
ATOM      1  C   UNL     1      11.356  -2.243   1.975  0.00  0.00    +0.000 A 
ATOM      2  C   UNL     1      11.087  -3.036   3.099  0.00  0.00    +0.000 A 
ATOM      3  C   UNL     1      11.669  -2.743   4.336  0.00  0.00    +0.000 A 
ATOM      4  C   UNL     1      12.522  -1.641   4.479  0.00  0.00    +0.000 A 
ATOM      5  C   UNL     1      12.820  -0.870   3.349  0.00  0.00    +0.000 A 
ATOM      6  C   UNL     1      12.237  -1.162   2.112  0.00  0.00    +0.000 A 
ENDROOT
BRANCH   1   7
ATOM      7  C   UNL     1      10.700  -2.540   0.646  0.00  0.00    +0.000 C 
BRANCH   7  11
ATOM      8  C   UNL     1       7.024  -0.469   0.000  0.00  0.00    +0.000 A 
ATOM      9  C   UNL     1       6.981  -1.727   0.597  0.00  0.00    +0.000 A 
ATOM     10  C   UNL     1       8.175  -2.409   0.816  0.00  0.00    +0.000 A 
ATOM     11  C   UNL     1       9.387  -1.834   0.431  0.00  0.00    +0.000 A 
ATOM     12  C   UNL     1       9.332  -0.573  -0.152  0.00  0.00    +0.000 A 
ATOM     13  N   UNL     1       8.191   0.117  -0.378  0.00  0.00    +0.000 NA
BRANCH   8  14
ATOM     14  C   UNL     1       5.750   0.340  -0.147  0.00  0.00    +0.000 C 
BRANCH  14  15
ATOM     15  N   UNL     1       5.123   0.718   1.138  0.00  0.00    +0.000 NA
ATOM     16  H   UNL     1       4.357   1.357   0.908  0.00  0.00    +0.000 HD
BRANCH  15  17
ATOM     17  C   UNL     1       6.043   1.491   1.995  0.00  0.00    +0.000 C 
BRANCH  17  18
ATOM     18  C   UNL     1       6.413   2.873   1.421  0.00  0.00    +0.000 C 
BRANCH  18  19
ATOM     19  N   UNL     1       5.211   3.656   1.104  0.00  0.00    +0.000 NA
ATOM     20  H   UNL     1       5.499   4.556   0.727  0.00  0.00    +0.000 HD
ATOM     21  H   UNL     1       4.717   3.857   1.974  0.00  0.00    +0.000 HD
ENDBRANCH  18  19
ENDBRANCH  17  18
ENDBRANCH  15  17
ENDBRANCH  14  15
ENDBRANCH   8  14
ENDBRANCH   7  11
ENDBRANCH   1   7
BRANCH   4  22
ATOM     22  C   UNL     1      13.126  -1.299   5.817  0.00  0.00    +0.000 C 
BRANCH  22  23
ATOM     23  N   UNL     1      14.398  -1.948   6.005  0.00  0.00    +0.000 N 
ATOM     24  C   UNL     1      15.069  -1.860   7.197  0.00  0.00    +0.000 C 
ATOM     25  O   UNL     1      14.587  -1.280   8.170  0.00  0.00    +0.000 OA
ATOM     26  H   UNL     1      14.900  -2.228   5.167  0.00  0.00    +0.000 HD
BRANCH  24  27
ATOM     27  C   UNL     1      16.368  -2.538   7.278  0.00  0.00    +0.000 A 
ATOM     28  C   UNL     1      16.877  -2.897   8.519  0.00  0.00    +0.000 A 
ATOM     29  S   UNL     1      18.372  -3.713   8.436  0.00  0.00    +0.000 S 
ATOM     30  C   UNL     1      18.416  -3.572   6.741  0.00  0.00    +0.000 A 
ATOM     31  N   UNL     1      19.468  -4.056   6.028  0.00  0.00    +0.000 NA
ATOM     32  C   UNL     1      19.386  -3.858   4.756  0.00  0.00    +0.000 A 
ATOM     33  N   UNL     1      18.345  -3.222   4.130  0.00  0.00    +0.000 N 
ATOM     34  C   UNL     1      17.250  -2.738   4.805  0.00  0.00    +0.000 A 
ATOM     35  O   UNL     1      16.320  -2.205   4.211  0.00  0.00    +0.000 OA
ATOM     36  C   UNL     1      17.297  -2.928   6.244  0.00  0.00    +0.000 A 
ATOM     37  H   UNL     1      18.340  -3.104   3.128  0.00  0.00    +0.000 HD
ENDBRANCH  24  27
ENDBRANCH  22  23
ENDBRANCH   4  22
TORSDOF 10
