REMARK  Name = 
REMARK  5 active torsions:
REMARK  status: ('A' for Active; 'I' for Inactive)
REMARK    1  A    between atoms: C_1  and  O_2
REMARK    2  A    between atoms: O_2  and  C_3
REMARK    3  A    between atoms: C_5  and  C_6
REMARK    4  A    between atoms: C_6  and  N_7
REMARK    5  A    between atoms: C_12  and  C_13
REMARK                            x       y       z     vdW  Elec       q    Type
REMARK                         _______ _______ _______ _____ _____    ______ ____
ROOT
ATOM      1  N   UNL     1       6.410   4.676   0.454  0.00  0.00    +0.000 N 
ATOM      2  C   UNL     1       7.441   4.619   1.365  0.00  0.00    +0.000 A 
ATOM      3  C   UNL     1       7.844   5.909   1.637  0.00  0.00    +0.000 A 
ATOM      4  C   UNL     1       7.038   6.780   0.869  0.00  0.00    +0.000 A 
ATOM      5  N   UNL     1       7.098   8.133   0.783  0.00  0.00    +0.000 NA
ATOM      6  C   UNL     1       6.188   8.680  -0.067  0.00  0.00    +0.000 A 
ATOM      7  C   UNL     1       5.241   7.978  -0.803  0.00  0.00    +0.000 A 
ATOM      8  C   UNL     1       5.194   6.590  -0.702  0.00  0.00    +0.000 A 
ATOM      9  C   UNL     1       6.131   5.996   0.149  0.00  0.00    +0.000 A 
ENDROOT
BRANCH   6  10
ATOM     10  C   UNL     1       6.253  10.174  -0.230  0.00  0.00    +0.000 C 
ATOM     11  N   UNL     1       7.224  10.809   0.495  0.00  0.00    +0.000 N 
ATOM     12  O   UNL     1       5.497  10.793  -0.966  0.00  0.00    +0.000 OA
ATOM     13  H   UNL     1       7.843  10.268   1.091  0.00  0.00    +0.000 HD
ATOM     14  H   UNL     1       7.330  11.808   0.418  0.00  0.00    +0.000 HD
ENDBRANCH   6  10
BRANCH   1  15
ATOM     15  C   UNL     1       5.839   3.506  -0.210  0.00  0.00    +0.000 C 
BRANCH  15  18
ATOM     16  C   UNL     1       3.869   1.292   2.209  0.00  0.00    +0.000 A 
ATOM     17  C   UNL     1       4.926   1.876   1.500  0.00  0.00    +0.000 A 
ATOM     18  C   UNL     1       4.694   2.898   0.561  0.00  0.00    +0.000 A 
ATOM     19  C   UNL     1       3.378   3.331   0.348  0.00  0.00    +0.000 A 
ATOM     20  C   UNL     1       2.326   2.780   1.079  0.00  0.00    +0.000 A 
ATOM     21  C   UNL     1       2.576   1.776   2.009  0.00  0.00    +0.000 A 
ATOM     22  F   UNL     1       1.534   1.310   2.713  0.00  0.00    +0.000 F 
BRANCH  16  24
ATOM     23  C   UNL     1       3.240  -0.713   3.283  0.00  0.00    +0.000 C 
ATOM     24  O   UNL     1       4.228   0.294   3.076  0.00  0.00    +0.000 OA
ENDBRANCH  16  24
ENDBRANCH  15  18
ENDBRANCH   1  15
TORSDOF 4
