REMARK  Name = 
REMARK  6 active torsions:
REMARK  status: ('A' for Active; 'I' for Inactive)
REMARK    1  A    between atoms: C_2  and  C_25
REMARK    2  A    between atoms: N_3  and  C_4
REMARK    3  A    between atoms: C_4  and  C_5
REMARK    4  A    between atoms: C_8  and  C_9
REMARK    5  A    between atoms: C_9  and  N_10
REMARK    6  A    between atoms: C_11  and  C_13
REMARK                            x       y       z     vdW  Elec       q    Type
REMARK                         _______ _______ _______ _____ _____    ______ ____
ROOT
ATOM      1  C   UNL     1       3.319   2.858  -2.248  0.00  0.00    +0.000 A 
ATOM      2  C   UNL     1       3.022   4.227  -2.279  0.00  0.00    +0.000 A 
ATOM      3  C   UNL     1       3.860   5.125  -2.950  0.00  0.00    +0.000 A 
ATOM      4  C   UNL     1       5.002   4.669  -3.620  0.00  0.00    +0.000 A 
ATOM      5  C   UNL     1       5.305   3.302  -3.579  0.00  0.00    +0.000 A 
ATOM      6  C   UNL     1       4.467   2.404  -2.910  0.00  0.00    +0.000 A 
ENDROOT
BRANCH   1   7
ATOM      7  C   UNL     1       2.428   1.895  -1.510  0.00  0.00    +0.000 C 
BRANCH   7  10
ATOM      8  O   UNL     1       0.542   0.014  -0.686  0.00  0.00    +0.000 OA
ATOM      9  C   UNL     1       0.491   0.432  -1.840  0.00  0.00    +0.000 C 
ATOM     10  N   UNL     1       1.384   1.352  -2.339  0.00  0.00    +0.000 N 
ATOM     11  H   UNL     1       1.233   1.686  -3.287  0.00  0.00    +0.000 HD
BRANCH   9  12
ATOM     12  C   UNL     1      -0.525   0.005  -2.782  0.00  0.00    +0.000 A 
ATOM     13  N   UNL     1      -0.599   0.368  -4.052  0.00  0.00    +0.000 NA
ATOM     14  C   UNL     1      -1.703  -0.279  -4.552  0.00  0.00    +0.000 A 
ATOM     15  C   UNL     1      -2.319  -1.026  -3.577  0.00  0.00    +0.000 A 
ATOM     16  N   UNL     1      -1.555  -0.846  -2.459  0.00  0.00    +0.000 N 
ATOM     17  H   UNL     1      -1.696  -1.247  -1.542  0.00  0.00    +0.000 HD
ENDBRANCH   9  12
ENDBRANCH   7  10
ENDBRANCH   1   7
BRANCH   4  18
ATOM     18  C   UNL     1       5.907   5.628  -4.350  0.00  0.00    +0.000 C 
BRANCH  18  19
ATOM     19  N   UNL     1       6.945   6.138  -3.489  0.00  0.00    +0.000 N 
ATOM     20  C   UNL     1       7.827   7.091  -3.931  0.00  0.00    +0.000 C 
ATOM     21  O   UNL     1       7.738   7.586  -5.052  0.00  0.00    +0.000 OA
ATOM     22  H   UNL     1       7.175   5.587  -2.667  0.00  0.00    +0.000 HD
BRANCH  20  23
ATOM     23  C   UNL     1       8.849   7.540  -2.977  0.00  0.00    +0.000 A 
ATOM     24  C   UNL     1       9.449   8.783  -3.147  0.00  0.00    +0.000 A 
ATOM     25  S   UNL     1      10.569   9.173  -1.921  0.00  0.00    +0.000 S 
ATOM     26  C   UNL     1      10.337   7.671  -1.154  0.00  0.00    +0.000 A 
ATOM     27  N   UNL     1      11.030   7.346  -0.030  0.00  0.00    +0.000 NA
ATOM     28  C   UNL     1      10.779   6.166   0.429  0.00  0.00    +0.000 A 
ATOM     29  N   UNL     1       9.895   5.282  -0.133  0.00  0.00    +0.000 N 
ATOM     30  C   UNL     1       9.153   5.576  -1.253  0.00  0.00    +0.000 A 
ATOM     31  O   UNL     1       8.343   4.776  -1.709  0.00  0.00    +0.000 OA
ATOM     32  C   UNL     1       9.404   6.890  -1.813  0.00  0.00    +0.000 A 
ATOM     33  H   UNL     1       9.740   4.373   0.277  0.00  0.00    +0.000 HD
ENDBRANCH  20  23
ENDBRANCH  18  19
ENDBRANCH   4  18
TORSDOF 6
