REMARK  Name = 
REMARK  5 active torsions:
REMARK  status: ('A' for Active; 'I' for Inactive)
REMARK    1  A    between atoms: C_2  and  C_4
REMARK    2  A    between atoms: C_7  and  N_8
REMARK    3  A    between atoms: N_8  and  C_9
REMARK    4  A    between atoms: C_9  and  C_10
REMARK    5  A    between atoms: C_14  and  C_15
REMARK                            x       y       z     vdW  Elec       q    Type
REMARK                         _______ _______ _______ _____ _____    ______ ____
ROOT
ATOM      1  C   UNL     1       4.983  -0.477   6.084  0.00  0.00    +0.000 C 
ENDROOT
BRANCH   1   2
ATOM      2  C   UNL     1       5.894  -0.107   7.238  0.00  0.00    +0.000 A 
ATOM      3  C   UNL     1       5.651   1.050   7.972  0.00  0.00    +0.000 A 
ATOM      4  C   UNL     1       6.479   1.342   9.047  0.00  0.00    +0.000 A 
ATOM      5  C   UNL     1       7.527   0.480   9.355  0.00  0.00    +0.000 A 
ATOM      6  C   UNL     1       7.728  -0.661   8.580  0.00  0.00    +0.000 A 
ATOM      7  N   UNL     1       6.925  -0.947   7.524  0.00  0.00    +0.000 NA
BRANCH   6   8
ATOM      8  C   UNL     1       8.812  -1.631   8.846  0.00  0.00    +0.000 A 
ATOM      9  C   UNL     1       9.397  -2.371   7.796  0.00  0.00    +0.000 A 
ATOM     10  C   UNL     1      10.443  -3.273   8.028  0.00  0.00    +0.000 A 
ATOM     11  C   UNL     1      10.914  -3.454   9.321  0.00  0.00    +0.000 A 
ATOM     12  F   UNL     1      11.923  -4.307   9.544  0.00  0.00    +0.000 F 
ATOM     13  C   UNL     1      10.342  -2.757  10.373  0.00  0.00    +0.000 A 
ATOM     14  F   UNL     1      10.787  -2.936  11.625  0.00  0.00    +0.000 F 
ATOM     15  C   UNL     1       9.301  -1.859  10.147  0.00  0.00    +0.000 A 
ENDBRANCH   6   8
ENDBRANCH   1   2
BRANCH   1  16
ATOM     16  N   UNL     1       5.400   0.142   4.836  0.00  0.00    +0.000 N 
ATOM     17  H   UNL     1       6.153   0.817   4.877  0.00  0.00    +0.000 HD
BRANCH  16  21
ATOM     18  C   UNL     1       3.437  -0.425   1.149  0.00  0.00    +0.000 A 
ATOM     19  C   UNL     1       2.939  -1.032   2.302  0.00  0.00    +0.000 A 
ATOM     20  C   UNL     1       3.581  -0.840   3.530  0.00  0.00    +0.000 A 
ATOM     21  C   UNL     1       4.722  -0.037   3.644  0.00  0.00    +0.000 A 
ATOM     22  C   UNL     1       5.221   0.550   2.473  0.00  0.00    +0.000 A 
ATOM     23  C   UNL     1       4.590   0.359   1.238  0.00  0.00    +0.000 A 
BRANCH  18  25
ATOM     24  N   UNL     1       1.466  -0.929  -0.194  0.00  0.00    +0.000 N 
ATOM     25  C   UNL     1       2.799  -0.621  -0.178  0.00  0.00    +0.000 C 
ATOM     26  O   UNL     1       3.425  -0.485  -1.219  0.00  0.00    +0.000 OA
ATOM     27  H   UNL     1       1.029  -0.967  -1.106  0.00  0.00    +0.000 HD
ATOM     28  H   UNL     1       0.870  -0.801   0.610  0.00  0.00    +0.000 HD
ENDBRANCH  18  25
ENDBRANCH  16  21
ENDBRANCH   1  16
TORSDOF 5
