REMARK  Name = 
REMARK  6 active torsions:
REMARK  status: ('A' for Active; 'I' for Inactive)
REMARK    1  A    between atoms: C_2  and  C_3
REMARK    2  A    between atoms: N_7  and  C_8
REMARK    3  A    between atoms: C_8  and  C_9
REMARK    4  A    between atoms: C_9  and  C_12
REMARK    5  A    between atoms: C_16  and  C_17
REMARK    6  A    between atoms: C_21  and  C_22
REMARK                            x       y       z     vdW  Elec       q    Type
REMARK                         _______ _______ _______ _____ _____    ______ ____
ROOT
ATOM      1  C   UNL     1      -5.905   1.126  -0.333  0.00  0.00    +0.000 C 
ATOM      2  F   UNL     1      -4.831   1.171  -1.175  0.00  0.00    +0.000 F 
ATOM      3  F   UNL     1      -6.676   0.091  -0.781  0.00  0.00    +0.000 F 
ENDROOT
BRANCH   1   4
ATOM      4  C   UNL     1      -6.665   2.442  -0.300  0.00  0.00    +0.000 A 
ATOM      5  C   UNL     1      -8.053   2.454  -0.119  0.00  0.00    +0.000 A 
ATOM      6  C   UNL     1      -8.732   3.663  -0.013  0.00  0.00    +0.000 A 
ATOM      7  C   UNL     1      -8.029   4.869  -0.071  0.00  0.00    +0.000 A 
ATOM      8  C   UNL     1      -6.631   4.905  -0.226  0.00  0.00    +0.000 A 
ATOM      9  C   UNL     1      -5.972   3.668  -0.359  0.00  0.00    +0.000 A 
BRANCH   8  10
ATOM     10  C   UNL     1      -5.887   6.190  -0.218  0.00  0.00    +0.000 A 
ATOM     11  C   UNL     1      -4.712   6.372  -0.972  0.00  0.00    +0.000 A 
ATOM     12  C   UNL     1      -4.006   7.580  -0.951  0.00  0.00    +0.000 A 
ATOM     13  C   UNL     1      -4.470   8.649  -0.192  0.00  0.00    +0.000 A 
ATOM     14  C   UNL     1      -5.637   8.507   0.558  0.00  0.00    +0.000 A 
ATOM     15  C   UNL     1      -6.324   7.284   0.556  0.00  0.00    +0.000 A 
BRANCH  14  16
ATOM     16  C   UNL     1      -6.144   9.611   1.316  0.00  0.00    +0.000 C 
ATOM     17  N   UNL     1      -6.570  10.507   1.921  0.00  0.00    +0.000 NA
ENDBRANCH  14  16
ENDBRANCH   8  10
ENDBRANCH   1   4
BRANCH   1  18
ATOM     18  C   UNL     1      -5.410   0.802   1.098  0.00  0.00    +0.000 C 
BRANCH  18  23
ATOM     19  C   UNL     1      -3.277  -2.072   4.772  0.00  0.00    +0.000 A 
ATOM     20  C   UNL     1      -3.851  -0.808   4.810  0.00  0.00    +0.000 A 
ATOM     21  C   UNL     1      -4.349  -0.254   3.630  0.00  0.00    +0.000 A 
ATOM     22  C   UNL     1      -4.264  -0.964   2.434  0.00  0.00    +0.000 A 
ATOM     23  N   UNL     1      -4.709  -0.469   1.237  0.00  0.00    +0.000 N 
ATOM     24  N   UNL     1      -3.715  -2.193   2.393  0.00  0.00    +0.000 NA
ATOM     25  C   UNL     1      -3.238  -2.721   3.550  0.00  0.00    +0.000 A 
ATOM     26  H   UNL     1      -4.600  -1.088   0.440  0.00  0.00    +0.000 HD
BRANCH  19  28
ATOM     27  N   UNL     1      -2.316  -3.160   6.914  0.00  0.00    +0.000 NA
ATOM     28  C   UNL     1      -2.746  -2.680   5.949  0.00  0.00    +0.000 C 
ENDBRANCH  19  28
ENDBRANCH  18  23
ENDBRANCH   1  18
TORSDOF 6
