REMARK  Name = 
REMARK  5 active torsions:
REMARK  status: ('A' for Active; 'I' for Inactive)
REMARK    1  A    between atoms: C_2  and  C_4
REMARK    2  A    between atoms: C_7  and  N_8
REMARK    3  A    between atoms: N_8  and  C_9
REMARK    4  A    between atoms: C_9  and  C_10
REMARK    5  A    between atoms: C_14  and  C_15
REMARK                            x       y       z     vdW  Elec       q    Type
REMARK                         _______ _______ _______ _____ _____    ______ ____
ROOT
ATOM      1  C   UNL     1       5.440  -5.693   1.338  0.00  0.00    +0.000 C 
ENDROOT
BRANCH   1   2
ATOM      2  C   UNL     1       6.358  -6.715   1.969  0.00  0.00    +0.000 A 
ATOM      3  C   UNL     1       7.482  -6.305   2.694  0.00  0.00    +0.000 A 
ATOM      4  C   UNL     1       8.274  -7.244   3.348  0.00  0.00    +0.000 A 
ATOM      5  C   UNL     1       7.940  -8.599   3.302  0.00  0.00    +0.000 A 
ATOM      6  C   UNL     1       6.799  -9.052   2.613  0.00  0.00    +0.000 A 
ATOM      7  C   UNL     1       6.038  -8.085   1.925  0.00  0.00    +0.000 A 
BRANCH   6   8
ATOM      8  C   UNL     1       6.358 -10.466   2.691  0.00  0.00    +0.000 A 
ATOM      9  C   UNL     1       6.512 -11.202   3.882  0.00  0.00    +0.000 A 
ATOM     10  C   UNL     1       6.023 -12.505   4.001  0.00  0.00    +0.000 A 
ATOM     11 CL   UNL     1       6.222 -13.355   5.484  0.00  0.00    +0.000 Cl
ATOM     12  C   UNL     1       5.361 -13.112   2.942  0.00  0.00    +0.000 A 
ATOM     13  C   UNL     1       5.209 -12.407   1.754  0.00  0.00    +0.000 A 
ATOM     14 CL   UNL     1       4.371 -13.136   0.438  0.00  0.00    +0.000 Cl
ATOM     15  C   UNL     1       5.709 -11.107   1.620  0.00  0.00    +0.000 A 
ENDBRANCH   6   8
ENDBRANCH   1   2
BRANCH   1  16
ATOM     16  N   UNL     1       5.362  -5.876  -0.101  0.00  0.00    +0.000 N 
ATOM     17  H   UNL     1       6.260  -6.054  -0.546  0.00  0.00    +0.000 HD
BRANCH  16  21
ATOM     18  C   UNL     1       2.658  -3.690  -2.503  0.00  0.00    +0.000 A 
ATOM     19  C   UNL     1       2.714  -3.440  -1.131  0.00  0.00    +0.000 A 
ATOM     20  C   UNL     1       3.627  -4.137  -0.328  0.00  0.00    +0.000 A 
ATOM     21  C   UNL     1       4.519  -5.075  -0.870  0.00  0.00    +0.000 A 
ATOM     22  C   UNL     1       4.445  -5.312  -2.250  0.00  0.00    +0.000 A 
ATOM     23  C   UNL     1       3.523  -4.637  -3.061  0.00  0.00    +0.000 A 
BRANCH  18  25
ATOM     24  N   UNL     1       1.187  -1.807  -2.994  0.00  0.00    +0.000 N 
ATOM     25  C   UNL     1       1.659  -3.030  -3.384  0.00  0.00    +0.000 C 
ATOM     26  O   UNL     1       1.287  -3.541  -4.432  0.00  0.00    +0.000 OA
ATOM     27  H   UNL     1       0.576  -1.336  -3.649  0.00  0.00    +0.000 HD
ATOM     28  H   UNL     1       1.640  -1.248  -2.286  0.00  0.00    +0.000 HD
ENDBRANCH  18  25
ENDBRANCH  16  21
ENDBRANCH   1  16
TORSDOF 5
