REMARK  Name = 
REMARK  4 active torsions:
REMARK  status: ('A' for Active; 'I' for Inactive)
REMARK    1  A    between atoms: C_2  and  C_4
REMARK    2  A    between atoms: C_7  and  C_8
REMARK    3  A    between atoms: C_8  and  N_9
REMARK    4  A    between atoms: C_15  and  C_16
REMARK                            x       y       z     vdW  Elec       q    Type
REMARK                         _______ _______ _______ _____ _____    ______ ____
ROOT
ATOM      1  N   UNL     1       5.062  -6.019   0.671  0.00  0.00    +0.000 N 
ATOM      2  C   UNL     1       5.355  -6.503  -0.584  0.00  0.00    +0.000 A 
ATOM      3  C   UNL     1       4.771  -7.744  -0.711  0.00  0.00    +0.000 A 
ATOM      4  C   UNL     1       4.120  -8.032   0.507  0.00  0.00    +0.000 A 
ATOM      5  N   UNL     1       3.438  -9.150   0.856  0.00  0.00    +0.000 NA
ATOM      6  C   UNL     1       2.954  -9.148   2.121  0.00  0.00    +0.000 A 
ATOM      7  C   UNL     1       3.093  -8.117   3.048  0.00  0.00    +0.000 A 
ATOM      8  C   UNL     1       3.785  -6.963   2.665  0.00  0.00    +0.000 A 
ATOM      9  C   UNL     1       4.309  -6.948   1.364  0.00  0.00    +0.000 A 
ENDROOT
BRANCH   7  10
ATOM     10  C   UNL     1       2.514  -8.313   4.400  0.00  0.00    +0.000 C 
ATOM     11  N   UNL     1       2.642  -7.313   5.323  0.00  0.00    +0.000 N 
ATOM     12  O   UNL     1       1.937  -9.351   4.703  0.00  0.00    +0.000 OA
ATOM     13  H   UNL     1       3.111  -6.434   5.178  0.00  0.00    +0.000 HD
ATOM     14  H   UNL     1       2.253  -7.494   6.241  0.00  0.00    +0.000 HD
ENDBRANCH   7  10
BRANCH   1  15
ATOM     15  C   UNL     1       5.604  -4.777   1.217  0.00  0.00    +0.000 C 
BRANCH  15  19
ATOM     16  C   UNL     1       3.098  -1.365   0.317  0.00  0.00    +0.000 A 
ATOM     17  C   UNL     1       2.897  -2.091   1.496  0.00  0.00    +0.000 A 
ATOM     18  C   UNL     1       3.711  -3.190   1.791  0.00  0.00    +0.000 A 
ATOM     19  C   UNL     1       4.732  -3.583   0.912  0.00  0.00    +0.000 A 
ATOM     20  C   UNL     1       4.925  -2.849  -0.268  0.00  0.00    +0.000 A 
ATOM     21  C   UNL     1       4.113  -1.750  -0.564  0.00  0.00    +0.000 A 
BRANCH  16  23
ATOM     22  N   UNL     1       1.645   0.484   0.962  0.00  0.00    +0.000 N 
ATOM     23  C   UNL     1       2.234  -0.214  -0.055  0.00  0.00    +0.000 C 
ATOM     24  O   UNL     1       2.078   0.121  -1.221  0.00  0.00    +0.000 OA
ATOM     25  H   UNL     1       1.132   1.315   0.695  0.00  0.00    +0.000 HD
ATOM     26  H   UNL     1       1.940   0.402   1.924  0.00  0.00    +0.000 HD
ENDBRANCH  16  23
ENDBRANCH  15  19
ENDBRANCH   1  15
TORSDOF 4
