REMARK  Name = 
REMARK  6 active torsions:
REMARK  status: ('A' for Active; 'I' for Inactive)
REMARK    1  A    between atoms: C_1  and  C_2
REMARK    2  A    between atoms: C_2  and  N_3
REMARK    3  A    between atoms: C_2  and  C_16
REMARK    4  A    between atoms: C_4  and  C_6
REMARK    5  A    between atoms: C_19  and  C_20
REMARK    6  A    between atoms: C_20  and  C_21
REMARK                            x       y       z     vdW  Elec       q    Type
REMARK                         _______ _______ _______ _____ _____    ______ ____
ROOT
ATOM      1  C   UNL     1       2.839  -1.210  -0.730  0.00  0.00    +0.000 C 
ATOM      2  C   UNL     1       2.456   0.040   0.068  0.00  0.00    +0.000 C 
ENDROOT
BRANCH   2   3
ATOM      3  C   UNL     1       2.954   1.348  -0.530  0.00  0.00    +0.000 A 
ATOM      4  C   UNL     1       3.181   2.434   0.330  0.00  0.00    +0.000 A 
ATOM      5  C   UNL     1       3.650   3.655  -0.159  0.00  0.00    +0.000 A 
ATOM      6  C   UNL     1       3.916   3.824  -1.524  0.00  0.00    +0.000 A 
ATOM      7  C   UNL     1       3.654   2.758  -2.393  0.00  0.00    +0.000 A 
ATOM      8  C   UNL     1       3.162   1.542  -1.903  0.00  0.00    +0.000 A 
BRANCH   6   9
ATOM      9  C   UNL     1       4.470   5.132  -2.045  0.00  0.00    +0.000 C 
BRANCH   9  10
ATOM     10  C   UNL     1       5.980   5.260  -2.048  0.00  0.00    +0.000 A 
ATOM     11  C   UNL     1       6.722   5.116  -0.875  0.00  0.00    +0.000 A 
ATOM     12  C   UNL     1       8.092   5.368  -0.900  0.00  0.00    +0.000 A 
ATOM     13  C   UNL     1       8.691   5.757  -2.088  0.00  0.00    +0.000 A 
ATOM     14  C   UNL     1       7.893   5.866  -3.213  0.00  0.00    +0.000 A 
ATOM     15  N   UNL     1       6.560   5.631  -3.219  0.00  0.00    +0.000 NA
ENDBRANCH   9  10
ENDBRANCH   6   9
ENDBRANCH   2   3
BRANCH   2  16
ATOM     16  N   UNL     1       1.020   0.113   0.242  0.00  0.00    +0.000 N 
ATOM     17  C   UNL     1       0.351  -0.604   1.201  0.00  0.00    +0.000 C 
ATOM     18  O   UNL     1       0.925  -1.253   2.068  0.00  0.00    +0.000 OA
ATOM     19  H   UNL     1       0.503   0.505  -0.536  0.00  0.00    +0.000 HD
BRANCH  17  20
ATOM     20  C   UNL     1      -1.113  -0.495   1.165  0.00  0.00    +0.000 A 
ATOM     21  C   UNL     1      -1.853  -0.641   2.329  0.00  0.00    +0.000 A 
ATOM     22  S   UNL     1      -3.533  -0.453   2.093  0.00  0.00    +0.000 S 
ATOM     23  C   UNL     1      -3.328  -0.234   0.416  0.00  0.00    +0.000 A 
ATOM     24  N   UNL     1      -4.399  -0.054  -0.403  0.00  0.00    +0.000 NA
ATOM     25  C   UNL     1      -4.100   0.055  -1.655  0.00  0.00    +0.000 A 
ATOM     26  N   UNL     1      -2.826   0.010  -2.161  0.00  0.00    +0.000 N 
ATOM     27  C   UNL     1      -1.713  -0.115  -1.366  0.00  0.00    +0.000 A 
ATOM     28  O   UNL     1      -0.584  -0.062  -1.843  0.00  0.00    +0.000 OA
ATOM     29  C   UNL     1      -1.997  -0.274   0.048  0.00  0.00    +0.000 A 
ATOM     30  H   UNL     1      -2.657   0.123  -3.150  0.00  0.00    +0.000 HD
ENDBRANCH  17  20
ENDBRANCH   2  16
TORSDOF 5
