REMARK  Name = 
REMARK  8 active torsions:
REMARK  status: ('A' for Active; 'I' for Inactive)
REMARK    1  A    between atoms: C_1  and  C_2
REMARK    2  A    between atoms: C_2  and  N_3
REMARK    3  A    between atoms: C_2  and  C_25
REMARK    4  A    between atoms: N_3  and  C_4
REMARK    5  A    between atoms: C_4  and  C_5
REMARK    6  A    between atoms: C_8  and  C_9
REMARK    7  A    between atoms: C_9  and  N_10
REMARK    8  A    between atoms: C_11  and  C_13
REMARK                            x       y       z     vdW  Elec       q    Type
REMARK                         _______ _______ _______ _____ _____    ______ ____
ROOT
ATOM      1  C   UNL     1      -1.015   0.507   1.393  0.00  0.00    +0.000 A 
ATOM      2  C   UNL     1      -1.708  -0.034   2.487  0.00  0.00    +0.000 A 
ATOM      3  C   UNL     1      -3.094   0.121   2.604  0.00  0.00    +0.000 A 
ATOM      4  C   UNL     1      -3.815   0.816   1.625  0.00  0.00    +0.000 A 
ATOM      5  C   UNL     1      -3.120   1.358   0.535  0.00  0.00    +0.000 A 
ATOM      6  C   UNL     1      -1.737   1.201   0.415  0.00  0.00    +0.000 A 
ENDROOT
BRANCH   1   7
ATOM      7  C   UNL     1       0.491   0.437   1.337  0.00  0.00    +0.000 C 
BRANCH   7   8
ATOM      8  N   UNL     1       0.997  -0.932   1.387  0.00  0.00    +0.000 NA
ATOM      9  H   UNL     1       0.631  -1.450   0.586  0.00  0.00    +0.000 HD
BRANCH   8  11
ATOM     10  C   UNL     1       3.128  -0.207   2.492  0.00  0.00    +0.000 C 
ATOM     11  C   UNL     1       2.467  -0.993   1.348  0.00  0.00    +0.000 C 
BRANCH  11  12
ATOM     12  C   UNL     1       2.930  -2.442   1.382  0.00  0.00    +0.000 A 
ATOM     13  C   UNL     1       3.714  -2.962   0.340  0.00  0.00    +0.000 A 
ATOM     14  C   UNL     1       4.185  -4.276   0.391  0.00  0.00    +0.000 A 
ATOM     15  C   UNL     1       3.881  -5.086   1.483  0.00  0.00    +0.000 A 
ATOM     16  C   UNL     1       3.088  -4.592   2.515  0.00  0.00    +0.000 A 
ATOM     17  C   UNL     1       2.609  -3.282   2.462  0.00  0.00    +0.000 A 
ENDBRANCH  11  12
ENDBRANCH   8  11
ENDBRANCH   7   8
ENDBRANCH   1   7
BRANCH   4  18
ATOM     18  C   UNL     1      -5.306   1.011   1.732  0.00  0.00    +0.000 C 
BRANCH  18  19
ATOM     19  N   UNL     1      -5.636   2.232   2.424  0.00  0.00    +0.000 N 
ATOM     20  C   UNL     1      -6.942   2.589   2.653  0.00  0.00    +0.000 C 
ATOM     21  O   UNL     1      -7.886   1.884   2.309  0.00  0.00    +0.000 OA
ATOM     22  H   UNL     1      -4.924   2.955   2.436  0.00  0.00    +0.000 HD
BRANCH  20  23
ATOM     23  C   UNL     1      -7.149   3.844   3.389  0.00  0.00    +0.000 A 
ATOM     24  C   UNL     1      -8.297   4.020   4.152  0.00  0.00    +0.000 A 
ATOM     25  S   UNL     1      -8.365   5.531   4.943  0.00  0.00    +0.000 S 
ATOM     26  C   UNL     1      -6.883   6.016   4.261  0.00  0.00    +0.000 A 
ATOM     27  N   UNL     1      -6.373   7.253   4.508  0.00  0.00    +0.000 NA
ATOM     28  C   UNL     1      -5.250   7.495   3.904  0.00  0.00    +0.000 A 
ATOM     29  N   UNL     1      -4.597   6.605   3.091  0.00  0.00    +0.000 N 
ATOM     30  C   UNL     1      -5.061   5.337   2.844  0.00  0.00    +0.000 A 
ATOM     31  O   UNL     1      -4.419   4.551   2.154  0.00  0.00    +0.000 OA
ATOM     32  C   UNL     1      -6.329   5.027   3.470  0.00  0.00    +0.000 A 
ATOM     33  H   UNL     1      -3.712   6.846   2.671  0.00  0.00    +0.000 HD
ENDBRANCH  20  23
ENDBRANCH  18  19
ENDBRANCH   4  18
TORSDOF 7
