REMARK  Name = 
REMARK  4 active torsions:
REMARK  status: ('A' for Active; 'I' for Inactive)
REMARK    1  A    between atoms: N_1  and  C_2
REMARK    2  A    between atoms: C_2  and  C_3
REMARK    3  A    between atoms: C_7  and  C_8
REMARK    4  A    between atoms: C_8  and  N_9
REMARK                            x       y       z     vdW  Elec       q    Type
REMARK                         _______ _______ _______ _____ _____    ______ ____
ROOT
ATOM      1  C   UNL     1       3.774   2.821   3.921  0.00  0.00    +0.000 C 
ENDROOT
BRANCH   1   2
ATOM      2  N   UNL     1       3.308   3.969   3.149  0.00  0.00    +0.000 N 
ATOM      3  C   UNL     1       2.003   4.399   3.123  0.00  0.00    +0.000 A 
ATOM      4  C   UNL     1       1.941   5.532   2.347  0.00  0.00    +0.000 A 
ATOM      5  C   UNL     1       3.256   5.817   1.892  0.00  0.00    +0.000 A 
ATOM      6  C   UNL     1       3.803   6.841   1.091  0.00  0.00    +0.000 A 
ATOM      7  C   UNL     1       5.177   6.847   0.824  0.00  0.00    +0.000 A 
ATOM      8  C   UNL     1       5.995   5.848   1.339  0.00  0.00    +0.000 A 
ATOM      9 CL   UNL     1       7.684   5.877   0.997  0.00  0.00    +0.000 Cl
ATOM     10  C   UNL     1       5.480   4.820   2.135  0.00  0.00    +0.000 A 
ATOM     11  C   UNL     1       4.099   4.825   2.404  0.00  0.00    +0.000 A 
ENDBRANCH   1   2
BRANCH   1  16
ATOM     12  C   UNL     1       4.477  -0.078   1.542  0.00  0.00    +0.000 A 
ATOM     13  C   UNL     1       3.285  -0.770   1.716  0.00  0.00    +0.000 A 
ATOM     14  N   UNL     1       2.293  -0.380   2.549  0.00  0.00    +0.000 NA
ATOM     15  C   UNL     1       2.491   0.768   3.233  0.00  0.00    +0.000 A 
ATOM     16  C   UNL     1       3.644   1.542   3.148  0.00  0.00    +0.000 A 
ATOM     17  C   UNL     1       4.652   1.093   2.288  0.00  0.00    +0.000 A 
BRANCH  12  18
ATOM     18  C   UNL     1       5.514  -0.543   0.562  0.00  0.00    +0.000 C 
BRANCH  18  19
ATOM     19  N   UNL     1       6.768  -0.891   1.219  0.00  0.00    +0.000 NA
ATOM     20  H   UNL     1       7.428  -1.228   0.520  0.00  0.00    +0.000 HD
ATOM     21  H   UNL     1       6.606  -1.670   1.856  0.00  0.00    +0.000 HD
ENDBRANCH  18  19
ENDBRANCH  12  18
ENDBRANCH   1  16
TORSDOF 4
