REMARK  Name = 
REMARK  4 active torsions:
REMARK  status: ('A' for Active; 'I' for Inactive)
REMARK    1  A    between atoms: C_2  and  C_4
REMARK    2  A    between atoms: N_8  and  C_9
REMARK    3  A    between atoms: C_9  and  C_10
REMARK    4  A    between atoms: C_14  and  C_15
REMARK                            x       y       z     vdW  Elec       q    Type
REMARK                         _______ _______ _______ _____ _____    ______ ____
ROOT
ATOM      1  C   UNL     1       5.212  -5.670  -2.155  0.00  0.00    +0.000 C 
ENDROOT
BRANCH   1   6
ATOM      2  C   UNL     1       3.557  -5.044   2.686  0.00  0.00    +0.000 A 
ATOM      3  C   UNL     1       3.305  -6.052   1.763  0.00  0.00    +0.000 A 
ATOM      4  C   UNL     1       3.915  -5.995   0.511  0.00  0.00    +0.000 A 
ATOM      5  C   UNL     1       4.770  -4.940   0.199  0.00  0.00    +0.000 A 
ATOM      6  N   UNL     1       5.380  -4.798  -1.013  0.00  0.00    +0.000 N 
ATOM      7  N   UNL     1       5.023  -3.959   1.089  0.00  0.00    +0.000 NA
ATOM      8  C   UNL     1       4.406  -4.017   2.300  0.00  0.00    +0.000 A 
ATOM      9  H   UNL     1       6.041  -4.031  -1.052  0.00  0.00    +0.000 HD
BRANCH   2  11
ATOM     10  N   UNL     1       2.627  -6.235   4.581  0.00  0.00    +0.000 N 
ATOM     11  C   UNL     1       2.943  -5.024   4.026  0.00  0.00    +0.000 C 
ATOM     12  O   UNL     1       2.750  -3.978   4.631  0.00  0.00    +0.000 OA
ATOM     13  H   UNL     1       2.294  -6.223   5.537  0.00  0.00    +0.000 HD
ATOM     14  H   UNL     1       2.989  -7.108   4.223  0.00  0.00    +0.000 HD
ENDBRANCH   2  11
ENDBRANCH   1   6
BRANCH   1  15
ATOM     15  C   UNL     1       6.221  -6.798  -2.172  0.00  0.00    +0.000 A 
ATOM     16  C   UNL     1       7.584  -6.517  -2.236  0.00  0.00    +0.000 A 
ATOM     17  C   UNL     1       8.483  -7.573  -2.278  0.00  0.00    +0.000 A 
ATOM     18  C   UNL     1       8.002  -8.877  -2.252  0.00  0.00    +0.000 A 
ATOM     19  C   UNL     1       6.628  -9.092  -2.193  0.00  0.00    +0.000 A 
ATOM     20  N   UNL     1       5.739  -8.069  -2.156  0.00  0.00    +0.000 NA
BRANCH  19  21
ATOM     21  C   UNL     1       6.063 -10.457  -2.158  0.00  0.00    +0.000 C 
ATOM     22  C   UNL     1       4.848 -10.735  -2.670  0.00  0.00    +0.000 C 
ATOM     23  C   UNL     1       4.238 -12.106  -2.664  0.00  0.00    +0.000 C 
ATOM     24  N   UNL     1       5.155 -13.177  -2.263  0.00  0.00    +0.000 NA
ATOM     25  C   UNL     1       5.981 -12.753  -1.129  0.00  0.00    +0.000 C 
ATOM     26  C   UNL     1       6.863 -11.551  -1.496  0.00  0.00    +0.000 C 
ATOM     27  H   UNL     1       5.764 -13.382  -3.054  0.00  0.00    +0.000 HD
ENDBRANCH  19  21
ENDBRANCH   1  15
TORSDOF 4
