REMARK  Name = 
REMARK  11 active torsions:
REMARK  status: ('A' for Active; 'I' for Inactive)
REMARK    1  A    between atoms: N_1  and  C_2
REMARK    2  A    between atoms: C_2  and  C_3
REMARK    3  A    between atoms: C_3  and  C_4
REMARK    4  A    between atoms: C_4  and  C_5
REMARK    5  A    between atoms: C_5  and  C_6
REMARK    6  A    between atoms: C_6  and  O_7
REMARK    7  A    between atoms: O_7  and  C_8
REMARK    8  A    between atoms: C_11  and  C_12
REMARK    9  A    between atoms: C_12  and  O_13
REMARK   10  A    between atoms: O_13  and  C_14
REMARK   11  A    between atoms: C_17  and  C_18
REMARK                            x       y       z     vdW  Elec       q    Type
REMARK                         _______ _______ _______ _____ _____    ______ ____
ROOT
ATOM      1  C   UNL     1       8.401   2.309   3.822  0.00  0.00    +0.000 A 
ATOM      2  C   UNL     1       9.236   2.664   2.764  0.00  0.00    +0.000 A 
ATOM      3  C   UNL     1      10.598   2.892   2.977  0.00  0.00    +0.000 A 
ATOM      4  C   UNL     1      11.148   2.763   4.260  0.00  0.00    +0.000 A 
ATOM      5  C   UNL     1      10.303   2.430   5.323  0.00  0.00    +0.000 A 
ATOM      6  C   UNL     1       8.942   2.190   5.103  0.00  0.00    +0.000 A 
ENDROOT
BRANCH   1   7
ATOM      7  O   UNL     1       7.055   2.072   3.722  0.00  0.00    +0.000 OA
BRANCH   7   8
ATOM      8  C   UNL     1       6.491   2.237   2.420  0.00  0.00    +0.000 C 
BRANCH   8   9
ATOM      9  C   UNL     1       4.997   1.959   2.501  0.00  0.00    +0.000 C 
BRANCH   9  10
ATOM     10  C   UNL     1       4.333   2.128   1.137  0.00  0.00    +0.000 C 
BRANCH  10  11
ATOM     11  C   UNL     1       2.831   1.850   1.209  0.00  0.00    +0.000 C 
BRANCH  11  12
ATOM     12  C   UNL     1       2.177   2.024  -0.161  0.00  0.00    +0.000 C 
BRANCH  12  13
ATOM     13  N   UNL     1       0.747   1.757  -0.075  0.00  0.00    +0.000 NA
ATOM     14  H   UNL     1       0.316   1.920  -0.984  0.00  0.00    +0.000 HD
ATOM     15  H   UNL     1       0.313   2.416   0.570  0.00  0.00    +0.000 HD
ENDBRANCH  12  13
ENDBRANCH  11  12
ENDBRANCH  10  11
ENDBRANCH   9  10
ENDBRANCH   8   9
ENDBRANCH   7   8
ENDBRANCH   1   7
BRANCH   4  16
ATOM     16  C   UNL     1      12.627   2.964   4.497  0.00  0.00    +0.000 C 
BRANCH  16  17
ATOM     17  O   UNL     1      12.891   4.337   4.770  0.00  0.00    +0.000 OA
BRANCH  17  18
ATOM     18  C   UNL     1      14.197   4.687   4.996  0.00  0.00    +0.000 A 
ATOM     19  C   UNL     1      15.294   3.824   5.016  0.00  0.00    +0.000 A 
ATOM     20  C   UNL     1      16.582   4.330   5.251  0.00  0.00    +0.000 A 
ATOM     21  C   UNL     1      16.790   5.701   5.452  0.00  0.00    +0.000 A 
ATOM     22  C   UNL     1      15.695   6.568   5.411  0.00  0.00    +0.000 A 
ATOM     23  C   UNL     1      14.408   6.056   5.199  0.00  0.00    +0.000 A 
BRANCH  21  24
ATOM     24  C   UNL     1      18.175   6.165   5.742  0.00  0.00    +0.000 C 
ATOM     25  N   UNL     1      18.521   7.436   5.359  0.00  0.00    +0.000 N 
ATOM     26  O   UNL     1      18.987   5.441   6.289  0.00  0.00    +0.000 OA
ATOM     27  H   UNL     1      17.911   8.086   4.891  0.00  0.00    +0.000 HD
ATOM     28  H   UNL     1      19.466   7.730   5.576  0.00  0.00    +0.000 HD
ENDBRANCH  21  24
ENDBRANCH  17  18
ENDBRANCH  16  17
ENDBRANCH   4  16
TORSDOF 11
