REMARK  Name = 
REMARK  5 active torsions:
REMARK  status: ('A' for Active; 'I' for Inactive)
REMARK    1  A    between atoms: C_2  and  C_4
REMARK    2  A    between atoms: C_7  and  C_8
REMARK    3  A    between atoms: C_8  and  S_9
REMARK    4  A    between atoms: S_9  and  C_10
REMARK    5  A    between atoms: C_14  and  N_15
REMARK                            x       y       z     vdW  Elec       q    Type
REMARK                         _______ _______ _______ _____ _____    ______ ____
ROOT
ATOM      1  S   UNL     1       4.809  -4.555   4.221  0.00  0.00    +0.000 S 
ENDROOT
BRANCH   1   2
ATOM      2  C   UNL     1       5.787  -5.289   5.510  0.00  0.00    +0.000 A 
ATOM      3  N   UNL     1       6.481  -4.514   6.351  0.00  0.00    +0.000 NA
ATOM      4  C   UNL     1       7.193  -5.173   7.279  0.00  0.00    +0.000 A 
ATOM      5  C   UNL     1       7.229  -6.548   7.390  0.00  0.00    +0.000 A 
ATOM      6  C   UNL     1       6.492  -7.280   6.481  0.00  0.00    +0.000 A 
ATOM      7  N   UNL     1       5.772  -6.633   5.546  0.00  0.00    +0.000 NA
BRANCH   6   8
ATOM      8  N   UNL     1       6.544  -8.666   6.424  0.00  0.00    +0.000 N 
ATOM      9  C   UNL     1       6.810  -9.497   7.609  0.00  0.00    +0.000 C 
ATOM     10  C   UNL     1       7.326 -10.876   7.154  0.00  0.00    +0.000 C 
ATOM     11  O   UNL     1       6.414 -11.519   6.249  0.00  0.00    +0.000 OA
ATOM     12  C   UNL     1       6.205 -10.697   5.088  0.00  0.00    +0.000 C 
ATOM     13  C   UNL     1       5.627  -9.325   5.470  0.00  0.00    +0.000 C 
ENDBRANCH   6   8
ENDBRANCH   1   2
BRANCH   1  14
ATOM     14  C   UNL     1       4.978  -2.787   4.607  0.00  0.00    +0.000 C 
BRANCH  14  18
ATOM     15  C   UNL     1       2.472  -0.451   1.944  0.00  0.00    +0.000 A 
ATOM     16  C   UNL     1       1.978  -0.880   3.183  0.00  0.00    +0.000 A 
ATOM     17  C   UNL     1       2.792  -1.626   4.045  0.00  0.00    +0.000 A 
ATOM     18  C   UNL     1       4.109  -1.952   3.686  0.00  0.00    +0.000 A 
ATOM     19  C   UNL     1       4.590  -1.536   2.435  0.00  0.00    +0.000 A 
ATOM     20  C   UNL     1       3.777  -0.795   1.570  0.00  0.00    +0.000 A 
BRANCH  15  22
ATOM     21  N   UNL     1       0.646   1.106   1.517  0.00  0.00    +0.000 N 
ATOM     22  C   UNL     1       1.649   0.337   0.994  0.00  0.00    +0.000 C 
ATOM     23  O   UNL     1       1.876   0.340  -0.210  0.00  0.00    +0.000 OA
ATOM     24  H   UNL     1       0.173   1.723   0.867  0.00  0.00    +0.000 HD
ATOM     25  H   UNL     1       0.595   1.333   2.499  0.00  0.00    +0.000 HD
ENDBRANCH  15  22
ENDBRANCH  14  18
ENDBRANCH   1  14
TORSDOF 5
