REMARK  Name = 
REMARK  5 active torsions:
REMARK  status: ('A' for Active; 'I' for Inactive)
REMARK    1  A    between atoms: C_2  and  C_4
REMARK    2  A    between atoms: C_7  and  N_8
REMARK    3  A    between atoms: N_8  and  C_9
REMARK    4  A    between atoms: C_9  and  C_10
REMARK    5  A    between atoms: C_12  and  N_13
REMARK                            x       y       z     vdW  Elec       q    Type
REMARK                         _______ _______ _______ _____ _____    ______ ____
ROOT
ATOM      1  N   UNL     1       4.739   4.382   2.888  0.00  0.00    +0.000 N 
ATOM      2  H   UNL     1       5.593   4.121   2.395  0.00  0.00    +0.000 HD
ENDROOT
BRANCH   1   6
ATOM      3  C   UNL     1       1.192   3.394   0.829  0.00  0.00    +0.000 A 
ATOM      4  C   UNL     1       1.138   3.680   2.189  0.00  0.00    +0.000 A 
ATOM      5  C   UNL     1       2.317   3.973   2.883  0.00  0.00    +0.000 A 
ATOM      6  C   UNL     1       3.571   3.969   2.255  0.00  0.00    +0.000 A 
ATOM      7  C   UNL     1       3.602   3.680   0.884  0.00  0.00    +0.000 A 
ATOM      8  C   UNL     1       2.427   3.375   0.179  0.00  0.00    +0.000 A 
BRANCH   3  10
ATOM      9  N   UNL     1      -1.199   3.665   0.486  0.00  0.00    +0.000 N 
ATOM     10  C   UNL     1      -0.039   3.082   0.062  0.00  0.00    +0.000 C 
ATOM     11  O   UNL     1      -0.018   2.368  -0.935  0.00  0.00    +0.000 OA
ATOM     12  H   UNL     1      -2.017   3.525  -0.095  0.00  0.00    +0.000 HD
ATOM     13  H   UNL     1      -1.209   4.447   1.126  0.00  0.00    +0.000 HD
ENDBRANCH   3  10
ENDBRANCH   1   6
BRANCH   1  14
ATOM     14  C   UNL     1       4.895   4.232   4.338  0.00  0.00    +0.000 C 
BRANCH  14  15
ATOM     15  C   UNL     1       5.805   5.305   4.898  0.00  0.00    +0.000 A 
ATOM     16  C   UNL     1       5.460   6.648   4.746  0.00  0.00    +0.000 A 
ATOM     17  C   UNL     1       6.268   7.650   5.291  0.00  0.00    +0.000 A 
ATOM     18  C   UNL     1       7.399   7.242   5.994  0.00  0.00    +0.000 A 
ATOM     19  C   UNL     1       7.682   5.888   6.095  0.00  0.00    +0.000 A 
ATOM     20  N   UNL     1       6.913   4.912   5.570  0.00  0.00    +0.000 NA
BRANCH  17  21
ATOM     21  N   UNL     1       5.885   8.975   5.154  0.00  0.00    +0.000 N 
ATOM     22  C   UNL     1       6.283   9.971   6.158  0.00  0.00    +0.000 C 
ATOM     23  C   UNL     1       5.293  11.145   6.084  0.00  0.00    +0.000 C 
ATOM     24  O   UNL     1       5.249  11.720   4.765  0.00  0.00    +0.000 OA
ATOM     25  C   UNL     1       4.869  10.726   3.793  0.00  0.00    +0.000 C 
ATOM     26  C   UNL     1       5.848   9.539   3.788  0.00  0.00    +0.000 C 
ENDBRANCH  17  21
ENDBRANCH  14  15
ENDBRANCH   1  14
TORSDOF 5
