REMARK  Name = 
REMARK  5 active torsions:
REMARK  status: ('A' for Active; 'I' for Inactive)
REMARK    1  A    between atoms: C_2  and  C_4
REMARK    2  A    between atoms: N_8  and  CA_9
REMARK    3  A    between atoms: CA_9  and  C_10
REMARK    4  A    between atoms: CA_9  and  C_12
REMARK    5  A    between atoms: C_10  and  O_11
REMARK                            x       y       z     vdW  Elec       q    Type
REMARK                         _______ _______ _______ _____ _____    ______ ____
ROOT
ATOM      1  C   UNL     1       2.328   2.736  -0.960  0.00  0.00    +0.000 A 
ATOM      2  C   UNL     1       3.618   2.234  -1.069  0.00  0.00    +0.000 A 
ATOM      3  C   UNL     1       4.648   2.850  -0.349  0.00  0.00    +0.000 A 
ATOM      4  C   UNL     1       4.379   3.938   0.481  0.00  0.00    +0.000 A 
ATOM      5  N   UNL     1       5.427   4.435   1.265  0.00  0.00    +0.000 N 
ATOM      6  N   UNL     1       3.125   4.427   0.585  0.00  0.00    +0.000 NA
ATOM      7  C   UNL     1       2.138   3.844  -0.150  0.00  0.00    +0.000 A 
ATOM      8  H   UNL     1       6.246   4.663   0.714  0.00  0.00    +0.000 HD
ENDROOT
BRANCH   1  10
ATOM      9  N   UNL     1       1.231   0.816  -1.968  0.00  0.00    +0.000 N 
ATOM     10  C   UNL     1       1.162   2.150  -1.659  0.00  0.00    +0.000 C 
ATOM     11  O   UNL     1       0.160   2.799  -1.928  0.00  0.00    +0.000 OA
ATOM     12  H   UNL     1       0.386   0.399  -2.353  0.00  0.00    +0.000 HD
ATOM     13  H   UNL     1       1.902   0.184  -1.554  0.00  0.00    +0.000 HD
ENDBRANCH   1  10
BRANCH   5  14
ATOM     14  CA  UNL     1       5.103   5.423   2.309  0.00  0.00    +0.000 C 
BRANCH  14  15
ATOM     15  C   UNL     1       6.069   6.611   2.309  0.00  0.00    +0.000 A 
ATOM     16  C   UNL     1       5.553   7.922   2.317  0.00  0.00    +0.000 A 
ATOM     17  C   UNL     1       6.400   9.028   2.472  0.00  0.00    +0.000 A 
ATOM     18  C   UNL     1       7.771   8.842   2.617  0.00  0.00    +0.000 A 
ATOM     19  C   UNL     1       8.302   7.555   2.575  0.00  0.00    +0.000 A 
ATOM     20  C   UNL     1       7.460   6.450   2.417  0.00  0.00    +0.000 A 
ENDBRANCH  14  15
BRANCH  14  21
ATOM     21  C   UNL     1       5.138   4.679   3.673  0.00  0.00    +0.000 C 
BRANCH  21  22
ATOM     22  O   UNL     1       6.356   3.941   3.862  0.00  0.00    +0.000 OA
ATOM     23  H   UNL     1       6.453   3.420   3.044  0.00  0.00    +0.000 HD
ENDBRANCH  21  22
ENDBRANCH  14  21
ENDBRANCH   5  14
TORSDOF 5
