REMARK  Name = 
REMARK  4 active torsions:
REMARK  status: ('A' for Active; 'I' for Inactive)
REMARK    1  A    between atoms: C_2  and  C_4
REMARK    2  A    between atoms: N_8  and  C_9
REMARK    3  A    between atoms: C_9  and  C_10
REMARK    4  A    between atoms: C_14  and  C_15
REMARK                            x       y       z     vdW  Elec       q    Type
REMARK                         _______ _______ _______ _____ _____    ______ ____
ROOT
ATOM      1  C   UNL     1       5.185  -4.789  -3.529  0.00  0.00    +0.000 C 
ENDROOT
BRANCH   1   6
ATOM      2  C   UNL     1       2.469  -4.256  -7.898  0.00  0.00    +0.000 A 
ATOM      3  C   UNL     1       2.382  -5.219  -6.898  0.00  0.00    +0.000 A 
ATOM      4  C   UNL     1       3.252  -5.148  -5.809  0.00  0.00    +0.000 A 
ATOM      5  C   UNL     1       4.195  -4.128  -5.740  0.00  0.00    +0.000 A 
ATOM      6  N   UNL     1       5.033  -3.936  -4.681  0.00  0.00    +0.000 N 
ATOM      7  N   UNL     1       4.308  -3.214  -6.724  0.00  0.00    +0.000 NA
ATOM      8  C   UNL     1       3.457  -3.294  -7.778  0.00  0.00    +0.000 A 
ATOM      9  H   UNL     1       5.715  -3.208  -4.849  0.00  0.00    +0.000 HD
BRANCH   2  11
ATOM     10  N   UNL     1       0.321  -4.778  -8.899  0.00  0.00    +0.000 N 
ATOM     11  C   UNL     1       1.560  -4.221  -9.064  0.00  0.00    +0.000 C 
ATOM     12  O   UNL     1       1.878  -3.672 -10.110  0.00  0.00    +0.000 OA
ATOM     13  H   UNL     1      -0.334  -4.649  -9.661  0.00  0.00    +0.000 HD
ATOM     14  H   UNL     1      -0.064  -5.001  -7.990  0.00  0.00    +0.000 HD
ENDBRANCH   2  11
ENDBRANCH   1   6
BRANCH   1  15
ATOM     15  C   UNL     1       6.135  -5.931  -3.792  0.00  0.00    +0.000 A 
ATOM     16  C   UNL     1       7.474  -5.687  -4.114  0.00  0.00    +0.000 A 
ATOM     17  C   UNL     1       8.354  -6.748  -4.306  0.00  0.00    +0.000 A 
ATOM     18  C   UNL     1       7.909  -8.065  -4.156  0.00  0.00    +0.000 A 
ATOM     19  C   UNL     1       6.583  -8.353  -3.790  0.00  0.00    +0.000 A 
ATOM     20  C   UNL     1       5.705  -7.262  -3.642  0.00  0.00    +0.000 A 
BRANCH  19  21
ATOM     21  C   UNL     1       6.146  -9.732  -3.464  0.00  0.00    +0.000 A 
ATOM     22  C   UNL     1       7.017 -10.627  -2.808  0.00  0.00    +0.000 A 
ATOM     23  C   UNL     1       6.594 -11.890  -2.380  0.00  0.00    +0.000 A 
ATOM     24  C   UNL     1       5.281 -12.288  -2.598  0.00  0.00    +0.000 A 
ATOM     25  C   UNL     1       4.416 -11.432  -3.264  0.00  0.00    +0.000 A 
ATOM     26  F   UNL     1       3.145 -11.808  -3.465  0.00  0.00    +0.000 F 
ATOM     27  C   UNL     1       4.835 -10.178  -3.706  0.00  0.00    +0.000 A 
ENDBRANCH  19  21
ENDBRANCH   1  15
TORSDOF 4
