REMARK  Name = 
REMARK  7 active torsions:
REMARK  status: ('A' for Active; 'I' for Inactive)
REMARK    1  A    between atoms: C_1  and  C_2
REMARK    2  A    between atoms: C_2  and  N_3
REMARK    3  A    between atoms: C_2  and  C_18
REMARK    4  A    between atoms: N_3  and  C_4
REMARK    5  A    between atoms: C_7  and  C_8
REMARK    6  A    between atoms: C_8  and  O_9
REMARK    7  A    between atoms: O_9  and  C_10
REMARK                            x       y       z     vdW  Elec       q    Type
REMARK                         _______ _______ _______ _____ _____    ______ ____
ROOT
ATOM      1  N   UNL     1       1.305  -0.377   0.094  0.00  0.00    +0.000 N 
ATOM      2  H   UNL     1       1.763  -1.215  -0.277  0.00  0.00    +0.000 HD
ENDROOT
BRANCH   1   3
ATOM      3  C   UNL     1       0.432  -0.673   1.141  0.00  0.00    +0.000 A 
ATOM      4  C   UNL     1       0.978  -1.122   2.345  0.00  0.00    +0.000 A 
ATOM      5  C   UNL     1       0.162  -1.446   3.434  0.00  0.00    +0.000 A 
ATOM      6  C   UNL     1      -1.219  -1.361   3.296  0.00  0.00    +0.000 A 
ATOM      7  N   UNL     1      -1.791  -0.960   2.134  0.00  0.00    +0.000 NA
ATOM      8  C   UNL     1      -0.960  -0.623   1.104  0.00  0.00    +0.000 A 
BRANCH   6   9
ATOM      9  C   UNL     1      -2.126  -1.725   4.459  0.00  0.00    +0.000 C 
BRANCH   9  10
ATOM     10  O   UNL     1      -2.295  -0.592   5.313  0.00  0.00    +0.000 OA
BRANCH  10  11
ATOM     11  C   UNL     1      -3.082  -0.758   6.420  0.00  0.00    +0.000 A 
ATOM     12  C   UNL     1      -3.693  -1.909   6.867  0.00  0.00    +0.000 A 
ATOM     13  N   UNL     1      -4.439  -1.979   7.996  0.00  0.00    +0.000 NA
ATOM     14  C   UNL     1      -4.561  -0.835   8.689  0.00  0.00    +0.000 A 
ATOM     15  N   UNL     1      -4.019   0.345   8.358  0.00  0.00    +0.000 NA
ATOM     16  C   UNL     1      -3.288   0.348   7.216  0.00  0.00    +0.000 A 
ENDBRANCH  10  11
ENDBRANCH   9  10
ENDBRANCH   6   9
ENDBRANCH   1   3
BRANCH   1  18
ATOM     17  C   UNL     1       2.261   1.153  -1.531  0.00  0.00    +0.000 C 
ATOM     18  C   UNL     1       0.958   0.575  -0.969  0.00  0.00    +0.000 C 
BRANCH  18  19
ATOM     19  C   UNL     1       0.028   0.113  -2.074  0.00  0.00    +0.000 A 
ATOM     20  C   UNL     1      -0.780   0.978  -2.795  0.00  0.00    +0.000 A 
ATOM     21  S   UNL     1      -2.002   0.164  -3.670  0.00  0.00    +0.000 S 
ATOM     22  C   UNL     1      -1.387  -1.357  -3.217  0.00  0.00    +0.000 A 
ATOM     23  N   UNL     1      -2.022  -2.512  -3.549  0.00  0.00    +0.000 NA
ATOM     24  C   UNL     1      -1.371  -3.582  -3.229  0.00  0.00    +0.000 A 
ATOM     25  N   UNL     1      -0.127  -3.600  -2.646  0.00  0.00    +0.000 N 
ATOM     26  C   UNL     1       0.540  -2.456  -2.267  0.00  0.00    +0.000 A 
ATOM     27  O   UNL     1       1.674  -2.485  -1.797  0.00  0.00    +0.000 OA
ATOM     28  C   UNL     1      -0.201  -1.236  -2.518  0.00  0.00    +0.000 A 
ATOM     29  H   UNL     1       0.361  -4.472  -2.505  0.00  0.00    +0.000 HD
ENDBRANCH  18  19
ENDBRANCH   1  18
TORSDOF 6
