REMARK  Name = 
REMARK  8 active torsions:
REMARK  status: ('A' for Active; 'I' for Inactive)
REMARK    1  A    between atoms: C_1  and  C_2
REMARK    2  A    between atoms: C_2  and  N_3
REMARK    3  A    between atoms: C_2  and  C_16
REMARK    4  A    between atoms: C_4  and  C_6
REMARK    5  A    between atoms: C_19  and  C_20
REMARK    6  A    between atoms: C_20  and  N_21
REMARK    7  A    between atoms: N_21  and  C_22
REMARK    8  A    between atoms: C_22  and  C_23
REMARK                            x       y       z     vdW  Elec       q    Type
REMARK                         _______ _______ _______ _____ _____    ______ ____
ROOT
ATOM      1  C   UNL     1       3.673  -0.974  -0.550  0.00  0.00    +0.000 C 
ATOM      2  C   UNL     1       2.490  -0.139  -0.059  0.00  0.00    +0.000 C 
ENDROOT
BRANCH   2   3
ATOM      3  C   UNL     1       2.906   0.672   1.162  0.00  0.00    +0.000 A 
ATOM      4  C   UNL     1       2.894   2.071   1.128  0.00  0.00    +0.000 A 
ATOM      5  C   UNL     1       3.189   2.812   2.278  0.00  0.00    +0.000 A 
ATOM      6  C   UNL     1       3.489   2.174   3.491  0.00  0.00    +0.000 A 
ATOM      7  C   UNL     1       3.548   0.775   3.512  0.00  0.00    +0.000 A 
ATOM      8  C   UNL     1       3.269   0.035   2.361  0.00  0.00    +0.000 A 
BRANCH   6   9
ATOM      9  C   UNL     1       3.731   2.973   4.756  0.00  0.00    +0.000 C 
BRANCH   9  10
ATOM     10  N   UNL     1       2.556   3.778   5.100  0.00  0.00    +0.000 NA
ATOM     11  H   UNL     1       1.762   3.151   5.227  0.00  0.00    +0.000 HD
BRANCH  10  12
ATOM     12  C   UNL     1       2.752   4.551   6.324  0.00  0.00    +0.000 C 
BRANCH  12  13
ATOM     13  C   UNL     1       1.519   5.361   6.664  0.00  0.00    +0.000 A 
ATOM     14  C   UNL     1       0.844   5.153   7.871  0.00  0.00    +0.000 A 
ATOM     15  C   UNL     1      -0.281   5.915   8.152  0.00  0.00    +0.000 A 
ATOM     16  N   UNL     1      -0.777   6.858   7.326  0.00  0.00    +0.000 NA
ATOM     17  C   UNL     1      -0.111   7.053   6.167  0.00  0.00    +0.000 A 
ATOM     18  C   UNL     1       1.026   6.346   5.799  0.00  0.00    +0.000 A 
ENDBRANCH  12  13
ENDBRANCH  10  12
ENDBRANCH   9  10
ENDBRANCH   6   9
ENDBRANCH   2   3
BRANCH   2  19
ATOM     19  N   UNL     1       1.345  -0.962   0.288  0.00  0.00    +0.000 N 
ATOM     20  C   UNL     1       0.698  -1.781  -0.601  0.00  0.00    +0.000 C 
ATOM     21  O   UNL     1       1.047  -1.917  -1.769  0.00  0.00    +0.000 OA
ATOM     22  H   UNL     1       0.810  -0.628   1.085  0.00  0.00    +0.000 HD
BRANCH  20  23
ATOM     23  C   UNL     1      -0.408  -2.564  -0.044  0.00  0.00    +0.000 A 
ATOM     24  C   UNL     1      -0.722  -3.811  -0.566  0.00  0.00    +0.000 A 
ATOM     25  S   UNL     1      -2.012  -4.580   0.250  0.00  0.00    +0.000 S 
ATOM     26  C   UNL     1      -2.215  -3.249   1.294  0.00  0.00    +0.000 A 
ATOM     27  N   UNL     1      -3.190  -3.241   2.243  0.00  0.00    +0.000 NA
ATOM     28  C   UNL     1      -3.247  -2.152   2.937  0.00  0.00    +0.000 A 
ATOM     29  N   UNL     1      -2.414  -1.075   2.772  0.00  0.00    +0.000 N 
ATOM     30  C   UNL     1      -1.399  -1.054   1.858  0.00  0.00    +0.000 A 
ATOM     31  O   UNL     1      -0.633  -0.100   1.778  0.00  0.00    +0.000 OA
ATOM     32  C   UNL     1      -1.303  -2.249   1.038  0.00  0.00    +0.000 A 
ATOM     33  H   UNL     1      -2.499  -0.255   3.358  0.00  0.00    +0.000 HD
ENDBRANCH  20  23
ENDBRANCH   2  19
TORSDOF 7
