REMARK  Name = 
REMARK  12 active torsions:
REMARK  status: ('A' for Active; 'I' for Inactive)
REMARK    1  A    between atoms: C_1  and  C_2
REMARK    2  A    between atoms: C_2  and  C_3
REMARK    3  A    between atoms: C_2  and  C_4
REMARK    4  A    between atoms: C_6  and  C_7
REMARK    5  A    between atoms: C_12  and  O_13
REMARK    6  A    between atoms: O_13  and  C_14
REMARK    7  A    between atoms: C_14  and  C_15
REMARK    8  A    between atoms: C_15  and  C_16
REMARK    9  A    between atoms: C_15  and  C_17
REMARK   10  A    between atoms: C_15  and  C_18
REMARK   11  A    between atoms: C_21  and  O_22
REMARK   12  A    between atoms: O_22  and  C_23
REMARK                            x       y       z     vdW  Elec       q    Type
REMARK                         _______ _______ _______ _____ _____    ______ ____
ROOT
ATOM      1  O   UNL     1       3.812  -0.928   2.390  0.00  0.00    +0.000 OA
ENDROOT
BRANCH   1   7
ATOM      2  C   UNL     1       3.733   0.960   0.952  0.00  0.00    +0.000 A 
ATOM      3  N   UNL     1       4.307   1.941   0.198  0.00  0.00    +0.000 NA
ATOM      4  C   UNL     1       5.667   2.002   0.186  0.00  0.00    +0.000 A 
ATOM      5  C   UNL     1       6.482   1.120   0.872  0.00  0.00    +0.000 A 
ATOM      6  C   UNL     1       5.879   0.116   1.621  0.00  0.00    +0.000 A 
ATOM      7  C   UNL     1       4.487   0.036   1.693  0.00  0.00    +0.000 A 
BRANCH   4   8
ATOM      8  C   UNL     1       6.285   3.105  -0.614  0.00  0.00    +0.000 C 
ATOM      9  N   UNL     1       5.400   3.911  -1.281  0.00  0.00    +0.000 N 
ATOM     10  O   UNL     1       7.495   3.285  -0.676  0.00  0.00    +0.000 OA
ATOM     11  H   UNL     1       4.407   3.727  -1.201  0.00  0.00    +0.000 HD
ATOM     12  H   UNL     1       5.747   4.675  -1.838  0.00  0.00    +0.000 HD
ENDBRANCH   4   8
BRANCH   2  14
ATOM     13  C   UNL     1       1.713   2.253   1.635  0.00  0.00    +0.000 C 
ATOM     14  C   UNL     1       2.212   0.956   0.995  0.00  0.00    +0.000 C 
ATOM     15  C   UNL     1       1.607   0.767  -0.398  0.00  0.00    +0.000 C 
ENDBRANCH   2  14
ENDBRANCH   1   7
BRANCH   1  16
ATOM     16  C   UNL     1       4.445  -1.482   3.546  0.00  0.00    +0.000 C 
BRANCH  16  17
ATOM     17  C   UNL     1       4.644  -3.026   3.461  0.00  0.00    +0.000 C 
ATOM     18  C   UNL     1       5.193  -3.459   4.845  0.00  0.00    +0.000 C 
ATOM     19  C   UNL     1       3.276  -3.726   3.287  0.00  0.00    +0.000 C 
BRANCH  17  20
ATOM     20  C   UNL     1       5.572  -3.448   2.301  0.00  0.00    +0.000 A 
ATOM     21  C   UNL     1       6.824  -4.051   2.512  0.00  0.00    +0.000 A 
ATOM     22  C   UNL     1       7.607  -4.511   1.444  0.00  0.00    +0.000 A 
ATOM     23  C   UNL     1       7.156  -4.383   0.134  0.00  0.00    +0.000 A 
ATOM     24  C   UNL     1       5.954  -3.725  -0.105  0.00  0.00    +0.000 A 
ATOM     25  C   UNL     1       5.168  -3.279   0.963  0.00  0.00    +0.000 A 
BRANCH  23  26
ATOM     26  O   UNL     1       7.807  -4.845  -0.973  0.00  0.00    +0.000 OA
BRANCH  26  27
ATOM     27  C   UNL     1       8.610  -5.994  -0.754  0.00  0.00    +0.000 C 
ATOM     28  F   UNL     1       8.751  -6.627  -1.946  0.00  0.00    +0.000 F 
ATOM     29  F   UNL     1       9.849  -5.591  -0.375  0.00  0.00    +0.000 F 
ENDBRANCH  26  27
ENDBRANCH  23  26
ENDBRANCH  17  20
ENDBRANCH  16  17
ENDBRANCH   1  16
TORSDOF 8
