REMARK  Name = 
REMARK  7 active torsions:
REMARK  status: ('A' for Active; 'I' for Inactive)
REMARK    1  A    between atoms: N_1  and  C_2
REMARK    2  A    between atoms: C_2  and  C_3
REMARK    3  A    between atoms: C_3  and  C_4
REMARK    4  A    between atoms: C_7  and  C_8
REMARK    5  A    between atoms: C_8  and  C_9
REMARK    6  A    between atoms: C_15  and  C_16
REMARK    7  A    between atoms: C_16  and  O_17
REMARK                            x       y       z     vdW  Elec       q    Type
REMARK                         _______ _______ _______ _____ _____    ______ ____
ROOT
ATOM      1  C   UNL     1       9.875   0.917  -0.814  0.00  0.00    +0.000 A 
ATOM      2  C   UNL     1      10.125  -0.433  -0.633  0.00  0.00    +0.000 A 
ATOM      3  N   UNL     1      11.232  -0.769  -1.360  0.00  0.00    +0.000 N 
ATOM      4  C   UNL     1      11.856   0.374  -1.796  0.00  0.00    +0.000 A 
ATOM      5  C   UNL     1      13.150   0.559  -2.290  0.00  0.00    +0.000 A 
ATOM      6  C   UNL     1      13.478   1.829  -2.770  0.00  0.00    +0.000 A 
ATOM      7  C   UNL     1      12.521   2.849  -2.838  0.00  0.00    +0.000 A 
ATOM      8  C   UNL     1      11.252   2.654  -2.255  0.00  0.00    +0.000 A 
ATOM      9  C   UNL     1      10.933   1.411  -1.663  0.00  0.00    +0.000 A 
ATOM     10  H   UNL     1      11.595  -1.703  -1.482  0.00  0.00    +0.000 HD
ENDROOT
BRANCH   1  11
ATOM     11  C   UNL     1       8.839   1.732  -0.101  0.00  0.00    +0.000 C 
BRANCH  11  15
ATOM     12  C   UNL     1       4.854   0.550  -1.332  0.00  0.00    +0.000 A 
ATOM     13  C   UNL     1       5.451  -0.043  -0.212  0.00  0.00    +0.000 A 
ATOM     14  C   UNL     1       6.747   0.322   0.172  0.00  0.00    +0.000 A 
ATOM     15  C   UNL     1       7.465   1.289  -0.547  0.00  0.00    +0.000 A 
ATOM     16  C   UNL     1       6.857   1.885  -1.658  0.00  0.00    +0.000 A 
ATOM     17  C   UNL     1       5.562   1.524  -2.043  0.00  0.00    +0.000 A 
BRANCH  12  18
ATOM     18  C   UNL     1       3.468   0.138  -1.781  0.00  0.00    +0.000 C 
BRANCH  18  19
ATOM     19  C   UNL     1       2.352   0.967  -1.139  0.00  0.00    +0.000 C 
BRANCH  19  20
ATOM     20  N   UNL     1       1.043   0.552  -1.644  0.00  0.00    +0.000 NA
ATOM     21  H   UNL     1       0.314   1.091  -1.177  0.00  0.00    +0.000 HD
ATOM     22  H   UNL     1       0.875  -0.424  -1.403  0.00  0.00    +0.000 HD
ENDBRANCH  19  20
ENDBRANCH  18  19
ENDBRANCH  12  18
ENDBRANCH  11  15
ENDBRANCH   1  11
BRANCH   7  23
ATOM     23  C   UNL     1      12.872   4.137  -3.537  0.00  0.00    +0.000 C 
BRANCH  23  24
ATOM     24  O   UNL     1      13.825   4.881  -2.793  0.00  0.00    +0.000 OA
ATOM     25  H   UNL     1      13.658   4.699  -1.853  0.00  0.00    +0.000 HD
ENDBRANCH  23  24
ENDBRANCH   7  23
TORSDOF 7
