REMARK  Name = 
REMARK  7 active torsions:
REMARK  status: ('A' for Active; 'I' for Inactive)
REMARK    1  A    between atoms: C_1  and  N_2
REMARK    2  A    between atoms: C_3  and  C_5
REMARK    3  A    between atoms: N_9  and  C_10
REMARK    4  A    between atoms: C_10  and  C_11
REMARK    5  A    between atoms: C_11  and  C_12
REMARK    6  A    between atoms: C_11  and  C_13
REMARK    7  A    between atoms: C_17  and  C_18
REMARK                            x       y       z     vdW  Elec       q    Type
REMARK                         _______ _______ _______ _____ _____    ______ ____
ROOT
ATOM      1  C   UNL     1      11.692   0.865   0.227  0.00  0.00    +0.000 C 
ENDROOT
BRANCH   1   6
ATOM      2  C   UNL     1      12.648   1.677   5.178  0.00  0.00    +0.000 A 
ATOM      3  C   UNL     1      12.034   2.504   4.243  0.00  0.00    +0.000 A 
ATOM      4  C   UNL     1      11.743   2.002   2.974  0.00  0.00    +0.000 A 
ATOM      5  C   UNL     1      12.093   0.695   2.651  0.00  0.00    +0.000 A 
ATOM      6  N   UNL     1      11.744   0.089   1.458  0.00  0.00    +0.000 N 
ATOM      7  N   UNL     1      12.729  -0.101   3.534  0.00  0.00    +0.000 NA
ATOM      8  C   UNL     1      12.999   0.400   4.770  0.00  0.00    +0.000 A 
ATOM      9  H   UNL     1      12.269  -0.782   1.404  0.00  0.00    +0.000 HD
BRANCH   2  12
ATOM     10  C   UNL     1      12.217   3.524   8.441  0.00  0.00    +0.000 C 
ATOM     11  N   UNL     1      12.065   3.049   7.090  0.00  0.00    +0.000 N 
ATOM     12  C   UNL     1      12.929   2.111   6.564  0.00  0.00    +0.000 C 
ATOM     13  O   UNL     1      13.864   1.622   7.185  0.00  0.00    +0.000 OA
ATOM     14  H   UNL     1      11.205   3.270   6.604  0.00  0.00    +0.000 HD
ENDBRANCH   2  12
ENDBRANCH   1   6
BRANCH   1  15
ATOM     15  C   UNL     1      11.226   0.019  -0.980  0.00  0.00    +0.000 C 
ATOM     16  C   UNL     1       9.778  -0.465  -0.802  0.00  0.00    +0.000 C 
BRANCH  15  17
ATOM     17  C   UNL     1      12.191  -1.098  -1.358  0.00  0.00    +0.000 A 
ATOM     18  C   UNL     1      12.057  -2.401  -0.854  0.00  0.00    +0.000 A 
ATOM     19  C   UNL     1      12.891  -3.432  -1.291  0.00  0.00    +0.000 A 
ATOM     20  C   UNL     1      13.883  -3.177  -2.231  0.00  0.00    +0.000 A 
ATOM     21  C   UNL     1      14.070  -1.880  -2.718  0.00  0.00    +0.000 A 
ATOM     22  C   UNL     1      13.226  -0.845  -2.276  0.00  0.00    +0.000 A 
BRANCH  21  23
ATOM     23  C   UNL     1      15.090  -1.574  -3.755  0.00  0.00    +0.000 C 
ATOM     24  N   UNL     1      16.151  -2.430  -3.871  0.00  0.00    +0.000 N 
ATOM     25  O   UNL     1      15.001  -0.586  -4.474  0.00  0.00    +0.000 OA
ATOM     26  H   UNL     1      16.383  -3.120  -3.172  0.00  0.00    +0.000 HD
ATOM     27  H   UNL     1      16.864  -2.180  -4.543  0.00  0.00    +0.000 HD
ENDBRANCH  21  23
ENDBRANCH  15  17
ENDBRANCH   1  15
TORSDOF 5
