REMARK  Name = 
REMARK  7 active torsions:
REMARK  status: ('A' for Active; 'I' for Inactive)
REMARK    1  A    between atoms: C_2  and  C_19
REMARK    2  A    between atoms: N_3  and  C_4
REMARK    3  A    between atoms: C_4  and  C_5
REMARK    4  A    between atoms: C_8  and  O_9
REMARK    5  A    between atoms: O_9  and  C_10
REMARK    6  A    between atoms: C_10  and  C_11
REMARK    7  A    between atoms: C_11  and  C_12
REMARK                            x       y       z     vdW  Elec       q    Type
REMARK                         _______ _______ _______ _____ _____    ______ ____
ROOT
ATOM      1  C   UNL     1      -0.566  12.647   1.121  0.00  0.00    +0.000 C 
ENDROOT
BRANCH   1   2
ATOM      2  C   UNL     1       0.304  11.826   0.207  0.00  0.00    +0.000 A 
ATOM      3  C   UNL     1       1.519  12.345  -0.252  0.00  0.00    +0.000 A 
ATOM      4  C   UNL     1       2.350  11.587  -1.081  0.00  0.00    +0.000 A 
ATOM      5  C   UNL     1       1.980  10.295  -1.455  0.00  0.00    +0.000 A 
ATOM      6  C   UNL     1       0.740   9.797  -1.055  0.00  0.00    +0.000 A 
ATOM      7  C   UNL     1      -0.095  10.555  -0.228  0.00  0.00    +0.000 A 
BRANCH   5   8
ATOM      8  O   UNL     1       2.747   9.447  -2.212  0.00  0.00    +0.000 OA
BRANCH   8   9
ATOM      9  C   UNL     1       4.156   9.693  -2.152  0.00  0.00    +0.000 C 
BRANCH   9  10
ATOM     10  C   UNL     1       4.899   8.404  -2.503  0.00  0.00    +0.000 C 
BRANCH  10  11
ATOM     11  C   UNL     1       6.422   8.600  -2.468  0.00  0.00    +0.000 C 
ATOM     12  C   UNL     1       7.193   7.327  -2.780  0.00  0.00    +0.000 C 
ATOM     13  O   UNL     1       7.397   6.672  -1.525  0.00  0.00    +0.000 OA
ATOM     14  C   UNL     1       7.128   7.634  -0.510  0.00  0.00    +0.000 C 
ATOM     15  N   UNL     1       6.908   8.941  -1.123  0.00  0.00    +0.000 NA
ATOM     16  H   UNL     1       7.828   9.369  -1.218  0.00  0.00    +0.000 HD
ENDBRANCH  10  11
ENDBRANCH   9  10
ENDBRANCH   8   9
ENDBRANCH   5   8
ENDBRANCH   1   2
BRANCH   1  19
ATOM     17  O   UNL     1      -0.238  15.328   0.299  0.00  0.00    +0.000 OA
ATOM     18  C   UNL     1      -1.245  14.717  -0.039  0.00  0.00    +0.000 C 
ATOM     19  N   UNL     1      -1.509  13.437   0.373  0.00  0.00    +0.000 N 
ATOM     20  H   UNL     1      -2.247  12.915  -0.086  0.00  0.00    +0.000 HD
BRANCH  18  21
ATOM     21  C   UNL     1      -2.280  15.345  -0.871  0.00  0.00    +0.000 A 
ATOM     22  C   UNL     1      -2.385  16.729  -0.918  0.00  0.00    +0.000 A 
ATOM     23  S   UNL     1      -3.662  17.282  -1.904  0.00  0.00    +0.000 S 
ATOM     24  C   UNL     1      -4.085  15.694  -2.345  0.00  0.00    +0.000 A 
ATOM     25  N   UNL     1      -5.107  15.456  -3.211  0.00  0.00    +0.000 NA
ATOM     26  C   UNL     1      -5.286  14.209  -3.495  0.00  0.00    +0.000 A 
ATOM     27  N   UNL     1      -4.544  13.177  -2.984  0.00  0.00    +0.000 N 
ATOM     28  C   UNL     1      -3.559  13.364  -2.044  0.00  0.00    +0.000 A 
ATOM     29  O   UNL     1      -3.016  12.407  -1.500  0.00  0.00    +0.000 OA
ATOM     30  C   UNL     1      -3.282  14.752  -1.728  0.00  0.00    +0.000 A 
ATOM     31  H   UNL     1      -4.754  12.219  -3.222  0.00  0.00    +0.000 HD
ENDBRANCH  18  21
ENDBRANCH   1  19
TORSDOF 7
