REMARK  Name = 
REMARK  5 active torsions:
REMARK  status: ('A' for Active; 'I' for Inactive)
REMARK    1  A    between atoms: C_2  and  C_4
REMARK    2  A    between atoms: N_8  and  C_9
REMARK    3  A    between atoms: C_9  and  C_10
REMARK    4  A    between atoms: C_10  and  C_11
REMARK    5  A    between atoms: C_15  and  C_16
REMARK                            x       y       z     vdW  Elec       q    Type
REMARK                         _______ _______ _______ _____ _____    ______ ____
ROOT
ATOM      1  C   UNL     1       5.498  -4.964   3.127  0.00  0.00    +0.000 C 
ENDROOT
BRANCH   1   6
ATOM      2  C   UNL     1       3.260  -0.959   0.864  0.00  0.00    +0.000 A 
ATOM      3  C   UNL     1       2.888  -2.294   0.955  0.00  0.00    +0.000 A 
ATOM      4  C   UNL     1       3.691  -3.174   1.681  0.00  0.00    +0.000 A 
ATOM      5  C   UNL     1       4.856  -2.717   2.295  0.00  0.00    +0.000 A 
ATOM      6  N   UNL     1       5.682  -3.533   3.029  0.00  0.00    +0.000 N 
ATOM      7  N   UNL     1       5.226  -1.425   2.210  0.00  0.00    +0.000 NA
ATOM      8  C   UNL     1       4.432  -0.577   1.499  0.00  0.00    +0.000 A 
ATOM      9  H   UNL     1       6.537  -3.079   3.336  0.00  0.00    +0.000 HD
BRANCH   2  11
ATOM     10  N   UNL     1       1.156  -0.211  -0.106  0.00  0.00    +0.000 N 
ATOM     11  C   UNL     1       2.487   0.038   0.093  0.00  0.00    +0.000 C 
ATOM     12  O   UNL     1       3.010   1.056  -0.338  0.00  0.00    +0.000 OA
ATOM     13  H   UNL     1       0.626   0.512  -0.576  0.00  0.00    +0.000 HD
ATOM     14  H   UNL     1       0.641  -0.912   0.406  0.00  0.00    +0.000 HD
ENDBRANCH   2  11
ENDBRANCH   1   6
BRANCH   1  15
ATOM     15  C   UNL     1       6.616  -5.637   3.927  0.00  0.00    +0.000 C 
BRANCH  15  16
ATOM     16  C   UNL     1       6.350  -7.117   4.053  0.00  0.00    +0.000 A 
ATOM     17  C   UNL     1       5.575  -7.616   5.091  0.00  0.00    +0.000 A 
ATOM     18  N   UNL     1       5.248  -8.917   5.223  0.00  0.00    +0.000 NA
ATOM     19  C   UNL     1       5.722  -9.764   4.277  0.00  0.00    +0.000 A 
ATOM     20  C   UNL     1       6.518  -9.399   3.187  0.00  0.00    +0.000 A 
ATOM     21  C   UNL     1       6.818  -8.030   3.096  0.00  0.00    +0.000 A 
BRANCH  20  22
ATOM     22  C   UNL     1       7.010 -10.391   2.203  0.00  0.00    +0.000 A 
ATOM     23  C   UNL     1       7.322 -11.711   2.588  0.00  0.00    +0.000 A 
ATOM     24  C   UNL     1       7.784 -12.657   1.667  0.00  0.00    +0.000 A 
ATOM     25  C   UNL     1       7.959 -12.302   0.334  0.00  0.00    +0.000 A 
ATOM     26  C   UNL     1       7.665 -11.004  -0.070  0.00  0.00    +0.000 A 
ATOM     27 CL   UNL     1       7.890 -10.554  -1.717  0.00  0.00    +0.000 Cl
ATOM     28  C   UNL     1       7.192 -10.061   0.847  0.00  0.00    +0.000 A 
ENDBRANCH  20  22
ENDBRANCH  15  16
ENDBRANCH   1  15
TORSDOF 5
