REMARK  Name = 
REMARK  3 active torsions:
REMARK  status: ('A' for Active; 'I' for Inactive)
REMARK    1  A    between atoms: C_2  and  C_4
REMARK    2  A    between atoms: N_8  and  C_9
REMARK    3  A    between atoms: C_9  and  C_10
REMARK                            x       y       z     vdW  Elec       q    Type
REMARK                         _______ _______ _______ _____ _____    ______ ____
ROOT
ATOM      1  C   UNL     1       3.406  -2.760   1.728  0.00  0.00    +0.000 A 
ATOM      2  C   UNL     1       2.698  -3.411   0.723  0.00  0.00    +0.000 A 
ATOM      3  C   UNL     1       3.386  -3.928  -0.373  0.00  0.00    +0.000 A 
ATOM      4  C   UNL     1       4.767  -3.784  -0.448  0.00  0.00    +0.000 A 
ATOM      5  N   UNL     1       5.520  -4.184  -1.554  0.00  0.00    +0.000 N 
ATOM      6  N   UNL     1       5.463  -3.148   0.519  0.00  0.00    +0.000 NA
ATOM      7  C   UNL     1       4.779  -2.645   1.575  0.00  0.00    +0.000 A 
ATOM      8  H   UNL     1       6.491  -4.020  -1.292  0.00  0.00    +0.000 HD
ENDROOT
BRANCH   1  10
ATOM      9  N   UNL     1       1.564  -2.706   3.305  0.00  0.00    +0.000 N 
ATOM     10  C   UNL     1       2.751  -2.159   2.908  0.00  0.00    +0.000 C 
ATOM     11  O   UNL     1       3.263  -1.234   3.520  0.00  0.00    +0.000 OA
ATOM     12  H   UNL     1       1.163  -2.345   4.161  0.00  0.00    +0.000 HD
ATOM     13  H   UNL     1       1.238  -3.603   2.980  0.00  0.00    +0.000 HD
ENDBRANCH   1  10
BRANCH   5  14
ATOM     14  C   UNL     1       5.271  -5.389  -2.363  0.00  0.00    +0.000 C 
ATOM     15  C   UNL     1       5.379  -5.141  -3.863  0.00  0.00    +0.000 C 
ATOM     16  C   UNL     1       4.077  -5.575  -3.282  0.00  0.00    +0.000 C 
BRANCH  14  17
ATOM     17  C   UNL     1       5.885  -6.649  -1.762  0.00  0.00    +0.000 A 
ATOM     18  C   UNL     1       7.200  -7.054  -2.063  0.00  0.00    +0.000 A 
ATOM     19  C   UNL     1       7.790  -8.160  -1.441  0.00  0.00    +0.000 A 
ATOM     20  C   UNL     1       7.072  -8.888  -0.498  0.00  0.00    +0.000 A 
ATOM     21  C   UNL     1       5.768  -8.516  -0.204  0.00  0.00    +0.000 A 
ATOM     22  F   UNL     1       5.072  -9.214   0.704  0.00  0.00    +0.000 F 
ATOM     23  C   UNL     1       5.176  -7.420  -0.825  0.00  0.00    +0.000 A 
ENDBRANCH  14  17
ENDBRANCH   5  14
TORSDOF 3
