REMARK  Name = 
REMARK  6 active torsions:
REMARK  status: ('A' for Active; 'I' for Inactive)
REMARK    1  A    between atoms: C_2  and  C_25
REMARK    2  A    between atoms: N_3  and  C_4
REMARK    3  A    between atoms: C_4  and  C_5
REMARK    4  A    between atoms: C_8  and  C_9
REMARK    5  A    between atoms: C_9  and  N_10
REMARK    6  A    between atoms: C_11  and  C_13
REMARK                            x       y       z     vdW  Elec       q    Type
REMARK                         _______ _______ _______ _____ _____    ______ ____
ROOT
ATOM      1  C   UNL     1       3.191   2.600  -2.704  0.00  0.00    +0.000 C 
ATOM      2  C   UNL     1       4.625   2.093  -2.463  0.00  0.00    +0.000 C 
ATOM      3  C   UNL     1       5.709   3.058  -2.943  0.00  0.00    +0.000 C 
ATOM      4  C   UNL     1       5.531   4.496  -2.424  0.00  0.00    +0.000 C 
ATOM      5  C   UNL     1       4.112   4.991  -2.735  0.00  0.00    +0.000 C 
ATOM      6  C   UNL     1       3.023   4.048  -2.215  0.00  0.00    +0.000 C 
ENDROOT
BRANCH   1   7
ATOM      7  C   UNL     1       2.760   2.480  -4.174  0.00  0.00    +0.000 C 
BRANCH   7  10
ATOM      8  O   UNL     1       3.328   1.642  -6.814  0.00  0.00    +0.000 OA
ATOM      9  C   UNL     1       3.079   0.806  -5.953  0.00  0.00    +0.000 C 
ATOM     10  N   UNL     1       2.785   1.114  -4.644  0.00  0.00    +0.000 N 
ATOM     11  H   UNL     1       2.483   0.345  -4.052  0.00  0.00    +0.000 HD
BRANCH   9  12
ATOM     12  C   UNL     1       3.090  -0.658  -6.271  0.00  0.00    +0.000 A 
ATOM     13  C   UNL     1       3.406  -1.062  -7.564  0.00  0.00    +0.000 A 
ATOM     14  C   UNL     1       3.450  -2.424  -7.834  0.00  0.00    +0.000 A 
ATOM     15  C   UNL     1       3.180  -3.327  -6.812  0.00  0.00    +0.000 A 
ATOM     16  C   UNL     1       2.872  -2.833  -5.551  0.00  0.00    +0.000 A 
ATOM     17  N   UNL     1       2.815  -1.517  -5.249  0.00  0.00    +0.000 NA
ENDBRANCH   9  12
ENDBRANCH   7  10
ENDBRANCH   1   7
BRANCH   4  18
ATOM     18  C   UNL     1       5.833   4.648  -0.925  0.00  0.00    +0.000 C 
BRANCH  18  19
ATOM     19  N   UNL     1       7.180   4.260  -0.582  0.00  0.00    +0.000 N 
ATOM     20  C   UNL     1       8.252   5.112  -0.568  0.00  0.00    +0.000 C 
ATOM     21  O   UNL     1       8.197   6.264  -0.986  0.00  0.00    +0.000 OA
ATOM     22  H   UNL     1       7.273   3.350  -0.147  0.00  0.00    +0.000 HD
BRANCH  20  23
ATOM     23  C   UNL     1       9.495   4.536  -0.039  0.00  0.00    +0.000 A 
ATOM     24  C   UNL     1      10.729   5.037  -0.431  0.00  0.00    +0.000 A 
ATOM     25  S   UNL     1      12.049   4.234   0.297  0.00  0.00    +0.000 S 
ATOM     26  C   UNL     1      11.015   3.226   1.200  0.00  0.00    +0.000 A 
ATOM     27  N   UNL     1      11.513   2.313   2.074  0.00  0.00    +0.000 NA
ATOM     28  C   UNL     1      10.611   1.655   2.730  0.00  0.00    +0.000 A 
ATOM     29  N   UNL     1       9.261   1.820   2.578  0.00  0.00    +0.000 N 
ATOM     30  C   UNL     1       8.715   2.665   1.645  0.00  0.00    +0.000 A 
ATOM     31  O   UNL     1       7.508   2.667   1.432  0.00  0.00    +0.000 OA
ATOM     32  C   UNL     1       9.682   3.475   0.922  0.00  0.00    +0.000 A 
ATOM     33  H   UNL     1       8.607   1.248   3.093  0.00  0.00    +0.000 HD
ENDBRANCH  20  23
ENDBRANCH  18  19
ENDBRANCH   4  18
TORSDOF 6
