REMARK  Name = 
REMARK  8 active torsions:
REMARK  status: ('A' for Active; 'I' for Inactive)
REMARK    1  A    between atoms: C_2  and  C_20
REMARK    2  A    between atoms: N_3  and  C_4
REMARK    3  A    between atoms: C_4  and  C_5
REMARK    4  A    between atoms: C_8  and  C_9
REMARK    5  A    between atoms: C_9  and  O_10
REMARK    6  A    between atoms: C_9  and  C_11
REMARK    7  A    between atoms: C_11  and  N_12
REMARK    8  A    between atoms: N_12  and  C_13
REMARK                            x       y       z     vdW  Elec       q    Type
REMARK                         _______ _______ _______ _____ _____    ______ ____
ROOT
ATOM      1  C   UNL     1       3.213  -3.573   0.201  0.00  0.00    +0.000 A 
ATOM      2  C   UNL     1       4.584  -3.374   0.396  0.00  0.00    +0.000 A 
ATOM      3  C   UNL     1       5.461  -4.461   0.445  0.00  0.00    +0.000 A 
ATOM      4  C   UNL     1       4.992  -5.774   0.277  0.00  0.00    +0.000 A 
ATOM      5  C   UNL     1       3.619  -5.967   0.061  0.00  0.00    +0.000 A 
ATOM      6  C   UNL     1       2.741  -4.880   0.021  0.00  0.00    +0.000 A 
ENDROOT
BRANCH   1   7
ATOM      7  C   UNL     1       2.271  -2.399   0.151  0.00  0.00    +0.000 C 
BRANCH   7  10
ATOM      8  O   UNL     1       3.534  -0.158  -1.018  0.00  0.00    +0.000 OA
ATOM      9  C   UNL     1       2.770  -0.838  -1.699  0.00  0.00    +0.000 C 
ATOM     10  N   UNL     1       2.098  -1.918  -1.195  0.00  0.00    +0.000 N 
ATOM     11  H   UNL     1       1.616  -2.545  -1.830  0.00  0.00    +0.000 HD
BRANCH   9  12
ATOM     12  C   UNL     1       2.482  -0.491  -3.099  0.00  0.00    +0.000 A 
ATOM     13  C   UNL     1       2.735   0.796  -3.556  0.00  0.00    +0.000 A 
ATOM     14  S   UNL     1       2.334   1.033  -5.197  0.00  0.00    +0.000 S 
ATOM     15  C   UNL     1       1.850  -0.590  -5.369  0.00  0.00    +0.000 A 
ATOM     16  N   UNL     1       1.420  -1.065  -6.568  0.00  0.00    +0.000 NA
ATOM     17  C   UNL     1       1.128  -2.322  -6.571  0.00  0.00    +0.000 A 
ATOM     18  N   UNL     1       1.210  -3.144  -5.478  0.00  0.00    +0.000 N 
ATOM     19  C   UNL     1       1.542  -2.684  -4.226  0.00  0.00    +0.000 A 
ATOM     20  O   UNL     1       1.436  -3.403  -3.235  0.00  0.00    +0.000 OA
ATOM     21  C   UNL     1       1.953  -1.294  -4.184  0.00  0.00    +0.000 A 
ATOM     22  H   UNL     1       0.926  -4.109  -5.529  0.00  0.00    +0.000 HD
ENDBRANCH   9  12
ENDBRANCH   7  10
ENDBRANCH   1   7
BRANCH   4  23
ATOM     23  C   UNL     1       5.970  -6.935   0.302  0.00  0.00    +0.000 C 
BRANCH  23  24
ATOM     24  O   UNL     1       5.693  -7.789   1.420  0.00  0.00    +0.000 OA
ATOM     25  H   UNL     1       4.728  -7.812   1.533  0.00  0.00    +0.000 HD
ENDBRANCH  23  24
BRANCH  23  26
ATOM     26  C   UNL     1       5.965  -7.804  -0.983  0.00  0.00    +0.000 C 
BRANCH  26  27
ATOM     27  N   UNL     1       6.275  -7.049  -2.199  0.00  0.00    +0.000 NA
ATOM     28  H   UNL     1       7.169  -6.576  -2.092  0.00  0.00    +0.000 HD
BRANCH  27  29
ATOM     29  C   UNL     1       6.286  -7.848  -3.397  0.00  0.00    +0.000 C 
ATOM     30  C   UNL     1       6.662  -7.002  -4.606  0.00  0.00    +0.000 C 
ATOM     31  C   UNL     1       6.100  -7.810  -5.759  0.00  0.00    +0.000 C 
ATOM     32  C   UNL     1       4.889  -8.514  -5.163  0.00  0.00    +0.000 C 
ATOM     33  N   UNL     1       4.940  -8.275  -3.722  0.00  0.00    +0.000 NA
ATOM     34  H   UNL     1       4.701  -9.114  -3.202  0.00  0.00    +0.000 HD
ENDBRANCH  27  29
ENDBRANCH  26  27
ENDBRANCH  23  26
ENDBRANCH   4  23
TORSDOF 8
