REMARK  Name = 
REMARK  11 active torsions:
REMARK  status: ('A' for Active; 'I' for Inactive)
REMARK    1  A    between atoms: C_2  and  C_24
REMARK    2  A    between atoms: N_3  and  CA_4
REMARK    3  A    between atoms: CA_4  and  C_5
REMARK    4  A    between atoms: CA_4  and  C_7
REMARK    5  A    between atoms: C_5  and  O_6
REMARK    6  A    between atoms: C_10  and  C_11
REMARK    7  A    between atoms: C_11  and  N_12
REMARK    8  A    between atoms: N_12  and  CA_13
REMARK    9  A    between atoms: CA_13  and  C_14
REMARK   10  A    between atoms: CA_13  and  C_16
REMARK   11  A    between atoms: C_14  and  O_15
REMARK                            x       y       z     vdW  Elec       q    Type
REMARK                         _______ _______ _______ _____ _____    ______ ____
ROOT
ATOM      1  CA  UNL     1       2.263   1.788  -1.842  0.00  0.00    +0.000 C 
ENDROOT
BRANCH   1   2
ATOM      2  C   UNL     1       3.231   2.537  -2.755  0.00  0.00    +0.000 A 
ATOM      3  C   UNL     1       3.037   3.914  -2.957  0.00  0.00    +0.000 A 
ATOM      4  C   UNL     1       3.916   4.657  -3.751  0.00  0.00    +0.000 A 
ATOM      5  C   UNL     1       5.023   4.048  -4.358  0.00  0.00    +0.000 A 
ATOM      6  C   UNL     1       5.226   2.679  -4.152  0.00  0.00    +0.000 A 
ATOM      7  C   UNL     1       4.350   1.936  -3.350  0.00  0.00    +0.000 A 
BRANCH   5   8
ATOM      8  C   UNL     1       5.974   4.858  -5.216  0.00  0.00    +0.000 C 
BRANCH   8   9
ATOM      9  N   UNL     1       6.537   5.961  -4.440  0.00  0.00    +0.000 NA
ATOM     10  H   UNL     1       6.974   5.563  -3.606  0.00  0.00    +0.000 HD
BRANCH   9  11
ATOM     11  CA  UNL     1       7.570   6.751  -5.145  0.00  0.00    +0.000 C 
BRANCH  11  12
ATOM     12  C   UNL     1       8.167   7.790  -4.193  0.00  0.00    +0.000 A 
ATOM     13  C   UNL     1       9.475   8.261  -4.391  0.00  0.00    +0.000 A 
ATOM     14  C   UNL     1      10.017   9.226  -3.534  0.00  0.00    +0.000 A 
ATOM     15  C   UNL     1       9.268   9.729  -2.473  0.00  0.00    +0.000 A 
ATOM     16  C   UNL     1       7.969   9.276  -2.264  0.00  0.00    +0.000 A 
ATOM     17  C   UNL     1       7.424   8.321  -3.118  0.00  0.00    +0.000 A 
ENDBRANCH  11  12
BRANCH  11  18
ATOM     18  C   UNL     1       7.030   7.458  -6.418  0.00  0.00    +0.000 C 
BRANCH  18  19
ATOM     19  O   UNL     1       5.883   8.264  -6.142  0.00  0.00    +0.000 OA
ATOM     20  H   UNL     1       5.481   7.881  -5.338  0.00  0.00    +0.000 HD
ENDBRANCH  18  19
ENDBRANCH  11  18
ENDBRANCH   9  11
ENDBRANCH   8   9
ENDBRANCH   5   8
ENDBRANCH   1   2
BRANCH   1  23
ATOM     21  O   UNL     1       0.621   1.897   0.453  0.00  0.00    +0.000 OA
ATOM     22  C   UNL     1       1.838   1.959   0.595  0.00  0.00    +0.000 C 
ATOM     23  N   UNL     1       2.700   1.981  -0.468  0.00  0.00    +0.000 N 
ATOM     24  H   UNL     1       3.695   1.874  -0.301  0.00  0.00    +0.000 HD
BRANCH  22  25
ATOM     25  C   UNL     1       2.450   2.061   1.926  0.00  0.00    +0.000 A 
ATOM     26  C   UNL     1       1.716   2.564   2.990  0.00  0.00    +0.000 A 
ATOM     27  S   UNL     1       2.591   2.628   4.453  0.00  0.00    +0.000 S 
ATOM     28  C   UNL     1       3.966   1.941   3.725  0.00  0.00    +0.000 A 
ATOM     29  N   UNL     1       5.091   1.690   4.448  0.00  0.00    +0.000 NA
ATOM     30  C   UNL     1       6.045   1.134   3.778  0.00  0.00    +0.000 A 
ATOM     31  N   UNL     1       5.980   0.814   2.447  0.00  0.00    +0.000 N 
ATOM     32  C   UNL     1       4.880   1.082   1.667  0.00  0.00    +0.000 A 
ATOM     33  O   UNL     1       4.877   0.840   0.463  0.00  0.00    +0.000 OA
ATOM     34  C   UNL     1       3.771   1.688   2.379  0.00  0.00    +0.000 A 
ATOM     35  H   UNL     1       6.768   0.394   1.978  0.00  0.00    +0.000 HD
ENDBRANCH  22  25
ENDBRANCH   1  23
BRANCH   1  36
ATOM     36  C   UNL     1       2.098   0.279  -2.153  0.00  0.00    +0.000 C 
BRANCH  36  37
ATOM     37  O   UNL     1       1.572   0.033  -3.457  0.00  0.00    +0.000 OA
ATOM     38  H   UNL     1       2.172   0.447  -4.102  0.00  0.00    +0.000 HD
ENDBRANCH  36  37
ENDBRANCH   1  36
TORSDOF 11
