REMARK  Name = 
REMARK  4 active torsions:
REMARK  status: ('A' for Active; 'I' for Inactive)
REMARK    1  A    between atoms: N_1  and  C_2
REMARK    2  A    between atoms: C_2  and  C_3
REMARK    3  A    between atoms: C_6  and  C_7
REMARK    4  A    between atoms: C_7  and  N_8
REMARK                            x       y       z     vdW  Elec       q    Type
REMARK                         _______ _______ _______ _____ _____    ______ ____
ROOT
ATOM      1  C   UNL     1       3.294  -1.365   0.549  0.00  0.00    +0.000 A 
ATOM      2  C   UNL     1       2.274  -1.493   1.496  0.00  0.00    +0.000 A 
ATOM      3  C   UNL     1       2.414  -2.387   2.556  0.00  0.00    +0.000 A 
ATOM      4  C   UNL     1       3.575  -3.154   2.642  0.00  0.00    +0.000 A 
ATOM      5  N   UNL     1       4.588  -3.033   1.747  0.00  0.00    +0.000 NA
ATOM      6  C   UNL     1       4.428  -2.145   0.736  0.00  0.00    +0.000 A 
ENDROOT
BRANCH   1   7
ATOM      7  C   UNL     1       3.156  -0.478  -0.655  0.00  0.00    +0.000 C 
BRANCH   7   8
ATOM      8  N   UNL     1       2.865   0.905  -0.294  0.00  0.00    +0.000 NA
ATOM      9  H   UNL     1       2.850   1.473  -1.140  0.00  0.00    +0.000 HD
ATOM     10  H   UNL     1       3.628   1.268   0.276  0.00  0.00    +0.000 HD
ENDBRANCH   7   8
ENDBRANCH   1   7
BRANCH   4  11
ATOM     11  C   UNL     1       3.747  -4.184   3.731  0.00  0.00    +0.000 C 
BRANCH  11  12
ATOM     12  N   UNL     1       4.245  -3.593   4.957  0.00  0.00    +0.000 N 
ATOM     13  C   UNL     1       5.493  -3.049   5.113  0.00  0.00    +0.000 A 
ATOM     14  N   UNL     1       5.664  -2.565   6.321  0.00  0.00    +0.000 NA
ATOM     15  C   UNL     1       4.491  -2.827   6.983  0.00  0.00    +0.000 A 
ATOM     16  C   UNL     1       4.123  -2.515   8.301  0.00  0.00    +0.000 A 
ATOM     17  C   UNL     1       2.862  -2.907   8.761  0.00  0.00    +0.000 A 
ATOM     18  C   UNL     1       1.987  -3.611   7.932  0.00  0.00    +0.000 A 
ATOM     19  C   UNL     1       2.332  -3.927   6.612  0.00  0.00    +0.000 A 
ATOM     20  C   UNL     1       3.589  -3.504   6.161  0.00  0.00    +0.000 A 
ENDBRANCH  11  12
ENDBRANCH   4  11
TORSDOF 4
