REMARK  Name = 
REMARK  6 active torsions:
REMARK  status: ('A' for Active; 'I' for Inactive)
REMARK    1  A    between atoms: C_7  and  C_8
REMARK    2  A    between atoms: N_10  and  C_11
REMARK    3  A    between atoms: C_11  and  C_12
REMARK    4  A    between atoms: C_15  and  O_16
REMARK    5  A    between atoms: O_16  and  C_17
REMARK    6  A    between atoms: C_17  and  C_18
REMARK                            x       y       z     vdW  Elec       q    Type
REMARK                         _______ _______ _______ _____ _____    ______ ____
ROOT
ATOM      1  C   UNL     1      -2.318  -2.897  -1.438  0.00  0.00    +0.000 C 
ATOM      2  O   UNL     1      -1.449  -2.379  -0.739  0.00  0.00    +0.000 OA
ATOM      3  N   UNL     1      -3.107  -3.923  -0.981  0.00  0.00    +0.000 N 
ATOM      4  H   UNL     1      -3.854  -4.285  -1.568  0.00  0.00    +0.000 HD
ENDROOT
BRANCH   1  11
ATOM      5  N   UNL     1      -5.482  -3.345  -7.362  0.00  0.00    +0.000 N 
ATOM      6  C   UNL     1      -4.787  -3.126  -6.214  0.00  0.00    +0.000 A 
ATOM      7  N   UNL     1      -3.857  -2.219  -6.168  0.00  0.00    +0.000 NA
ATOM      8  C   UNL     1      -3.242  -2.124  -4.967  0.00  0.00    +0.000 A 
ATOM      9  N   UNL     1      -2.238  -1.240  -4.703  0.00  0.00    +0.000 N 
ATOM     10  C   UNL     1      -1.820  -1.417  -3.409  0.00  0.00    +0.000 A 
ATOM     11  C   UNL     1      -2.559  -2.439  -2.815  0.00  0.00    +0.000 A 
ATOM     12  C   UNL     1      -3.484  -2.856  -3.822  0.00  0.00    +0.000 A 
ATOM     13  C   UNL     1      -4.548  -3.826  -3.891  0.00  0.00    +0.000 A 
ATOM     14  O   UNL     1      -4.921  -4.498  -2.935  0.00  0.00    +0.000 OA
ATOM     15  N   UNL     1      -5.126  -3.921  -5.140  0.00  0.00    +0.000 N 
ATOM     16  H   UNL     1      -5.043  -2.912  -8.168  0.00  0.00    +0.000 HD
ATOM     17  H   UNL     1      -5.805  -4.285  -7.542  0.00  0.00    +0.000 HD
ATOM     18  H   UNL     1      -1.872  -0.574  -5.369  0.00  0.00    +0.000 HD
ATOM     19  H   UNL     1      -5.890  -4.572  -5.221  0.00  0.00    +0.000 HD
ENDBRANCH   1  11
BRANCH   3  20
ATOM     20  C   UNL     1      -2.984  -4.465   0.354  0.00  0.00    +0.000 C 
BRANCH  20  21
ATOM     21  C   UNL     1      -2.036  -5.639   0.435  0.00  0.00    +0.000 A 
ATOM     22  C   UNL     1      -0.669  -5.435   0.677  0.00  0.00    +0.000 A 
ATOM     23  C   UNL     1       0.222  -6.513   0.752  0.00  0.00    +0.000 A 
ATOM     24  C   UNL     1      -0.246  -7.819   0.613  0.00  0.00    +0.000 A 
ATOM     25  C   UNL     1      -1.603  -8.033   0.366  0.00  0.00    +0.000 A 
ATOM     26  C   UNL     1      -2.492  -6.955   0.275  0.00  0.00    +0.000 A 
BRANCH  24  27
ATOM     27  O   UNL     1       0.530  -8.945   0.675  0.00  0.00    +0.000 OA
BRANCH  27  28
ATOM     28  C   UNL     1       1.707  -8.846   1.487  0.00  0.00    +0.000 C 
BRANCH  28  29
ATOM     29  C   UNL     1       2.071 -10.208   2.032  0.00  0.00    +0.000 A 
ATOM     30  N   UNL     1       3.311 -10.706   1.760  0.00  0.00    +0.000 NA
ATOM     31  C   UNL     1       3.620 -11.914   2.289  0.00  0.00    +0.000 A 
ATOM     32  C   UNL     1       2.761 -12.653   3.088  0.00  0.00    +0.000 A 
ATOM     33  C   UNL     1       1.506 -12.125   3.367  0.00  0.00    +0.000 A 
ATOM     34  C   UNL     1       1.161 -10.889   2.837  0.00  0.00    +0.000 A 
ATOM     35  F   UNL     1      -0.037 -10.364   3.126  0.00  0.00    +0.000 F 
ENDBRANCH  28  29
ENDBRANCH  27  28
ENDBRANCH  24  27
ENDBRANCH  20  21
ENDBRANCH   3  20
TORSDOF 6
