REMARK  Name = 
REMARK  5 active torsions:
REMARK  status: ('A' for Active; 'I' for Inactive)
REMARK    1  A    between atoms: C_2  and  C_3
REMARK    2  A    between atoms: C_6  and  N_7
REMARK    3  A    between atoms: N_7  and  C_8
REMARK    4  A    between atoms: C_8  and  C_9
REMARK    5  A    between atoms: C_9  and  C_10
REMARK                            x       y       z     vdW  Elec       q    Type
REMARK                         _______ _______ _______ _____ _____    ______ ____
ROOT
ATOM      1  N   UNL     1       3.722  -0.048   0.182  0.00  0.00    +0.000 N 
ATOM      2  H   UNL     1       4.225   0.821   0.034  0.00  0.00    +0.000 HD
ENDROOT
BRANCH   1   6
ATOM      3  C   UNL     1      -0.487   0.063  -0.063  0.00  0.00    +0.000 A 
ATOM      4  C   UNL     1       0.148  -1.012   0.559  0.00  0.00    +0.000 A 
ATOM      5  C   UNL     1       1.547  -1.059   0.629  0.00  0.00    +0.000 A 
ATOM      6  C   UNL     1       2.339  -0.027   0.116  0.00  0.00    +0.000 A 
ATOM      7  C   UNL     1       1.687   1.030  -0.530  0.00  0.00    +0.000 A 
ATOM      8  C   UNL     1       0.285   1.079  -0.624  0.00  0.00    +0.000 A 
BRANCH   3  10
ATOM      9  N   UNL     1      -3.076   0.164  -0.157  0.00  0.00    +0.000 NA
ATOM     10  C   UNL     1      -1.921   0.116  -0.113  0.00  0.00    +0.000 C 
ENDBRANCH   3  10
ENDBRANCH   1   6
BRANCH   1  11
ATOM     11  C   UNL     1       4.478  -1.296   0.236  0.00  0.00    +0.000 C 
BRANCH  11  12
ATOM     12  C   UNL     1       5.984  -1.038   0.323  0.00  0.00    +0.000 C 
BRANCH  12  13
ATOM     13  C   UNL     1       6.785  -2.319   0.357  0.00  0.00    +0.000 A 
ATOM     14  C   UNL     1       7.188  -2.936  -0.835  0.00  0.00    +0.000 A 
ATOM     15  C   UNL     1       7.961  -4.099  -0.806  0.00  0.00    +0.000 A 
ATOM     16  C   UNL     1       8.335  -4.659   0.413  0.00  0.00    +0.000 A 
ATOM     17  C   UNL     1       7.916  -4.071   1.605  0.00  0.00    +0.000 A 
ATOM     18  C   UNL     1       7.135  -2.912   1.579  0.00  0.00    +0.000 A 
ENDBRANCH  12  13
ENDBRANCH  11  12
ENDBRANCH   1  11
TORSDOF 5
