REMARK  Name = 
REMARK  7 active torsions:
REMARK  status: ('A' for Active; 'I' for Inactive)
REMARK    1  A    between atoms: C_2  and  C_3
REMARK    2  A    between atoms: C_7  and  N_8
REMARK    3  A    between atoms: N_8  and  C_9
REMARK    4  A    between atoms: C_9  and  C_10
REMARK    5  A    between atoms: C_13  and  C_14
REMARK    6  A    between atoms: C_14  and  N_15
REMARK    7  A    between atoms: C_16  and  C_18
REMARK                            x       y       z     vdW  Elec       q    Type
REMARK                         _______ _______ _______ _____ _____    ______ ____
ROOT
ATOM      1  C   UNL     1       4.314   3.921   0.072  0.00  0.00    +0.000 A 
ATOM      2  C   UNL     1       5.679   4.186   0.047  0.00  0.00    +0.000 A 
ATOM      3  N   UNL     1       6.185   5.442   0.044  0.00  0.00    +0.000 NA
ATOM      4  C   UNL     1       5.275   6.450   0.074  0.00  0.00    +0.000 A 
ATOM      5  C   UNL     1       3.909   6.187   0.102  0.00  0.00    +0.000 A 
ATOM      6  N   UNL     1       3.404   4.928   0.116  0.00  0.00    +0.000 NA
ENDROOT
BRANCH   1   7
ATOM      7  C   UNL     1       3.815   2.493   0.072  0.00  0.00    +0.000 C 
BRANCH   7   8
ATOM      8  N   UNL     1       3.863   1.919   1.417  0.00  0.00    +0.000 N 
ATOM      9  H   UNL     1       3.742   2.613   2.152  0.00  0.00    +0.000 HD
BRANCH   8  14
ATOM     10  C   UNL     1       2.601  -0.970   3.367  0.00  0.00    +0.000 A 
ATOM     11  C   UNL     1       2.254  -1.869   2.359  0.00  0.00    +0.000 A 
ATOM     12  C   UNL     1       2.396  -1.498   1.028  0.00  0.00    +0.000 A 
ATOM     13  C   UNL     1       2.892  -0.230   0.698  0.00  0.00    +0.000 A 
ATOM     14  C   UNL     1       3.239   0.697   1.690  0.00  0.00    +0.000 A 
ATOM     15  C   UNL     1       3.095   0.302   3.027  0.00  0.00    +0.000 A 
BRANCH  10  17
ATOM     16  N   UNL     1       2.369  -1.638   5.862  0.00  0.00    +0.000 NA
ATOM     17  C   UNL     1       2.471  -1.342   4.748  0.00  0.00    +0.000 C 
ENDBRANCH  10  17
ENDBRANCH   8  14
ENDBRANCH   7   8
ENDBRANCH   1   7
BRANCH   4  18
ATOM     18  C   UNL     1       5.787   7.864   0.041  0.00  0.00    +0.000 C 
BRANCH  18  19
ATOM     19  N   UNL     1       5.920   8.367  -1.309  0.00  0.00    +0.000 N 
ATOM     20  C   UNL     1       4.916   9.072  -1.919  0.00  0.00    +0.000 C 
ATOM     21  O   UNL     1       3.868   9.339  -1.335  0.00  0.00    +0.000 OA
ATOM     22  H   UNL     1       6.659   7.953  -1.872  0.00  0.00    +0.000 HD
BRANCH  20  23
ATOM     23  C   UNL     1       5.177   9.550  -3.280  0.00  0.00    +0.000 A 
ATOM     24  C   UNL     1       4.512  10.675  -3.750  0.00  0.00    +0.000 A 
ATOM     25  S   UNL     1       4.955  11.119  -5.335  0.00  0.00    +0.000 S 
ATOM     26  C   UNL     1       6.016   9.796  -5.468  0.00  0.00    +0.000 A 
ATOM     27  N   UNL     1       6.713   9.571  -6.614  0.00  0.00    +0.000 NA
ATOM     28  C   UNL     1       7.452   8.512  -6.589  0.00  0.00    +0.000 A 
ATOM     29  N   UNL     1       7.563   7.663  -5.519  0.00  0.00    +0.000 N 
ATOM     30  C   UNL     1       6.919   7.879  -4.323  0.00  0.00    +0.000 A 
ATOM     31  O   UNL     1       7.104   7.151  -3.355  0.00  0.00    +0.000 OA
ATOM     32  C   UNL     1       6.050   9.040  -4.310  0.00  0.00    +0.000 A 
ATOM     33  H   UNL     1       8.176   6.862  -5.557  0.00  0.00    +0.000 HD
ENDBRANCH  20  23
ENDBRANCH  18  19
ENDBRANCH   4  18
TORSDOF 7
