REMARK  Name = 
REMARK  9 active torsions:
REMARK  status: ('A' for Active; 'I' for Inactive)
REMARK    1  A    between atoms: C_1  and  O_2
REMARK    2  A    between atoms: O_2  and  C_3
REMARK    3  A    between atoms: C_10  and  C_11
REMARK    4  A    between atoms: N_13  and  C_14
REMARK    5  A    between atoms: C_14  and  C_15
REMARK    6  A    between atoms: C_18  and  O_19
REMARK    7  A    between atoms: O_19  and  C_20
REMARK    8  A    between atoms: C_20  and  C_21
REMARK    9  A    between atoms: C_21  and  C_24
REMARK                            x       y       z     vdW  Elec       q    Type
REMARK                         _______ _______ _______ _____ _____    ______ ____
ROOT
ATOM      1  C   UNL     1       1.606  -0.429  -3.137  0.00  0.00    +0.000 A 
ATOM      2  C   UNL     1       1.762  -1.820  -3.192  0.00  0.00    +0.000 A 
ATOM      3  C   UNL     1       0.659  -2.672  -3.060  0.00  0.00    +0.000 A 
ATOM      4  C   UNL     1      -0.620  -2.146  -2.880  0.00  0.00    +0.000 A 
ATOM      5  C   UNL     1      -0.784  -0.758  -2.857  0.00  0.00    +0.000 A 
ATOM      6  C   UNL     1       0.317   0.096  -2.989  0.00  0.00    +0.000 A 
ENDROOT
BRANCH   1   7
ATOM      7  C   UNL     1       2.809   0.471  -3.261  0.00  0.00    +0.000 C 
BRANCH   7  10
ATOM      8  C   UNL     1       4.383   1.026  -5.074  0.00  0.00    +0.000 C 
ATOM      9  O   UNL     1       5.336   1.043  -4.297  0.00  0.00    +0.000 OA
ATOM     10  N   UNL     1       3.120   0.725  -4.646  0.00  0.00    +0.000 N 
ATOM     11  H   UNL     1       2.338   0.867  -5.271  0.00  0.00    +0.000 HD
BRANCH   8  19
ATOM     12  C   UNL     1       2.219   1.205  -7.748  0.00  0.00    +0.000 A 
ATOM     13  N   UNL     1       1.619   1.289  -8.952  0.00  0.00    +0.000 NA
ATOM     14  C   UNL     1       2.386   1.524 -10.021  0.00  0.00    +0.000 A 
ATOM     15  N   UNL     1       3.705   1.699 -10.038  0.00  0.00    +0.000 NA
ATOM     16  C   UNL     1       4.262   1.610  -8.819  0.00  0.00    +0.000 A 
ATOM     17  S   UNL     1       5.938   1.822  -8.650  0.00  0.00    +0.000 S 
ATOM     18  C   UNL     1       5.850   1.565  -6.973  0.00  0.00    +0.000 A 
ATOM     19  C   UNL     1       4.564   1.311  -6.508  0.00  0.00    +0.000 A 
ATOM     20  C   UNL     1       3.611   1.360  -7.615  0.00  0.00    +0.000 A 
BRANCH  12  22
ATOM     21  C   UNL     1       0.177   0.404  -6.930  0.00  0.00    +0.000 C 
ATOM     22  O   UNL     1       1.419   1.040  -6.636  0.00  0.00    +0.000 OA
ENDBRANCH  12  22
ENDBRANCH   8  19
ENDBRANCH   7  10
ENDBRANCH   1   7
BRANCH   4  23
ATOM     23  O   UNL     1      -1.771  -2.869  -2.721  0.00  0.00    +0.000 OA
BRANCH  23  24
ATOM     24  C   UNL     1      -1.635  -4.298  -2.665  0.00  0.00    +0.000 C 
BRANCH  24  25
ATOM     25  C   UNL     1      -2.988  -4.979  -2.415  0.00  0.00    +0.000 C 
ATOM     26  F   UNL     1      -3.833  -4.640  -3.442  0.00  0.00    +0.000 F 
ATOM     27  F   UNL     1      -2.801  -6.330  -2.565  0.00  0.00    +0.000 F 
BRANCH  25  28
ATOM     28  C   UNL     1      -3.549  -4.638  -1.043  0.00  0.00    +0.000 A 
ATOM     29  C   UNL     1      -4.806  -4.044  -0.931  0.00  0.00    +0.000 A 
ATOM     30  C   UNL     1      -5.302  -3.740   0.334  0.00  0.00    +0.000 A 
ATOM     31  C   UNL     1      -4.540  -4.039   1.456  0.00  0.00    +0.000 A 
ATOM     32  C   UNL     1      -3.307  -4.638   1.268  0.00  0.00    +0.000 A 
ATOM     33  N   UNL     1      -2.799  -4.945   0.054  0.00  0.00    +0.000 NA
ENDBRANCH  25  28
ENDBRANCH  24  25
ENDBRANCH  23  24
ENDBRANCH   4  23
TORSDOF 8
