REMARK  Name = 
REMARK  7 active torsions:
REMARK  status: ('A' for Active; 'I' for Inactive)
REMARK    1  A    between atoms: N_1  and  C_2
REMARK    2  A    between atoms: C_2  and  C_3
REMARK    3  A    between atoms: C_6  and  S_7
REMARK    4  A    between atoms: S_7  and  C_8
REMARK    5  A    between atoms: C_8  and  C_9
REMARK    6  A    between atoms: C_9  and  C_10
REMARK    7  A    between atoms: C_13  and  C_14
REMARK                            x       y       z     vdW  Elec       q    Type
REMARK                         _______ _______ _______ _____ _____    ______ ____
ROOT
ATOM      1  C   UNL     1       4.885  -5.043   4.004  0.00  0.00    +0.000 C 
ENDROOT
BRANCH   1   2
ATOM      2  S   UNL     1       3.901  -5.362   2.492  0.00  0.00    +0.000 S 
BRANCH   2   6
ATOM      3  C   UNL     1       3.509  -1.100   0.958  0.00  0.00    +0.000 A 
ATOM      4  C   UNL     1       2.922  -2.143   0.238  0.00  0.00    +0.000 A 
ATOM      5  C   UNL     1       3.032  -3.455   0.701  0.00  0.00    +0.000 A 
ATOM      6  C   UNL     1       3.731  -3.694   1.878  0.00  0.00    +0.000 A 
ATOM      7  N   UNL     1       4.306  -2.701   2.591  0.00  0.00    +0.000 NA
ATOM      8  C   UNL     1       4.185  -1.441   2.121  0.00  0.00    +0.000 A 
BRANCH   3   9
ATOM      9  C   UNL     1       3.448   0.328   0.497  0.00  0.00    +0.000 C 
BRANCH   9  10
ATOM     10  N   UNL     1       2.076   0.811   0.403  0.00  0.00    +0.000 NA
ATOM     11  H   UNL     1       2.088   1.805   0.181  0.00  0.00    +0.000 HD
ATOM     12  H   UNL     1       1.629   0.731   1.316  0.00  0.00    +0.000 HD
ENDBRANCH   9  10
ENDBRANCH   3   9
ENDBRANCH   2   6
ENDBRANCH   1   2
BRANCH   1  13
ATOM     13  C   UNL     1       5.201  -6.349   4.732  0.00  0.00    +0.000 C 
BRANCH  13  14
ATOM     14  C   UNL     1       6.030  -6.112   5.976  0.00  0.00    +0.000 A 
ATOM     15  C   UNL     1       5.412  -5.875   7.211  0.00  0.00    +0.000 A 
ATOM     16  C   UNL     1       6.179  -5.663   8.361  0.00  0.00    +0.000 A 
ATOM     17  C   UNL     1       7.580  -5.678   8.298  0.00  0.00    +0.000 A 
ATOM     18  C   UNL     1       8.196  -5.900   7.058  0.00  0.00    +0.000 A 
ATOM     19  C   UNL     1       7.429  -6.112   5.908  0.00  0.00    +0.000 A 
BRANCH  17  20
ATOM     20  C   UNL     1       8.422  -5.465   9.532  0.00  0.00    +0.000 C 
ATOM     21  F   UNL     1       7.692  -5.258  10.665  0.00  0.00    +0.000 F 
ATOM     22  F   UNL     1       9.231  -6.528   9.802  0.00  0.00    +0.000 F 
ATOM     23  F   UNL     1       9.249  -4.387   9.422  0.00  0.00    +0.000 F 
ENDBRANCH  17  20
ENDBRANCH  13  14
ENDBRANCH   1  13
TORSDOF 7
