REMARK  Name = 
REMARK  8 active torsions:
REMARK  status: ('A' for Active; 'I' for Inactive)
REMARK    1  A    between atoms: C_1  and  O_2
REMARK    2  A    between atoms: O_2  and  C_3
REMARK    3  A    between atoms: C_5  and  C_6
REMARK    4  A    between atoms: C_6  and  N_7
REMARK    5  A    between atoms: C_8  and  C_10
REMARK    6  A    between atoms: C_17  and  C_18
REMARK    7  A    between atoms: C_18  and  N_19
REMARK    8  A    between atoms: C_20  and  C_22
REMARK                            x       y       z     vdW  Elec       q    Type
REMARK                         _______ _______ _______ _____ _____    ______ ____
ROOT
ATOM      1  C   UNL     1       3.073  -1.057  -0.677  0.00  0.00    +0.000 A 
ATOM      2  C   UNL     1       2.830  -1.442  -2.006  0.00  0.00    +0.000 A 
ATOM      3  C   UNL     1       3.609  -2.428  -2.633  0.00  0.00    +0.000 A 
ATOM      4  C   UNL     1       4.638  -3.032  -1.906  0.00  0.00    +0.000 A 
ATOM      5  C   UNL     1       4.890  -2.651  -0.585  0.00  0.00    +0.000 A 
ATOM      6  C   UNL     1       4.118  -1.660   0.045  0.00  0.00    +0.000 A 
ENDROOT
BRANCH   1   8
ATOM      7  C   UNL     1       1.064   0.203  -0.552  0.00  0.00    +0.000 C 
ATOM      8  O   UNL     1       2.358  -0.082  -0.029  0.00  0.00    +0.000 OA
ENDBRANCH   1   8
BRANCH   3   9
ATOM      9  C   UNL     1       3.308  -2.853  -4.049  0.00  0.00    +0.000 C 
BRANCH   9  10
ATOM     10  N   UNL     1       2.380  -3.958  -4.076  0.00  0.00    +0.000 N 
ATOM     11  C   UNL     1       1.930  -4.493  -5.263  0.00  0.00    +0.000 C 
ATOM     12  O   UNL     1       2.256  -4.040  -6.354  0.00  0.00    +0.000 OA
ATOM     13  H   UNL     1       2.151  -4.412  -3.206  0.00  0.00    +0.000 HD
BRANCH  11  14
ATOM     14  C   UNL     1       1.053  -5.639  -5.122  0.00  0.00    +0.000 A 
ATOM     15  C   UNL     1       0.535  -6.285  -4.007  0.00  0.00    +0.000 A 
ATOM     16  C   UNL     1      -0.271  -7.362  -4.451  0.00  0.00    +0.000 A 
ATOM     17  C   UNL     1      -0.235  -7.357  -5.825  0.00  0.00    +0.000 A 
ATOM     18  N   UNL     1       0.561  -6.316  -6.221  0.00  0.00    +0.000 N 
ATOM     19  H   UNL     1       0.774  -6.062  -7.179  0.00  0.00    +0.000 HD
ENDBRANCH  11  14
ENDBRANCH   9  10
ENDBRANCH   3   9
BRANCH   6  20
ATOM     20  C   UNL     1       4.405  -1.333   1.495  0.00  0.00    +0.000 C 
BRANCH  20  21
ATOM     21  N   UNL     1       3.644  -2.195   2.378  0.00  0.00    +0.000 N 
ATOM     22  C   UNL     1       4.070  -2.525   3.639  0.00  0.00    +0.000 C 
ATOM     23  O   UNL     1       5.195  -2.255   4.048  0.00  0.00    +0.000 OA
ATOM     24  H   UNL     1       2.655  -2.250   2.168  0.00  0.00    +0.000 HD
BRANCH  22  25
ATOM     25  C   UNL     1       3.114  -3.270   4.474  0.00  0.00    +0.000 A 
ATOM     26  C   UNL     1       3.575  -4.130   5.462  0.00  0.00    +0.000 A 
ATOM     27  S   UNL     1       2.326  -4.894   6.339  0.00  0.00    +0.000 S 
ATOM     28  C   UNL     1       1.127  -4.072   5.454  0.00  0.00    +0.000 A 
ATOM     29  N   UNL     1      -0.193  -4.244   5.735  0.00  0.00    +0.000 NA
ATOM     30  C   UNL     1      -0.989  -3.529   5.013  0.00  0.00    +0.000 A 
ATOM     31  N   UNL     1      -0.586  -2.668   4.026  0.00  0.00    +0.000 N 
ATOM     32  C   UNL     1       0.731  -2.511   3.664  0.00  0.00    +0.000 A 
ATOM     33  O   UNL     1       1.046  -1.820   2.702  0.00  0.00    +0.000 OA
ATOM     34  C   UNL     1       1.672  -3.256   4.478  0.00  0.00    +0.000 A 
ATOM     35  H   UNL     1      -1.261  -2.159   3.475  0.00  0.00    +0.000 HD
ENDBRANCH  22  25
ENDBRANCH  20  21
ENDBRANCH   6  20
TORSDOF 7
