REMARK  Name = 
REMARK  3 active torsions:
REMARK  status: ('A' for Active; 'I' for Inactive)
REMARK    1  A    between atoms: C_2  and  C_4
REMARK    2  A    between atoms: N_8  and  C_9
REMARK    3  A    between atoms: C_9  and  C_10
REMARK                            x       y       z     vdW  Elec       q    Type
REMARK                         _______ _______ _______ _____ _____    ______ ____
ROOT
ATOM      1  C   UNL     1       2.465   1.316  -3.745  0.00  0.00    +0.000 A 
ATOM      2  C   UNL     1       1.848   2.428  -3.180  0.00  0.00    +0.000 A 
ATOM      3  C   UNL     1       2.638   3.456  -2.655  0.00  0.00    +0.000 A 
ATOM      4  C   UNL     1       4.021   3.351  -2.694  0.00  0.00    +0.000 A 
ATOM      5  N   UNL     1       4.874   4.293  -2.122  0.00  0.00    +0.000 N 
ATOM      6  N   UNL     1       4.628   2.264  -3.218  0.00  0.00    +0.000 NA
ATOM      7  C   UNL     1       3.846   1.270  -3.725  0.00  0.00    +0.000 A 
ATOM      8  H   UNL     1       5.827   3.993  -2.334  0.00  0.00    +0.000 HD
ENDROOT
BRANCH   1  10
ATOM      9  N   UNL     1       0.459   0.453  -4.809  0.00  0.00    +0.000 N 
ATOM     10  C   UNL     1       1.716   0.189  -4.333  0.00  0.00    +0.000 C 
ATOM     11  O   UNL     1       2.202  -0.927  -4.429  0.00  0.00    +0.000 OA
ATOM     12  H   UNL     1      -0.000  -0.301  -5.299  0.00  0.00    +0.000 HD
ATOM     13  H   UNL     1       0.125   1.394  -4.970  0.00  0.00    +0.000 HD
ENDBRANCH   1  10
BRANCH   5  14
ATOM     14  C   UNL     1       4.666   5.756  -2.134  0.00  0.00    +0.000 C 
ATOM     15  C   UNL     1       4.972   6.410  -0.787  0.00  0.00    +0.000 C 
ATOM     16  C   UNL     1       3.590   6.483  -1.340  0.00  0.00    +0.000 C 
BRANCH  14  17
ATOM     17  C   UNL     1       5.144   6.481  -3.406  0.00  0.00    +0.000 A 
ATOM     18  C   UNL     1       4.263   6.682  -4.474  0.00  0.00    +0.000 A 
ATOM     19  C   UNL     1       4.642   7.483  -5.549  0.00  0.00    +0.000 A 
ATOM     20  C   UNL     1       5.905   8.054  -5.554  0.00  0.00    +0.000 A 
ATOM     21  C   UNL     1       6.745   7.778  -4.490  0.00  0.00    +0.000 A 
ATOM     22  N   UNL     1       6.397   7.011  -3.432  0.00  0.00    +0.000 NA
ENDBRANCH  14  17
ENDBRANCH   5  14
TORSDOF 3
