REMARK  Name = 
REMARK  6 active torsions:
REMARK  status: ('A' for Active; 'I' for Inactive)
REMARK    1  A    between atoms: C_1  and  C_2
REMARK    2  A    between atoms: C_2  and  N_3
REMARK    3  A    between atoms: C_2  and  C_16
REMARK    4  A    between atoms: C_4  and  C_6
REMARK    5  A    between atoms: C_19  and  C_20
REMARK    6  A    between atoms: C_20  and  N_21
REMARK                            x       y       z     vdW  Elec       q    Type
REMARK                         _______ _______ _______ _____ _____    ______ ____
ROOT
ATOM      1  C   UNL     1       2.610  -0.878  -1.364  0.00  0.00    +0.000 C 
ATOM      2  C   UNL     1       2.498   0.016  -0.121  0.00  0.00    +0.000 C 
ENDROOT
BRANCH   2   3
ATOM      3  C   UNL     1       3.012   1.435  -0.351  0.00  0.00    +0.000 A 
ATOM      4  C   UNL     1       2.141   2.519  -0.166  0.00  0.00    +0.000 A 
ATOM      5  C   UNL     1       2.570   3.844  -0.347  0.00  0.00    +0.000 A 
ATOM      6  C   UNL     1       3.885   4.131  -0.739  0.00  0.00    +0.000 A 
ATOM      7  C   UNL     1       4.767   3.051  -0.901  0.00  0.00    +0.000 A 
ATOM      8  C   UNL     1       4.338   1.723  -0.712  0.00  0.00    +0.000 A 
BRANCH   6   9
ATOM      9  C   UNL     1       4.325   5.558  -1.012  0.00  0.00    +0.000 C 
BRANCH   9  10
ATOM     10  N   UNL     1       4.806   6.240   0.170  0.00  0.00    +0.000 N 
ATOM     11  C   UNL     1       5.284   7.532   0.078  0.00  0.00    +0.000 C 
ATOM     12  O   UNL     1       5.379   8.134  -0.983  0.00  0.00    +0.000 OA
ATOM     13  N   UNL     1       5.650   8.079   1.293  0.00  0.00    +0.000 N 
ATOM     14  C   UNL     1       5.699   7.433   2.589  0.00  0.00    +0.000 C 
ATOM     15  C   UNL     1       5.552   8.591   3.557  0.00  0.00    +0.000 C 
ATOM     16  C   UNL     1       6.335   9.711   2.881  0.00  0.00    +0.000 C 
ATOM     17  C   UNL     1       6.216   9.420   1.383  0.00  0.00    +0.000 C 
ATOM     18  H   UNL     1       4.266   6.067   0.997  0.00  0.00    +0.000 HD
ENDBRANCH   9  10
ENDBRANCH   6   9
ENDBRANCH   2   3
BRANCH   2  19
ATOM     19  N   UNL     1       3.165  -0.577   1.023  0.00  0.00    +0.000 N 
ATOM     20  C   UNL     1       2.574  -1.532   1.816  0.00  0.00    +0.000 C 
ATOM     21  O   UNL     1       1.386  -1.825   1.736  0.00  0.00    +0.000 OA
ATOM     22  H   UNL     1       4.165  -0.444   1.077  0.00  0.00    +0.000 HD
BRANCH  20  23
ATOM     23  C   UNL     1       3.453  -2.153   2.811  0.00  0.00    +0.000 A 
ATOM     24  C   UNL     1       2.958  -2.576   4.037  0.00  0.00    +0.000 A 
ATOM     25  S   UNL     1       4.155  -3.267   5.042  0.00  0.00    +0.000 S 
ATOM     26  C   UNL     1       5.367  -3.021   3.873  0.00  0.00    +0.000 A 
ATOM     27  N   UNL     1       6.658  -3.373   4.105  0.00  0.00    +0.000 NA
ATOM     28  C   UNL     1       7.463  -3.115   3.126  0.00  0.00    +0.000 A 
ATOM     29  N   UNL     1       7.094  -2.549   1.937  0.00  0.00    +0.000 N 
ATOM     30  C   UNL     1       5.800  -2.199   1.649  0.00  0.00    +0.000 A 
ATOM     31  O   UNL     1       5.511  -1.688   0.566  0.00  0.00    +0.000 OA
ATOM     32  C   UNL     1       4.859  -2.433   2.721  0.00  0.00    +0.000 A 
ATOM     33  H   UNL     1       7.771  -2.360   1.218  0.00  0.00    +0.000 HD
ENDBRANCH  20  23
ENDBRANCH   2  19
TORSDOF 5
