REMARK  Name = 
REMARK  8 active torsions:
REMARK  status: ('A' for Active; 'I' for Inactive)
REMARK    1  A    between atoms: C_1  and  O_2
REMARK    2  A    between atoms: O_2  and  C_3
REMARK    3  A    between atoms: C_10  and  C_11
REMARK    4  A    between atoms: N_13  and  C_14
REMARK    5  A    between atoms: C_14  and  C_15
REMARK    6  A    between atoms: C_18  and  N_19
REMARK    7  A    between atoms: N_19  and  C_20
REMARK    8  A    between atoms: C_20  and  C_21
REMARK                            x       y       z     vdW  Elec       q    Type
REMARK                         _______ _______ _______ _____ _____    ______ ____
ROOT
ATOM      1  C   UNL     1       2.611   3.313  -0.840  0.00  0.00    +0.000 C 
ENDROOT
BRANCH   1   2
ATOM      2  C   UNL     1       1.373   2.898  -1.596  0.00  0.00    +0.000 A 
ATOM      3  C   UNL     1       1.229   1.592  -2.080  0.00  0.00    +0.000 A 
ATOM      4  C   UNL     1       0.017   1.166  -2.643  0.00  0.00    +0.000 A 
ATOM      5  C   UNL     1      -1.077   2.031  -2.733  0.00  0.00    +0.000 A 
ATOM      6  C   UNL     1      -0.876   3.373  -2.388  0.00  0.00    +0.000 A 
ATOM      7  C   UNL     1       0.327   3.802  -1.811  0.00  0.00    +0.000 A 
BRANCH   5   8
ATOM      8  N   UNL     1      -2.348   1.649  -3.173  0.00  0.00    +0.000 N 
ATOM      9  H   UNL     1      -2.534   1.979  -4.117  0.00  0.00    +0.000 HD
BRANCH   8  10
ATOM     10  C   UNL     1      -2.781   0.272  -2.962  0.00  0.00    +0.000 C 
BRANCH  10  11
ATOM     11  C   UNL     1      -4.282   0.222  -2.773  0.00  0.00    +0.000 A 
ATOM     12  C   UNL     1      -5.095  -0.569  -3.586  0.00  0.00    +0.000 A 
ATOM     13  C   UNL     1      -6.454  -0.632  -3.310  0.00  0.00    +0.000 A 
ATOM     14  N   UNL     1      -7.049   0.029  -2.294  0.00  0.00    +0.000 NA
ATOM     15  C   UNL     1      -6.248   0.791  -1.521  0.00  0.00    +0.000 A 
ATOM     16  C   UNL     1      -4.881   0.918  -1.718  0.00  0.00    +0.000 A 
ENDBRANCH  10  11
ENDBRANCH   8  10
ENDBRANCH   5   8
ENDBRANCH   1   2
BRANCH   1  19
ATOM     17  C   UNL     1       4.821   4.314  -1.232  0.00  0.00    +0.000 C 
ATOM     18  O   UNL     1       5.112   4.233  -0.039  0.00  0.00    +0.000 OA
ATOM     19  N   UNL     1       3.612   3.877  -1.705  0.00  0.00    +0.000 N 
ATOM     20  H   UNL     1       3.387   3.962  -2.683  0.00  0.00    +0.000 HD
BRANCH  17  28
ATOM     21  C   UNL     1       4.712   4.724  -4.645  0.00  0.00    +0.000 A 
ATOM     22  N   UNL     1       4.900   5.049  -5.938  0.00  0.00    +0.000 NA
ATOM     23  C   UNL     1       6.035   5.672  -6.269  0.00  0.00    +0.000 A 
ATOM     24  N   UNL     1       7.032   6.009  -5.452  0.00  0.00    +0.000 NA
ATOM     25  C   UNL     1       6.796   5.679  -4.172  0.00  0.00    +0.000 A 
ATOM     26  S   UNL     1       7.963   6.024  -2.988  0.00  0.00    +0.000 S 
ATOM     27  C   UNL     1       6.984   5.370  -1.761  0.00  0.00    +0.000 A 
ATOM     28  C   UNL     1       5.762   4.887  -2.214  0.00  0.00    +0.000 A 
ATOM     29  C   UNL     1       5.662   5.052  -3.662  0.00  0.00    +0.000 A 
BRANCH  21  31
ATOM     30  C   UNL     1       2.962   3.349  -5.372  0.00  0.00    +0.000 C 
ATOM     31  O   UNL     1       3.541   4.086  -4.299  0.00  0.00    +0.000 OA
ENDBRANCH  21  31
ENDBRANCH  17  28
ENDBRANCH   1  19
TORSDOF 7
