REMARK  Name = 
REMARK  7 active torsions:
REMARK  status: ('A' for Active; 'I' for Inactive)
REMARK    1  A    between atoms: C_2  and  C_20
REMARK    2  A    between atoms: N_3  and  C_4
REMARK    3  A    between atoms: C_4  and  C_5
REMARK    4  A    between atoms: C_8  and  C_9
REMARK    5  A    between atoms: C_9  and  N_10
REMARK    6  A    between atoms: N_10  and  C_11
REMARK    7  A    between atoms: C_11  and  C_12
REMARK                            x       y       z     vdW  Elec       q    Type
REMARK                         _______ _______ _______ _____ _____    ______ ____
ROOT
ATOM      1  C   UNL     1       2.766  -1.698  -4.550  0.00  0.00    +0.000 C 
ENDROOT
BRANCH   1   2
ATOM      2  C   UNL     1       3.323  -1.996  -3.147  0.00  0.00    +0.000 C 
ATOM      3  C   UNL     1       3.412  -3.499  -2.834  0.00  0.00    +0.000 C 
ATOM      4  C   UNL     1       4.454  -4.223  -3.686  0.00  0.00    +0.000 C 
ATOM      5  C   UNL     1       5.841  -3.566  -3.595  0.00  0.00    +0.000 C 
ATOM      6  C   UNL     1       5.768  -2.046  -3.847  0.00  0.00    +0.000 C 
ATOM      7  C   UNL     1       4.710  -1.362  -2.984  0.00  0.00    +0.000 C 
BRANCH   5   8
ATOM      8  C   UNL     1       6.814  -4.254  -4.575  0.00  0.00    +0.000 C 
BRANCH   8   9
ATOM      9  N   UNL     1       8.142  -3.662  -4.467  0.00  0.00    +0.000 NA
ATOM     10  H   UNL     1       8.501  -3.774  -3.519  0.00  0.00    +0.000 HD
BRANCH   9  11
ATOM     11  C   UNL     1       9.090  -4.237  -5.415  0.00  0.00    +0.000 C 
BRANCH  11  12
ATOM     12  C   UNL     1      10.431  -3.561  -5.276  0.00  0.00    +0.000 A 
ATOM     13  C   UNL     1      11.571  -4.284  -4.919  0.00  0.00    +0.000 A 
ATOM     14  C   UNL     1      12.773  -3.604  -4.787  0.00  0.00    +0.000 A 
ATOM     15  N   UNL     1      12.915  -2.276  -4.984  0.00  0.00    +0.000 NA
ATOM     16  C   UNL     1      11.802  -1.595  -5.329  0.00  0.00    +0.000 A 
ATOM     17  C   UNL     1      10.559  -2.183  -5.489  0.00  0.00    +0.000 A 
ENDBRANCH  11  12
ENDBRANCH   9  11
ENDBRANCH   8   9
ENDBRANCH   5   8
ENDBRANCH   1   2
BRANCH   1  20
ATOM     18  O   UNL     1       0.373  -0.410  -3.790  0.00  0.00    +0.000 OA
ATOM     19  C   UNL     1       0.309  -1.490  -4.369  0.00  0.00    +0.000 C 
ATOM     20  N   UNL     1       1.425  -2.195  -4.735  0.00  0.00    +0.000 N 
ATOM     21  H   UNL     1       1.328  -3.035  -5.296  0.00  0.00    +0.000 HD
BRANCH  19  22
ATOM     22  C   UNL     1      -0.978  -2.121  -4.681  0.00  0.00    +0.000 A 
ATOM     23  C   UNL     1      -2.119  -1.736  -3.989  0.00  0.00    +0.000 A 
ATOM     24  S   UNL     1      -3.522  -2.579  -4.465  0.00  0.00    +0.000 S 
ATOM     25  C   UNL     1      -2.665  -3.458  -5.643  0.00  0.00    +0.000 A 
ATOM     26  N   UNL     1      -3.298  -4.358  -6.442  0.00  0.00    +0.000 NA
ATOM     27  C   UNL     1      -2.536  -4.925  -7.317  0.00  0.00    +0.000 A 
ATOM     28  N   UNL     1      -1.195  -4.682  -7.460  0.00  0.00    +0.000 N 
ATOM     29  C   UNL     1      -0.501  -3.831  -6.634  0.00  0.00    +0.000 A 
ATOM     30  O   UNL     1       0.718  -3.724  -6.721  0.00  0.00    +0.000 OA
ATOM     31  C   UNL     1      -1.319  -3.134  -5.657  0.00  0.00    +0.000 A 
ATOM     32  H   UNL     1      -0.649  -5.177  -8.148  0.00  0.00    +0.000 HD
ENDBRANCH  19  22
ENDBRANCH   1  20
TORSDOF 7
