REMARK  Name = 
REMARK  4 active torsions:
REMARK  status: ('A' for Active; 'I' for Inactive)
REMARK    1  A    between atoms: C_2  and  C_4
REMARK    2  A    between atoms: N_8  and  C_9
REMARK    3  A    between atoms: C_9  and  C_10
REMARK    4  A    between atoms: C_15  and  C_16
REMARK                            x       y       z     vdW  Elec       q    Type
REMARK                         _______ _______ _______ _____ _____    ______ ____
ROOT
ATOM      1  C   UNL     1       6.072   4.395   5.718  0.00  0.00    +0.000 A 
ATOM      2  C   UNL     1       5.878   5.780   5.695  0.00  0.00    +0.000 A 
ATOM      3  C   UNL     1       6.743   6.616   6.397  0.00  0.00    +0.000 A 
ATOM      4  C   UNL     1       7.805   6.074   7.120  0.00  0.00    +0.000 A 
ATOM      5  F   UNL     1       8.618   6.931   7.757  0.00  0.00    +0.000 F 
ATOM      6  C   UNL     1       8.045   4.691   7.173  0.00  0.00    +0.000 A 
ATOM      7  C   UNL     1       7.150   3.869   6.457  0.00  0.00    +0.000 A 
ENDROOT
BRANCH   6   8
ATOM      8  C   UNL     1       9.179   4.109   7.926  0.00  0.00    +0.000 A 
ATOM      9  C   UNL     1       9.660   4.664   9.108  0.00  0.00    +0.000 A 
ATOM     10  N   UNL     1      10.691   4.149   9.814  0.00  0.00    +0.000 NA
ATOM     11  N   UNL     1      11.303   3.016   9.372  0.00  0.00    +0.000 NA
ATOM     12  C   UNL     1      10.891   2.429   8.235  0.00  0.00    +0.000 A 
ATOM     13  N   UNL     1      11.508   1.241   7.832  0.00  0.00    +0.000 N 
ATOM     14  C   UNL     1       9.838   2.949   7.499  0.00  0.00    +0.000 A 
ATOM     15  H   UNL     1      12.284   1.063   8.466  0.00  0.00    +0.000 HD
ATOM     16  H   UNL     1      11.806   1.275   6.864  0.00  0.00    +0.000 HD
ENDBRANCH   6   8
BRANCH   1  17
ATOM     17  C   UNL     1       5.167   3.474   4.932  0.00  0.00    +0.000 C 
BRANCH  17  22
ATOM     18  C   UNL     1       0.980   3.361   7.882  0.00  0.00    +0.000 A 
ATOM     19  C   UNL     1       1.166   3.985   6.653  0.00  0.00    +0.000 A 
ATOM     20  C   UNL     1       2.339   3.747   5.938  0.00  0.00    +0.000 A 
ATOM     21  C   UNL     1       3.310   2.903   6.465  0.00  0.00    +0.000 A 
ATOM     22  N   UNL     1       4.453   2.541   5.781  0.00  0.00    +0.000 N 
ATOM     23  N   UNL     1       3.146   2.305   7.661  0.00  0.00    +0.000 NA
ATOM     24  C   UNL     1       1.999   2.548   8.349  0.00  0.00    +0.000 A 
ATOM     25  H   UNL     1       5.027   2.000   6.422  0.00  0.00    +0.000 HD
BRANCH  18  27
ATOM     26  N   UNL     1      -1.390   3.870   8.022  0.00  0.00    +0.000 N 
ATOM     27  C   UNL     1      -0.243   3.535   8.691  0.00  0.00    +0.000 C 
ATOM     28  O   UNL     1      -0.244   3.358   9.899  0.00  0.00    +0.000 OA
ATOM     29  H   UNL     1      -2.241   3.891   8.571  0.00  0.00    +0.000 HD
ATOM     30  H   UNL     1      -1.486   3.767   7.022  0.00  0.00    +0.000 HD
ENDBRANCH  18  27
ENDBRANCH  17  22
ENDBRANCH   1  17
TORSDOF 4
