REMARK  Name = 
REMARK  6 active torsions:
REMARK  status: ('A' for Active; 'I' for Inactive)
REMARK    1  A    between atoms: C_2  and  C_4
REMARK    2  A    between atoms: C_7  and  N_8
REMARK    3  A    between atoms: N_8  and  C_9
REMARK    4  A    between atoms: C_9  and  C_10
REMARK    5  A    between atoms: C_10  and  C_13
REMARK    6  A    between atoms: C_17  and  C_18
REMARK                            x       y       z     vdW  Elec       q    Type
REMARK                         _______ _______ _______ _____ _____    ______ ____
ROOT
ATOM      1  C   UNL     1       5.892   0.721   7.153  0.00  0.00    +0.000 C 
ATOM      2  F   UNL     1       7.166   0.354   6.824  0.00  0.00    +0.000 F 
ATOM      3  F   UNL     1       5.915   2.087   7.223  0.00  0.00    +0.000 F 
ENDROOT
BRANCH   1   4
ATOM      4  C   UNL     1       5.437   0.081   8.450  0.00  0.00    +0.000 A 
ATOM      5  C   UNL     1       4.584   0.762   9.325  0.00  0.00    +0.000 A 
ATOM      6  C   UNL     1       4.105   0.128  10.468  0.00  0.00    +0.000 A 
ATOM      7  C   UNL     1       4.460  -1.197  10.734  0.00  0.00    +0.000 A 
ATOM      8  C   UNL     1       5.310  -1.918   9.876  0.00  0.00    +0.000 A 
ATOM      9  C   UNL     1       5.805  -1.246   8.744  0.00  0.00    +0.000 A 
BRANCH   8  10
ATOM     10  C   UNL     1       5.607  -3.343  10.124  0.00  0.00    +0.000 A 
ATOM     11  C   UNL     1       6.816  -3.943   9.772  0.00  0.00    +0.000 A 
ATOM     12  C   UNL     1       6.983  -5.313   9.972  0.00  0.00    +0.000 A 
ATOM     13  C   UNL     1       5.946  -6.052  10.522  0.00  0.00    +0.000 A 
ATOM     14  C   UNL     1       4.782  -5.386  10.859  0.00  0.00    +0.000 A 
ATOM     15  N   UNL     1       4.594  -4.061  10.677  0.00  0.00    +0.000 NA
ENDBRANCH   8  10
ENDBRANCH   1   4
BRANCH   1  16
ATOM     16  C   UNL     1       4.930   0.309   6.008  0.00  0.00    +0.000 C 
BRANCH  16  17
ATOM     17  N   UNL     1       5.281   0.901   4.708  0.00  0.00    +0.000 N 
ATOM     18  H   UNL     1       5.646   1.852   4.762  0.00  0.00    +0.000 HD
BRANCH  17  22
ATOM     19  C   UNL     1       3.164   0.042   1.164  0.00  0.00    +0.000 A 
ATOM     20  C   UNL     1       2.737  -0.516   2.372  0.00  0.00    +0.000 A 
ATOM     21  C   UNL     1       3.418  -0.223   3.558  0.00  0.00    +0.000 A 
ATOM     22  C   UNL     1       4.513   0.652   3.575  0.00  0.00    +0.000 A 
ATOM     23  C   UNL     1       4.936   1.189   2.352  0.00  0.00    +0.000 A 
ATOM     24  C   UNL     1       4.276   0.889   1.157  0.00  0.00    +0.000 A 
BRANCH  19  26
ATOM     25  N   UNL     1       1.167  -0.603  -0.067  0.00  0.00    +0.000 N 
ATOM     26  C   UNL     1       2.494  -0.275  -0.121  0.00  0.00    +0.000 C 
ATOM     27  O   UNL     1       3.087  -0.217  -1.189  0.00  0.00    +0.000 OA
ATOM     28  H   UNL     1       0.699  -0.718  -0.957  0.00  0.00    +0.000 HD
ATOM     29  H   UNL     1       0.596  -0.426   0.746  0.00  0.00    +0.000 HD
ENDBRANCH  19  26
ENDBRANCH  17  22
ENDBRANCH  16  17
ENDBRANCH   1  16
TORSDOF 6
