REMARK  Name = 
REMARK  5 active torsions:
REMARK  status: ('A' for Active; 'I' for Inactive)
REMARK    1  A    between atoms: C_2  and  C_3
REMARK    2  A    between atoms: C_6  and  C_7
REMARK    3  A    between atoms: C_7  and  N_8
REMARK    4  A    between atoms: N_8  and  C_9
REMARK    5  A    between atoms: C_12  and  C_13
REMARK                            x       y       z     vdW  Elec       q    Type
REMARK                         _______ _______ _______ _____ _____    ______ ____
ROOT
ATOM      1  N   UNL     1      -3.991  -1.396   0.769  0.00  0.00    +0.000 N 
ATOM      2  H   UNL     1      -4.286  -1.213   1.724  0.00  0.00    +0.000 HD
ENDROOT
BRANCH   1   3
ATOM      3  C   UNL     1      -4.116  -2.732   0.365  0.00  0.00    +0.000 A 
ATOM      4  C   UNL     1      -3.991  -3.184  -0.946  0.00  0.00    +0.000 A 
ATOM      5  C   UNL     1      -4.103  -4.550  -1.239  0.00  0.00    +0.000 A 
ATOM      6  C   UNL     1      -4.326  -5.436  -0.194  0.00  0.00    +0.000 A 
ATOM      7  N   UNL     1      -4.433  -5.053   1.105  0.00  0.00    +0.000 NA
ATOM      8  C   UNL     1      -4.316  -3.724   1.338  0.00  0.00    +0.000 A 
BRANCH   6   9
ATOM      9  C   UNL     1      -4.471  -6.903  -0.461  0.00  0.00    +0.000 C 
ATOM     10  N   UNL     1      -4.694  -7.675   0.647  0.00  0.00    +0.000 N 
ATOM     11  O   UNL     1      -4.401  -7.384  -1.586  0.00  0.00    +0.000 OA
ATOM     12  H   UNL     1      -4.745  -7.232   1.559  0.00  0.00    +0.000 HD
ATOM     13  H   UNL     1      -4.806  -8.672   0.549  0.00  0.00    +0.000 HD
ENDBRANCH   6   9
ENDBRANCH   1   3
BRANCH   1  14
ATOM     14  C   UNL     1      -3.691  -0.235  -0.075  0.00  0.00    +0.000 C 
ATOM     15  C   UNL     1      -4.615   0.224  -1.186  0.00  0.00    +0.000 C 
ATOM     16  C   UNL     1      -4.640   0.948   0.118  0.00  0.00    +0.000 C 
BRANCH  14  20
ATOM     17  C   UNL     1       0.465   0.808  -0.425  0.00  0.00    +0.000 A 
ATOM     18  C   UNL     1      -0.061  -0.088  -1.344  0.00  0.00    +0.000 A 
ATOM     19  C   UNL     1      -1.405  -0.449  -1.224  0.00  0.00    +0.000 A 
ATOM     20  C   UNL     1      -2.205   0.080  -0.202  0.00  0.00    +0.000 A 
ATOM     21  C   UNL     1      -1.550   0.938   0.685  0.00  0.00    +0.000 A 
ATOM     22  N   UNL     1      -0.253   1.322   0.600  0.00  0.00    +0.000 NA
BRANCH  17  24
ATOM     23  N   UNL     1       2.919   1.628  -0.675  0.00  0.00    +0.000 NA
ATOM     24  C   UNL     1       1.821   1.268  -0.539  0.00  0.00    +0.000 C 
ENDBRANCH  17  24
ENDBRANCH  14  20
ENDBRANCH   1  14
TORSDOF 5
