REMARK  Name = 
REMARK  7 active torsions:
REMARK  status: ('A' for Active; 'I' for Inactive)
REMARK    1  A    between atoms: C_2  and  C_20
REMARK    2  A    between atoms: N_3  and  C_4
REMARK    3  A    between atoms: C_4  and  C_5
REMARK    4  A    between atoms: C_8  and  C_9
REMARK    5  A    between atoms: C_9  and  N_10
REMARK    6  A    between atoms: N_10  and  C_11
REMARK    7  A    between atoms: C_11  and  C_12
REMARK                            x       y       z     vdW  Elec       q    Type
REMARK                         _______ _______ _______ _____ _____    ______ ____
ROOT
ATOM      1  C   UNL     1       3.137  -1.876  -3.028  0.00  0.00    +0.000 A 
ATOM      2  C   UNL     1       3.992  -1.065  -3.780  0.00  0.00    +0.000 A 
ATOM      3  C   UNL     1       4.853  -1.626  -4.723  0.00  0.00    +0.000 A 
ATOM      4  C   UNL     1       4.906  -3.016  -4.912  0.00  0.00    +0.000 A 
ATOM      5  C   UNL     1       4.007  -3.818  -4.197  0.00  0.00    +0.000 A 
ATOM      6  C   UNL     1       3.126  -3.255  -3.268  0.00  0.00    +0.000 A 
ENDROOT
BRANCH   1   7
ATOM      7  C   UNL     1       2.204  -1.251  -2.027  0.00  0.00    +0.000 C 
BRANCH   7  10
ATOM      8  O   UNL     1       1.542   1.287  -3.056  0.00  0.00    +0.000 OA
ATOM      9  C   UNL     1       0.753   0.359  -3.201  0.00  0.00    +0.000 C 
ATOM     10  N   UNL     1       0.962  -0.883  -2.657  0.00  0.00    +0.000 N 
ATOM     11  H   UNL     1       0.390  -1.658  -2.972  0.00  0.00    +0.000 HD
BRANCH   9  12
ATOM     12  C   UNL     1      -0.510   0.533  -3.930  0.00  0.00    +0.000 A 
ATOM     13  C   UNL     1      -1.044   1.805  -4.086  0.00  0.00    +0.000 A 
ATOM     14  S   UNL     1      -2.521   1.825  -4.938  0.00  0.00    +0.000 S 
ATOM     15  C   UNL     1      -2.473   0.141  -5.174  0.00  0.00    +0.000 A 
ATOM     16  N   UNL     1      -3.448  -0.495  -5.877  0.00  0.00    +0.000 NA
ATOM     17  C   UNL     1      -3.261  -1.764  -6.024  0.00  0.00    +0.000 A 
ATOM     18  N   UNL     1      -2.192  -2.458  -5.520  0.00  0.00    +0.000 N 
ATOM     19  C   UNL     1      -1.230  -1.873  -4.733  0.00  0.00    +0.000 A 
ATOM     20  O   UNL     1      -0.368  -2.550  -4.179  0.00  0.00    +0.000 OA
ATOM     21  C   UNL     1      -1.362  -0.435  -4.584  0.00  0.00    +0.000 A 
ATOM     22  H   UNL     1      -2.121  -3.457  -5.641  0.00  0.00    +0.000 HD
ENDBRANCH   9  12
ENDBRANCH   7  10
ENDBRANCH   1   7
BRANCH   4  23
ATOM     23  C   UNL     1       5.868  -3.667  -5.886  0.00  0.00    +0.000 C 
BRANCH  23  24
ATOM     24  N   UNL     1       7.134  -2.965  -6.110  0.00  0.00    +0.000 NA
ATOM     25  H   UNL     1       6.942  -2.041  -6.490  0.00  0.00    +0.000 HD
BRANCH  24  26
ATOM     26  C   UNL     1       7.973  -2.860  -4.911  0.00  0.00    +0.000 C 
BRANCH  26  27
ATOM     27  C   UNL     1       9.201  -1.970  -5.208  0.00  0.00    +0.000 C 
ATOM     28  C   UNL     1      10.138  -2.579  -6.266  0.00  0.00    +0.000 C 
ATOM     29  C   UNL     1      11.033  -3.681  -5.701  0.00  0.00    +0.000 C 
ATOM     30  N   UNL     1      11.794  -3.216  -4.540  0.00  0.00    +0.000 NA
ATOM     31  C   UNL     1      10.893  -2.786  -3.471  0.00  0.00    +0.000 C 
ATOM     32  C   UNL     1       9.987  -1.644  -3.926  0.00  0.00    +0.000 C 
ATOM     33  H   UNL     1      12.376  -2.426  -4.822  0.00  0.00    +0.000 HD
ENDBRANCH  26  27
ENDBRANCH  24  26
ENDBRANCH  23  24
ENDBRANCH   4  23
TORSDOF 7
