REMARK  Name = 
REMARK  8 active torsions:
REMARK  status: ('A' for Active; 'I' for Inactive)
REMARK    1  A    between atoms: C_1  and  C_2
REMARK    2  A    between atoms: C_2  and  C_3
REMARK    3  A    between atoms: C_7  and  C_8
REMARK    4  A    between atoms: C_8  and  C_9
REMARK    5  A    between atoms: C_9  and  N_10
REMARK    6  A    between atoms: C_14  and  C_15
REMARK    7  A    between atoms: N_24  and  C_25
REMARK    8  A    between atoms: C_25  and  C_26
REMARK                            x       y       z     vdW  Elec       q    Type
REMARK                         _______ _______ _______ _____ _____    ______ ____
ROOT
ATOM      1  C   UNL     1       3.006   0.360   1.358  0.00  0.00    +0.000 A 
ATOM      2  C   UNL     1       2.731   1.613   1.926  0.00  0.00    +0.000 A 
ATOM      3  C   UNL     1       3.049   1.886   3.260  0.00  0.00    +0.000 A 
ATOM      4  C   UNL     1       3.628   0.904   4.067  0.00  0.00    +0.000 A 
ATOM      5  C   UNL     1       3.918  -0.357   3.539  0.00  0.00    +0.000 A 
ATOM      6  C   UNL     1       3.635  -0.586   2.180  0.00  0.00    +0.000 A 
ENDROOT
BRANCH   1   8
ATOM      7  C   UNL     1       0.994   0.045  -0.065  0.00  0.00    +0.000 C 
ATOM      8  C   UNL     1       2.544   0.002  -0.073  0.00  0.00    +0.000 C 
ATOM      9  C   UNL     1       3.131   1.013  -1.086  0.00  0.00    +0.000 C 
ATOM     10  C   UNL     1       2.802   0.645  -2.533  0.00  0.00    +0.000 C 
ATOM     11  C   UNL     1       3.206  -0.792  -2.866  0.00  0.00    +0.000 C 
ATOM     12  N   UNL     1       2.590  -1.743  -1.932  0.00  0.00    +0.000 NA
ATOM     13  C   UNL     1       2.985  -1.428  -0.545  0.00  0.00    +0.000 C 
BRANCH  12  14
ATOM     14  C   UNL     1       2.948  -3.152  -2.262  0.00  0.00    +0.000 C 
BRANCH  14  15
ATOM     15  C   UNL     1       2.501  -3.747  -3.620  0.00  0.00    +0.000 C 
ATOM     16  F   UNL     1       1.737  -2.908  -4.351  0.00  0.00    +0.000 F 
ATOM     17  F   UNL     1       3.580  -4.071  -4.373  0.00  0.00    +0.000 F 
ATOM     18  F   UNL     1       1.786  -4.883  -3.436  0.00  0.00    +0.000 F 
ENDBRANCH  14  15
ENDBRANCH  12  14
ENDBRANCH   1   8
BRANCH   5  19
ATOM     19  C   UNL     1       4.458  -1.460   4.442  0.00  0.00    +0.000 C 
BRANCH  19  20
ATOM     20  C   UNL     1       4.712  -2.779   3.700  0.00  0.00    +0.000 C 
BRANCH  20  21
ATOM     21  N   UNL     1       5.158  -3.879   4.559  0.00  0.00    +0.000 N 
ATOM     22  C   UNL     1       5.349  -5.058   3.792  0.00  0.00    +0.000 A 
ATOM     23  C   UNL     1       5.746  -6.246   4.417  0.00  0.00    +0.000 A 
ATOM     24  N   UNL     1       5.945  -7.425   3.765  0.00  0.00    +0.000 NA
ATOM     25  C   UNL     1       5.742  -7.366   2.418  0.00  0.00    +0.000 A 
ATOM     26  C   UNL     1       5.366  -6.200   1.780  0.00  0.00    +0.000 A 
ATOM     27  N   UNL     1       5.169  -5.035   2.448  0.00  0.00    +0.000 NA
ATOM     28  H   UNL     1       4.482  -4.080   5.293  0.00  0.00    +0.000 HD
BRANCH  25  29
ATOM     29  C   UNL     1       5.922  -8.610   1.621  0.00  0.00    +0.000 C 
ATOM     30  N   UNL     1       6.290  -9.720   2.323  0.00  0.00    +0.000 N 
ATOM     31  O   UNL     1       5.748  -8.636   0.410  0.00  0.00    +0.000 OA
ATOM     32  H   UNL     1       6.428  -9.664   3.329  0.00  0.00    +0.000 HD
ATOM     33  H   UNL     1       6.427 -10.591   1.837  0.00  0.00    +0.000 HD
ENDBRANCH  25  29
ENDBRANCH  20  21
ENDBRANCH  19  20
ENDBRANCH   5  19
TORSDOF 7
