REMARK  Name = 
REMARK  5 active torsions:
REMARK  status: ('A' for Active; 'I' for Inactive)
REMARK    1  A    between atoms: C_1  and  C_2
REMARK    2  A    between atoms: C_5  and  C_6
REMARK    3  A    between atoms: C_6  and  N_7
REMARK    4  A    between atoms: N_7  and  C_8
REMARK    5  A    between atoms: C_11  and  C_12
REMARK                            x       y       z     vdW  Elec       q    Type
REMARK                         _______ _______ _______ _____ _____    ______ ____
ROOT
ATOM      1  C   UNL     1      -5.253   1.597   0.082  0.00  0.00    +0.000 A 
ATOM      2  C   UNL     1      -6.127   0.668   0.660  0.00  0.00    +0.000 A 
ATOM      3  C   UNL     1      -7.505   0.906   0.723  0.00  0.00    +0.000 A 
ATOM      4  C   UNL     1      -8.040   2.104   0.242  0.00  0.00    +0.000 A 
ATOM      5  C   UNL     1      -7.181   3.057  -0.310  0.00  0.00    +0.000 A 
ATOM      6  C   UNL     1      -5.801   2.808  -0.370  0.00  0.00    +0.000 A 
ENDROOT
BRANCH   4   7
ATOM      7  C   UNL     1      -9.510   2.303   0.336  0.00  0.00    +0.000 C 
ATOM      8  N   UNL     1      -9.974   3.589   0.358  0.00  0.00    +0.000 N 
ATOM      9  O   UNL     1     -10.284   1.359   0.433  0.00  0.00    +0.000 OA
ATOM     10  H   UNL     1      -9.373   4.381   0.533  0.00  0.00    +0.000 HD
ATOM     11  H   UNL     1     -10.963   3.701   0.542  0.00  0.00    +0.000 HD
ENDBRANCH   4   7
BRANCH   1  12
ATOM     12  N   UNL     1      -3.861   1.434   0.064  0.00  0.00    +0.000 N 
ATOM     13  H   UNL     1      -3.413   2.021  -0.636  0.00  0.00    +0.000 HD
BRANCH  12  14
ATOM     14  C   UNL     1      -3.320   0.078   0.051  0.00  0.00    +0.000 C 
BRANCH  14  19
ATOM     15  C   UNL     1       2.511   0.030  -0.124  0.00  0.00    +0.000 C 
ATOM     16  C   UNL     1       1.012   0.067  -0.079  0.00  0.00    +0.000 A 
ATOM     17  C   UNL     1       0.336   0.657   0.993  0.00  0.00    +0.000 A 
ATOM     18  C   UNL     1      -1.062   0.679   1.024  0.00  0.00    +0.000 A 
ATOM     19  C   UNL     1      -1.810   0.110  -0.017  0.00  0.00    +0.000 A 
ATOM     20  C   UNL     1      -1.129  -0.477  -1.092  0.00  0.00    +0.000 A 
ATOM     21  C   UNL     1       0.269  -0.498  -1.122  0.00  0.00    +0.000 A 
ENDBRANCH  14  19
ENDBRANCH  12  14
ENDBRANCH   1  12
TORSDOF 4
