REMARK  Name = 
REMARK  4 active torsions:
REMARK  status: ('A' for Active; 'I' for Inactive)
REMARK    1  A    between atoms: C_2  and  C_3
REMARK    2  A    between atoms: C_6  and  C_7
REMARK    3  A    between atoms: C_7  and  C_8
REMARK    4  A    between atoms: C_11  and  O_12
REMARK                            x       y       z     vdW  Elec       q    Type
REMARK                         _______ _______ _______ _____ _____    ______ ____
ROOT
ATOM      1  C   UNL     1      -3.676  -0.239  -0.040  0.00  0.00    +0.000 C 
ATOM      2  C   UNL     1      -4.515   0.337  -1.184  0.00  0.00    +0.000 C 
ATOM      3  C   UNL     1      -4.619   0.950   0.173  0.00  0.00    +0.000 C 
ENDROOT
BRANCH   1   7
ATOM      4  C   UNL     1       0.523   0.704  -0.049  0.00  0.00    +0.000 A 
ATOM      5  C   UNL     1       0.003   0.031  -1.145  0.00  0.00    +0.000 A 
ATOM      6  C   UNL     1      -1.355  -0.299  -1.139  0.00  0.00    +0.000 A 
ATOM      7  C   UNL     1      -2.177   0.048  -0.057  0.00  0.00    +0.000 A 
ATOM      8  C   UNL     1      -1.534   0.711   0.993  0.00  0.00    +0.000 A 
ATOM      9  N   UNL     1      -0.221   1.047   1.028  0.00  0.00    +0.000 NA
BRANCH   4  11
ATOM     10  N   UNL     1       3.033   1.383  -0.022  0.00  0.00    +0.000 NA
ATOM     11  C   UNL     1       1.910   1.089  -0.011  0.00  0.00    +0.000 C 
ENDBRANCH   4  11
ENDBRANCH   1   7
BRANCH   1  12
ATOM     12  C   UNL     1      -4.135  -1.563   0.565  0.00  0.00    +0.000 A 
ATOM     13  C   UNL     1      -4.367  -1.710   1.940  0.00  0.00    +0.000 A 
ATOM     14  C   UNL     1      -4.957  -2.868   2.445  0.00  0.00    +0.000 A 
ATOM     15  C   UNL     1      -5.281  -3.872   1.551  0.00  0.00    +0.000 A 
ATOM     16  N   UNL     1      -5.019  -3.817   0.238  0.00  0.00    +0.000 NA
ATOM     17  C   UNL     1      -4.453  -2.675  -0.219  0.00  0.00    +0.000 A 
BRANCH  15  18
ATOM     18  O   UNL     1      -5.930  -4.998   1.960  0.00  0.00    +0.000 OA
ATOM     19  H   UNL     1      -6.158  -4.891   2.894  0.00  0.00    +0.000 HD
ENDBRANCH  15  18
ENDBRANCH   1  12
TORSDOF 4
