REMARK  Name = 
REMARK  6 active torsions:
REMARK  status: ('A' for Active; 'I' for Inactive)
REMARK    1  A    between atoms: N_1  and  C_2
REMARK    2  A    between atoms: C_2  and  N_3
REMARK    3  A    between atoms: C_2  and  C_16
REMARK    4  A    between atoms: C_4  and  C_6
REMARK    5  A    between atoms: C_19  and  C_20
REMARK    6  A    between atoms: C_20  and  N_21
REMARK                            x       y       z     vdW  Elec       q    Type
REMARK                         _______ _______ _______ _____ _____    ______ ____
ROOT
ATOM      1  C   UNL     1       2.389  -0.046  -0.050  0.00  0.00    +0.000 C 
ENDROOT
BRANCH   1   2
ATOM      2  C   UNL     1       2.780   0.370   1.361  0.00  0.00    +0.000 A 
ATOM      3  C   UNL     1       2.787   1.721   1.735  0.00  0.00    +0.000 A 
ATOM      4  C   UNL     1       3.127   2.101   3.041  0.00  0.00    +0.000 A 
ATOM      5  C   UNL     1       3.477   1.141   4.002  0.00  0.00    +0.000 A 
ATOM      6  C   UNL     1       3.461  -0.209   3.636  0.00  0.00    +0.000 A 
ATOM      7  C   UNL     1       3.126  -0.588   2.333  0.00  0.00    +0.000 A 
BRANCH   5   8
ATOM      8  C   UNL     1       3.844   1.543   5.409  0.00  0.00    +0.000 C 
BRANCH   8   9
ATOM      9  N   UNL     1       2.675   1.622   6.256  0.00  0.00    +0.000 N 
ATOM     10  C   UNL     1       2.819   1.892   7.592  0.00  0.00    +0.000 C 
ATOM     11  O   UNL     1       3.917   1.984   8.130  0.00  0.00    +0.000 OA
ATOM     12  N   UNL     1       1.640   2.049   8.280  0.00  0.00    +0.000 N 
ATOM     13  C   UNL     1       0.286   1.807   7.822  0.00  0.00    +0.000 C 
ATOM     14  C   UNL     1      -0.548   2.675   8.746  0.00  0.00    +0.000 C 
ATOM     15  C   UNL     1       0.179   2.561  10.081  0.00  0.00    +0.000 C 
ATOM     16  C   UNL     1       1.646   2.356   9.703  0.00  0.00    +0.000 C 
ATOM     17  H   UNL     1       1.865   2.031   5.820  0.00  0.00    +0.000 HD
ENDBRANCH   8   9
ENDBRANCH   5   8
ENDBRANCH   1   2
BRANCH   1  18
ATOM     18  N   UNL     1       1.352  -1.035   0.004  0.00  0.00    +0.000 N 
ATOM     19  C   UNL     1       0.749  -1.585  -1.097  0.00  0.00    +0.000 C 
ATOM     20  O   UNL     1       1.129  -1.363  -2.244  0.00  0.00    +0.000 OA
ATOM     21  H   UNL     1       0.780  -0.969   0.838  0.00  0.00    +0.000 HD
BRANCH  19  22
ATOM     22  C   UNL     1      -0.303  -2.571  -0.811  0.00  0.00    +0.000 A 
ATOM     23  C   UNL     1      -0.547  -3.604  -1.705  0.00  0.00    +0.000 A 
ATOM     24  S   UNL     1      -1.727  -4.710  -1.161  0.00  0.00    +0.000 S 
ATOM     25  C   UNL     1      -1.990  -3.816   0.264  0.00  0.00    +0.000 A 
ATOM     26  N   UNL     1      -2.902  -4.218   1.188  0.00  0.00    +0.000 NA
ATOM     27  C   UNL     1      -3.014  -3.430   2.206  0.00  0.00    +0.000 A 
ATOM     28  N   UNL     1      -2.297  -2.276   2.382  0.00  0.00    +0.000 N 
ATOM     29  C   UNL     1      -1.353  -1.840   1.483  0.00  0.00    +0.000 A 
ATOM     30  O   UNL     1      -0.706  -0.816   1.674  0.00  0.00    +0.000 OA
ATOM     31  C   UNL     1      -1.186  -2.693   0.324  0.00  0.00    +0.000 A 
ATOM     32  H   UNL     1      -2.431  -1.703   3.202  0.00  0.00    +0.000 HD
ENDBRANCH  19  22
ENDBRANCH   1  18
BRANCH   1  33
ATOM     33  N   UNL     1       3.510  -0.652  -0.735  0.00  0.00    +0.000 NA
ATOM     34  H   UNL     1       3.169  -0.912  -1.664  0.00  0.00    +0.000 HD
ATOM     35  H   UNL     1       3.714  -1.534  -0.276  0.00  0.00    +0.000 HD
ENDBRANCH   1  33
TORSDOF 6
