REMARK  Name = 
REMARK  9 active torsions:
REMARK  status: ('A' for Active; 'I' for Inactive)
REMARK    1  A    between atoms: C_1  and  O_2
REMARK    2  A    between atoms: O_2  and  C_3
REMARK    3  A    between atoms: C_10  and  C_11
REMARK    4  A    between atoms: N_13  and  C_14
REMARK    5  A    between atoms: C_14  and  C_15
REMARK    6  A    between atoms: C_18  and  N_19
REMARK    7  A    between atoms: N_19  and  C_20
REMARK    8  A    between atoms: C_20  and  C_21
REMARK    9  A    between atoms: N_24  and  C_25
REMARK                            x       y       z     vdW  Elec       q    Type
REMARK                         _______ _______ _______ _____ _____    ______ ____
ROOT
ATOM      1  C   UNL     1       2.902  -3.123  -1.430  0.00  0.00    +0.000 C 
ENDROOT
BRANCH   1   2
ATOM      2  C   UNL     1       1.774  -3.398  -0.473  0.00  0.00    +0.000 A 
ATOM      3  C   UNL     1       1.485  -4.698  -0.046  0.00  0.00    +0.000 A 
ATOM      4  C   UNL     1       0.409  -4.944   0.820  0.00  0.00    +0.000 A 
ATOM      5  C   UNL     1      -0.388  -3.902   1.305  0.00  0.00    +0.000 A 
ATOM      6  C   UNL     1      -0.106  -2.609   0.844  0.00  0.00    +0.000 A 
ATOM      7  C   UNL     1       0.957  -2.355  -0.029  0.00  0.00    +0.000 A 
BRANCH   5   8
ATOM      8  N   UNL     1      -1.527  -4.091   2.088  0.00  0.00    +0.000 N 
ATOM      9  H   UNL     1      -1.844  -3.224   2.515  0.00  0.00    +0.000 HD
BRANCH   8  10
ATOM     10  C   UNL     1      -1.655  -5.225   2.997  0.00  0.00    +0.000 C 
BRANCH  10  11
ATOM     11  C   UNL     1      -2.905  -6.062   2.660  0.00  0.00    +0.000 C 
ATOM     12  C   UNL     1      -4.223  -5.275   2.729  0.00  0.00    +0.000 C 
ATOM     13  C   UNL     1      -4.548  -4.836   4.157  0.00  0.00    +0.000 C 
ATOM     14  N   UNL     1      -4.603  -5.980   5.077  0.00  0.00    +0.000 NA
ATOM     15  C   UNL     1      -4.863  -5.515   6.441  0.00  0.00    +0.000 C 
ATOM     16  C   UNL     1      -3.392  -6.809   5.043  0.00  0.00    +0.000 C 
ATOM     17  C   UNL     1      -3.026  -7.253   3.621  0.00  0.00    +0.000 C 
ENDBRANCH  10  11
ENDBRANCH   8  10
ENDBRANCH   5   8
ENDBRANCH   1   2
BRANCH   1  20
ATOM     18  C   UNL     1       3.321  -2.884  -3.827  0.00  0.00    +0.000 C 
ATOM     19  O   UNL     1       4.500  -2.603  -3.601  0.00  0.00    +0.000 OA
ATOM     20  N   UNL     1       2.456  -3.156  -2.803  0.00  0.00    +0.000 N 
ATOM     21  H   UNL     1       1.499  -3.419  -2.991  0.00  0.00    +0.000 HD
BRANCH  18  29
ATOM     22  C   UNL     1       0.240  -3.623  -5.208  0.00  0.00    +0.000 A 
ATOM     23  N   UNL     1      -0.817  -3.873  -6.011  0.00  0.00    +0.000 NA
ATOM     24  C   UNL     1      -0.659  -3.737  -7.329  0.00  0.00    +0.000 A 
ATOM     25  N   UNL     1       0.450  -3.374  -7.964  0.00  0.00    +0.000 NA
ATOM     26  C   UNL     1       1.482  -3.147  -7.135  0.00  0.00    +0.000 A 
ATOM     27  S   UNL     1       2.977  -2.673  -7.783  0.00  0.00    +0.000 S 
ATOM     28  C   UNL     1       3.677  -2.598  -6.240  0.00  0.00    +0.000 A 
ATOM     29  C   UNL     1       2.805  -2.926  -5.205  0.00  0.00    +0.000 A 
ATOM     30  C   UNL     1       1.485  -3.251  -5.746  0.00  0.00    +0.000 A 
BRANCH  22  32
ATOM     31  C   UNL     1      -1.298  -3.636  -3.453  0.00  0.00    +0.000 C 
ATOM     32  O   UNL     1       0.067  -3.773  -3.847  0.00  0.00    +0.000 OA
ENDBRANCH  22  32
ENDBRANCH  18  29
ENDBRANCH   1  20
TORSDOF 7
