REMARK  Name = 
REMARK  8 active torsions:
REMARK  status: ('A' for Active; 'I' for Inactive)
REMARK    1  A    between atoms: N_1  and  C_2
REMARK    2  A    between atoms: C_2  and  C_3
REMARK    3  A    between atoms: C_3  and  N_4
REMARK    4  A    between atoms: N_4  and  C_5
REMARK    5  A    between atoms: C_5  and  C_6
REMARK    6  A    between atoms: C_9  and  C_10
REMARK    7  A    between atoms: C_10  and  N_11
REMARK    8  A    between atoms: C_12  and  C_14
REMARK                            x       y       z     vdW  Elec       q    Type
REMARK                         _______ _______ _______ _____ _____    ______ ____
ROOT
ATOM      1  C   UNL     1      10.733   2.539  -1.271  0.00  0.00    +0.000 C 
ENDROOT
BRANCH   1   5
ATOM      2  C   UNL     1       6.476   2.447  -1.245  0.00  0.00    +0.000 A 
ATOM      3  C   UNL     1       7.136   3.005  -0.154  0.00  0.00    +0.000 A 
ATOM      4  C   UNL     1       8.527   3.047  -0.154  0.00  0.00    +0.000 A 
ATOM      5  C   UNL     1       9.235   2.517  -1.234  0.00  0.00    +0.000 A 
ATOM      6  C   UNL     1       8.495   1.996  -2.289  0.00  0.00    +0.000 A 
ATOM      7  N   UNL     1       7.143   1.949  -2.320  0.00  0.00    +0.000 NA
BRANCH   2   8
ATOM      8  C   UNL     1       4.960   2.437  -1.293  0.00  0.00    +0.000 C 
BRANCH   8   9
ATOM      9  N   UNL     1       4.335   3.777  -1.275  0.00  0.00    +0.000 NA
ATOM     10  H   UNL     1       3.333   3.626  -1.421  0.00  0.00    +0.000 HD
BRANCH   9  11
ATOM     11  C   UNL     1       4.781   4.613  -2.406  0.00  0.00    +0.000 C 
BRANCH  11  12
ATOM     12  C   UNL     1       4.331   4.092  -3.783  0.00  0.00    +0.000 C 
BRANCH  12  13
ATOM     13  N   UNL     1       2.878   3.889  -3.825  0.00  0.00    +0.000 NA
ATOM     14  H   UNL     1       2.624   3.537  -4.748  0.00  0.00    +0.000 HD
ATOM     15  H   UNL     1       2.417   4.793  -3.731  0.00  0.00    +0.000 HD
ENDBRANCH  12  13
ENDBRANCH  11  12
ENDBRANCH   9  11
ENDBRANCH   8   9
ENDBRANCH   2   8
ENDBRANCH   1   5
BRANCH   1  16
ATOM     16  N   UNL     1      11.234   3.749  -1.874  0.00  0.00    +0.000 N 
ATOM     17  C   UNL     1      12.575   3.896  -2.129  0.00  0.00    +0.000 C 
ATOM     18  O   UNL     1      13.376   2.989  -1.918  0.00  0.00    +0.000 OA
ATOM     19  H   UNL     1      10.641   4.572  -1.836  0.00  0.00    +0.000 HD
BRANCH  17  20
ATOM     20  C   UNL     1      13.004   5.170  -2.720  0.00  0.00    +0.000 A 
ATOM     21  C   UNL     1      14.201   5.229  -3.420  0.00  0.00    +0.000 A 
ATOM     22  S   UNL     1      14.540   6.767  -4.071  0.00  0.00    +0.000 S 
ATOM     23  C   UNL     1      13.122   7.424  -3.400  0.00  0.00    +0.000 A 
ATOM     24  N   UNL     1      12.815   8.739  -3.565  0.00  0.00    +0.000 NA
ATOM     25  C   UNL     1      11.724   9.107  -2.980  0.00  0.00    +0.000 A 
ATOM     26  N   UNL     1      10.908   8.280  -2.254  0.00  0.00    +0.000 N 
ATOM     27  C   UNL     1      11.162   6.939  -2.084  0.00  0.00    +0.000 A 
ATOM     28  O   UNL     1      10.390   6.216  -1.463  0.00  0.00    +0.000 OA
ATOM     29  C   UNL     1      12.386   6.475  -2.708  0.00  0.00    +0.000 A 
ATOM     30  H   UNL     1      10.063   8.631  -1.828  0.00  0.00    +0.000 HD
ENDBRANCH  17  20
ENDBRANCH   1  16
TORSDOF 8
