REMARK  Name = 
REMARK  9 active torsions:
REMARK  status: ('A' for Active; 'I' for Inactive)
REMARK    1  A    between atoms: C_1  and  C_2
REMARK    2  A    between atoms: C_2  and  C_3
REMARK    3  A    between atoms: C_2  and  C_17
REMARK    4  A    between atoms: C_3  and  N_4
REMARK    5  A    between atoms: C_5  and  C_7
REMARK    6  A    between atoms: C_20  and  C_21
REMARK    7  A    between atoms: C_21  and  N_22
REMARK    8  A    between atoms: N_22  and  C_23
REMARK    9  A    between atoms: C_23  and  C_24
REMARK                            x       y       z     vdW  Elec       q    Type
REMARK                         _______ _______ _______ _____ _____    ______ ____
ROOT
ATOM      1  C   UNL     1       1.231   0.496   0.439  0.00  0.00    +0.000 C 
ATOM      2  C   UNL     1       2.563  -0.103  -0.067  0.00  0.00    +0.000 C 
ENDROOT
BRANCH   2   3
ATOM      3  C   UNL     1       3.064   0.629  -1.319  0.00  0.00    +0.000 A 
ATOM      4  C   UNL     1       2.822   2.008  -1.482  0.00  0.00    +0.000 A 
ATOM      5  C   UNL     1       3.197   2.687  -2.639  0.00  0.00    +0.000 A 
ATOM      6  C   UNL     1       3.882   2.023  -3.657  0.00  0.00    +0.000 A 
ATOM      7  C   UNL     1       4.203   0.677  -3.476  0.00  0.00    +0.000 A 
ATOM      8  C   UNL     1       3.804  -0.009  -2.323  0.00  0.00    +0.000 A 
BRANCH   6   9
ATOM      9  C   UNL     1       4.243   2.741  -4.931  0.00  0.00    +0.000 C 
BRANCH   9  10
ATOM     10  N   UNL     1       5.093   3.892  -4.658  0.00  0.00    +0.000 NA
ATOM     11  H   UNL     1       5.938   3.579  -4.181  0.00  0.00    +0.000 HD
BRANCH  10  12
ATOM     12  C   UNL     1       5.460   4.584  -5.888  0.00  0.00    +0.000 C 
BRANCH  12  13
ATOM     13  C   UNL     1       6.340   5.765  -5.572  0.00  0.00    +0.000 A 
ATOM     14  C   UNL     1       7.630   5.866  -6.098  0.00  0.00    +0.000 A 
ATOM     15  C   UNL     1       8.402   6.964  -5.750  0.00  0.00    +0.000 A 
ATOM     16  N   UNL     1       7.985   7.951  -4.928  0.00  0.00    +0.000 NA
ATOM     17  C   UNL     1       6.734   7.834  -4.431  0.00  0.00    +0.000 A 
ATOM     18  C   UNL     1       5.886   6.779  -4.721  0.00  0.00    +0.000 A 
ENDBRANCH  12  13
ENDBRANCH  10  12
ENDBRANCH   9  10
ENDBRANCH   6   9
ENDBRANCH   2   3
BRANCH   2  19
ATOM     19  C   UNL     1       2.378  -1.629  -0.291  0.00  0.00    +0.000 C 
BRANCH  19  20
ATOM     20  N   UNL     1       1.977  -2.361   0.893  0.00  0.00    +0.000 N 
ATOM     21  C   UNL     1       2.894  -2.822   1.806  0.00  0.00    +0.000 C 
ATOM     22  O   UNL     1       4.098  -2.613   1.683  0.00  0.00    +0.000 OA
ATOM     23  H   UNL     1       1.031  -2.733   0.914  0.00  0.00    +0.000 HD
BRANCH  21  24
ATOM     24  C   UNL     1       2.361  -3.531   2.972  0.00  0.00    +0.000 A 
ATOM     25  C   UNL     1       3.088  -3.544   4.154  0.00  0.00    +0.000 A 
ATOM     26  S   UNL     1       2.315  -4.385   5.419  0.00  0.00    +0.000 S 
ATOM     27  C   UNL     1       1.005  -4.801   4.413  0.00  0.00    +0.000 A 
ATOM     28  N   UNL     1      -0.016  -5.568   4.884  0.00  0.00    +0.000 NA
ATOM     29  C   UNL     1      -0.930  -5.825   4.008  0.00  0.00    +0.000 A 
ATOM     30  N   UNL     1      -0.919  -5.382   2.710  0.00  0.00    +0.000 N 
ATOM     31  C   UNL     1       0.077  -4.578   2.205  0.00  0.00    +0.000 A 
ATOM     32  O   UNL     1       0.028  -4.150   1.056  0.00  0.00    +0.000 OA
ATOM     33  C   UNL     1       1.139  -4.283   3.144  0.00  0.00    +0.000 A 
ATOM     34  H   UNL     1      -1.675  -5.606   2.081  0.00  0.00    +0.000 HD
ENDBRANCH  21  24
ENDBRANCH  19  20
ENDBRANCH   2  19
TORSDOF 8
