REMARK  Name = 
REMARK  7 active torsions:
REMARK  status: ('A' for Active; 'I' for Inactive)
REMARK    1  A    between atoms: C_2  and  C_3
REMARK    2  A    between atoms: C_5  and  C_6
REMARK    3  A    between atoms: C_11  and  N_12
REMARK    4  A    between atoms: N_12  and  C_13
REMARK    5  A    between atoms: C_13  and  C_14
REMARK    6  A    between atoms: C_18  and  C_19
REMARK    7  A    between atoms: C_23  and  C_24
REMARK                            x       y       z     vdW  Elec       q    Type
REMARK                         _______ _______ _______ _____ _____    ______ ____
ROOT
ATOM      1  C   UNL     1       1.845  -2.610   0.133  0.00  0.00    +0.000 C 
ATOM      2  C   UNL     1       2.823  -2.107   1.200  0.00  0.00    +0.000 C 
ATOM      3  C   UNL     1       3.047  -1.774  -0.242  0.00  0.00    +0.000 C 
ENDROOT
BRANCH   1   4
ATOM      4  C   UNL     1       1.913  -4.045  -0.314  0.00  0.00    +0.000 A 
ATOM      5  C   UNL     1       1.982  -4.365  -1.675  0.00  0.00    +0.000 A 
ATOM      6  C   UNL     1       2.200  -5.668  -2.100  0.00  0.00    +0.000 A 
ATOM      7  C   UNL     1       2.364  -6.676  -1.158  0.00  0.00    +0.000 A 
ATOM      8  C   UNL     1       2.292  -6.402   0.213  0.00  0.00    +0.000 A 
ATOM      9  C   UNL     1       2.014  -5.088   0.611  0.00  0.00    +0.000 A 
BRANCH   8  10
ATOM     10  C   UNL     1       2.583  -7.430   1.218  0.00  0.00    +0.000 A 
ATOM     11  C   UNL     1       3.546  -8.418   1.021  0.00  0.00    +0.000 A 
ATOM     12  N   UNL     1       3.861  -9.374   1.925  0.00  0.00    +0.000 NA
ATOM     13  C   UNL     1       3.187  -9.345   3.094  0.00  0.00    +0.000 A 
ATOM     14  C   UNL     1       2.214  -8.415   3.411  0.00  0.00    +0.000 A 
ATOM     15  C   UNL     1       1.914  -7.447   2.447  0.00  0.00    +0.000 A 
BRANCH  14  16
ATOM     16  C   UNL     1       1.518  -8.449   4.730  0.00  0.00    +0.000 C 
ATOM     17  F   UNL     1       1.946  -9.460   5.534  0.00  0.00    +0.000 F 
ATOM     18  F   UNL     1       1.698  -7.302   5.443  0.00  0.00    +0.000 F 
ATOM     19  F   UNL     1       0.171  -8.607   4.616  0.00  0.00    +0.000 F 
ENDBRANCH  14  16
ENDBRANCH   8  10
ENDBRANCH   1   4
BRANCH   1  20
ATOM     20  N   UNL     1       0.485  -2.099   0.279  0.00  0.00    +0.000 N 
ATOM     21  H   UNL     1      -0.081  -2.483   1.030  0.00  0.00    +0.000 HD
BRANCH  20  27
ATOM     22  C   UNL     1      -0.148  -1.007  -1.897  0.00  0.00    +0.000 A 
ATOM     23  C   UNL     1      -1.188  -0.391  -2.601  0.00  0.00    +0.000 A 
ATOM     24  C   UNL     1      -2.406  -0.125  -1.990  0.00  0.00    +0.000 A 
ATOM     25  C   UNL     1      -2.553  -0.561  -0.691  0.00  0.00    +0.000 A 
ATOM     26  N   UNL     1      -1.585  -1.236  -0.015  0.00  0.00    +0.000 NA
ATOM     27  C   UNL     1      -0.374  -1.459  -0.601  0.00  0.00    +0.000 A 
BRANCH  24  28
ATOM     28  C   UNL     1      -3.391   0.653  -2.766  0.00  0.00    +0.000 C 
ATOM     29  N   UNL     1      -4.594   0.947  -2.211  0.00  0.00    +0.000 N 
ATOM     30  O   UNL     1      -3.120   1.060  -3.891  0.00  0.00    +0.000 OA
ATOM     31  H   UNL     1      -4.882   0.739  -1.264  0.00  0.00    +0.000 HD
ATOM     32  H   UNL     1      -5.190   1.555  -2.759  0.00  0.00    +0.000 HD
ENDBRANCH  24  28
BRANCH  22  34
ATOM     33  N   UNL     1       1.998  -0.986  -3.321  0.00  0.00    +0.000 NA
ATOM     34  C   UNL     1       1.088  -1.059  -2.627  0.00  0.00    +0.000 C 
ENDBRANCH  22  34
ENDBRANCH  20  27
ENDBRANCH   1  20
TORSDOF 7
