REMARK  Name = 
REMARK  6 active torsions:
REMARK  status: ('A' for Active; 'I' for Inactive)
REMARK    1  A    between atoms: C_2  and  C_26
REMARK    2  A    between atoms: N_3  and  C_4
REMARK    3  A    between atoms: C_4  and  C_5
REMARK    4  A    between atoms: C_8  and  C_9
REMARK    5  A    between atoms: C_9  and  N_10
REMARK    6  A    between atoms: C_11  and  C_13
REMARK                            x       y       z     vdW  Elec       q    Type
REMARK                         _______ _______ _______ _____ _____    ______ ____
ROOT
ATOM      1  C   UNL     1       3.226  -0.801  -3.542  0.00  0.00    +0.000 A 
ATOM      2  C   UNL     1       3.902   0.200  -4.253  0.00  0.00    +0.000 A 
ATOM      3  C   UNL     1       4.773  -0.128  -5.297  0.00  0.00    +0.000 A 
ATOM      4  C   UNL     1       4.991  -1.467  -5.650  0.00  0.00    +0.000 A 
ATOM      5  C   UNL     1       4.294  -2.457  -4.954  0.00  0.00    +0.000 A 
ATOM      6  F   UNL     1       4.462  -3.747  -5.278  0.00  0.00    +0.000 F 
ATOM      7  C   UNL     1       3.421  -2.138  -3.914  0.00  0.00    +0.000 A 
ENDROOT
BRANCH   1   8
ATOM      8  C   UNL     1       2.314  -0.446  -2.400  0.00  0.00    +0.000 C 
BRANCH   8  11
ATOM      9  O   UNL     1       0.255   0.203  -0.698  0.00  0.00    +0.000 OA
ATOM     10  C   UNL     1      -0.013   0.099  -1.890  0.00  0.00    +0.000 C 
ATOM     11  N   UNL     1       0.954  -0.228  -2.822  0.00  0.00    +0.000 N 
ATOM     12  H   UNL     1       0.698  -0.250  -3.800  0.00  0.00    +0.000 HD
BRANCH  10  13
ATOM     13  C   UNL     1      -1.342   0.311  -2.422  0.00  0.00    +0.000 A 
ATOM     14  C   UNL     1      -2.504   0.708  -1.784  0.00  0.00    +0.000 A 
ATOM     15  C   UNL     1      -3.521   0.739  -2.766  0.00  0.00    +0.000 A 
ATOM     16  C   UNL     1      -2.923   0.358  -3.943  0.00  0.00    +0.000 A 
ATOM     17  O   UNL     1      -1.601   0.105  -3.752  0.00  0.00    +0.000 OA
ENDBRANCH  10  13
ENDBRANCH   8  11
ENDBRANCH   1   8
BRANCH   4  18
ATOM     18  C   UNL     1       5.915  -1.822  -6.781  0.00  0.00    +0.000 C 
BRANCH  18  19
ATOM     19  N   UNL     1       5.217  -1.833  -8.042  0.00  0.00    +0.000 N 
ATOM     20  C   UNL     1       5.848  -2.183  -9.207  0.00  0.00    +0.000 C 
ATOM     21  O   UNL     1       7.029  -2.519  -9.234  0.00  0.00    +0.000 OA
ATOM     22  H   UNL     1       4.312  -1.376  -8.080  0.00  0.00    +0.000 HD
BRANCH  20  23
ATOM     23  C   UNL     1       5.020  -2.193 -10.419  0.00  0.00    +0.000 A 
ATOM     24  C   UNL     1       5.389  -2.983 -11.500  0.00  0.00    +0.000 A 
ATOM     25  S   UNL     1       4.285  -2.924 -12.799  0.00  0.00    +0.000 S 
ATOM     26  C   UNL     1       3.301  -1.801 -11.984  0.00  0.00    +0.000 A 
ATOM     27  N   UNL     1       2.172  -1.311 -12.561  0.00  0.00    +0.000 NA
ATOM     28  C   UNL     1       1.541  -0.441 -11.846  0.00  0.00    +0.000 A 
ATOM     29  N   UNL     1       1.935  -0.018 -10.603  0.00  0.00    +0.000 N 
ATOM     30  C   UNL     1       3.050  -0.509  -9.966  0.00  0.00    +0.000 A 
ATOM     31  O   UNL     1       3.346  -0.145  -8.833  0.00  0.00    +0.000 OA
ATOM     32  C   UNL     1       3.802  -1.484 -10.733  0.00  0.00    +0.000 A 
ATOM     33  H   UNL     1       1.392   0.662 -10.092  0.00  0.00    +0.000 HD
ENDBRANCH  20  23
ENDBRANCH  18  19
ENDBRANCH   4  18
TORSDOF 6
