REMARK  Name = 
REMARK  11 active torsions:
REMARK  status: ('A' for Active; 'I' for Inactive)
REMARK    1  A    between atoms: N_1  and  C_2
REMARK    2  A    between atoms: C_2  and  C_3
REMARK    3  A    between atoms: C_3  and  C_4
REMARK    4  A    between atoms: C_4  and  N_5
REMARK    5  A    between atoms: N_5  and  C_6
REMARK    6  A    between atoms: N_5  and  C_27
REMARK    7  A    between atoms: C_6  and  C_7
REMARK    8  A    between atoms: C_10  and  C_11
REMARK    9  A    between atoms: C_11  and  N_12
REMARK   10  A    between atoms: C_13  and  C_15
REMARK   11  A    between atoms: C_27  and  C_28
REMARK                            x       y       z     vdW  Elec       q    Type
REMARK                         _______ _______ _______ _____ _____    ______ ____
ROOT
ATOM      1  C   UNL     1       2.795   3.898  -0.906  0.00  0.00    +0.000 A 
ATOM      2  C   UNL     1       2.024   2.864  -1.457  0.00  0.00    +0.000 A 
ATOM      3  C   UNL     1       0.631   2.852  -1.313  0.00  0.00    +0.000 A 
ATOM      4  C   UNL     1      -0.027   3.887  -0.638  0.00  0.00    +0.000 A 
ATOM      5  C   UNL     1       0.730   4.969  -0.174  0.00  0.00    +0.000 A 
ATOM      6  C   UNL     1       2.125   4.977  -0.312  0.00  0.00    +0.000 A 
ENDROOT
BRANCH   1   7
ATOM      7  C   UNL     1       4.303   3.746  -0.793  0.00  0.00    +0.000 C 
BRANCH   7   8
ATOM      8  N   UNL     1       5.175   4.321  -1.825  0.00  0.00    +0.000 NA
BRANCH   8   9
ATOM      9  C   UNL     1       5.182   5.793  -1.897  0.00  0.00    +0.000 C 
BRANCH   9  10
ATOM     10  C   UNL     1       5.606   6.442  -0.568  0.00  0.00    +0.000 C 
BRANCH  10  11
ATOM     11  C   UNL     1       5.678   7.965  -0.649  0.00  0.00    +0.000 C 
BRANCH  11  12
ATOM     12  N   UNL     1       5.994   8.497   0.676  0.00  0.00    +0.000 NA
ATOM     13  H   UNL     1       6.146   9.502   0.618  0.00  0.00    +0.000 HD
ATOM     14  H   UNL     1       6.867   8.090   1.010  0.00  0.00    +0.000 HD
ENDBRANCH  11  12
ENDBRANCH  10  11
ENDBRANCH   9  10
ENDBRANCH   8   9
BRANCH   8  15
ATOM     15  C   UNL     1       4.968   3.678  -3.138  0.00  0.00    +0.000 C 
BRANCH  15  16
ATOM     16  C   UNL     1       6.045   3.995  -4.166  0.00  0.00    +0.000 A 
ATOM     17  C   UNL     1       7.379   3.650  -3.933  0.00  0.00    +0.000 A 
ATOM     18  C   UNL     1       8.345   4.043  -4.856  0.00  0.00    +0.000 A 
ATOM     19  C   UNL     1       7.959   4.756  -5.984  0.00  0.00    +0.000 A 
ATOM     20  C   UNL     1       6.614   5.032  -6.156  0.00  0.00    +0.000 A 
ATOM     21  N   UNL     1       5.655   4.673  -5.275  0.00  0.00    +0.000 NA
ENDBRANCH  15  16
ENDBRANCH   8  15
ENDBRANCH   7   8
ENDBRANCH   1   7
BRANCH   4  22
ATOM     22  C   UNL     1      -1.506   3.806  -0.354  0.00  0.00    +0.000 C 
BRANCH  22  23
ATOM     23  N   UNL     1      -1.786   3.104   0.883  0.00  0.00    +0.000 N 
ATOM     24  C   UNL     1      -3.079   2.783   1.220  0.00  0.00    +0.000 C 
ATOM     25  O   UNL     1      -4.020   3.041   0.470  0.00  0.00    +0.000 OA
ATOM     26  H   UNL     1      -1.062   3.090   1.597  0.00  0.00    +0.000 HD
BRANCH  24  27
ATOM     27  C   UNL     1      -3.300   2.058   2.481  0.00  0.00    +0.000 A 
ATOM     28  C   UNL     1      -4.470   1.328   2.645  0.00  0.00    +0.000 A 
ATOM     29  S   UNL     1      -4.569   0.504   4.134  0.00  0.00    +0.000 S 
ATOM     30  C   UNL     1      -3.072   1.134   4.639  0.00  0.00    +0.000 A 
ATOM     31  N   UNL     1      -2.569   0.828   5.864  0.00  0.00    +0.000 NA
ATOM     32  C   UNL     1      -1.449   1.407   6.139  0.00  0.00    +0.000 A 
ATOM     33  N   UNL     1      -0.782   2.258   5.295  0.00  0.00    +0.000 N 
ATOM     34  C   UNL     1      -1.237   2.570   4.032  0.00  0.00    +0.000 A 
ATOM     35  O   UNL     1      -0.601   3.302   3.284  0.00  0.00    +0.000 OA
ATOM     36  C   UNL     1      -2.502   1.952   3.678  0.00  0.00    +0.000 A 
ATOM     37  H   UNL     1       0.096   2.671   5.569  0.00  0.00    +0.000 HD
ENDBRANCH  24  27
ENDBRANCH  22  23
ENDBRANCH   4  22
TORSDOF 11
