REMARK  Name = 
REMARK  3 active torsions:
REMARK  status: ('A' for Active; 'I' for Inactive)
REMARK    1  A    between atoms: C_2  and  C_4
REMARK    2  A    between atoms: C_7  and  C_8
REMARK    3  A    between atoms: C_8  and  N_9
REMARK                            x       y       z     vdW  Elec       q    Type
REMARK                         _______ _______ _______ _____ _____    ______ ____
ROOT
ATOM      1  C   UNL     1       3.049  -1.289  -0.071  0.00  0.00    +0.000 A 
ATOM      2  C   UNL     1       2.855  -2.229   0.946  0.00  0.00    +0.000 A 
ATOM      3  C   UNL     1       3.643  -3.383   0.994  0.00  0.00    +0.000 A 
ATOM      4  C   UNL     1       4.632  -3.617   0.026  0.00  0.00    +0.000 A 
ATOM      5  C   UNL     1       4.814  -2.672  -0.994  0.00  0.00    +0.000 A 
ATOM      6  C   UNL     1       4.026  -1.518  -1.044  0.00  0.00    +0.000 A 
ENDROOT
BRANCH   1   8
ATOM      7  N   UNL     1       1.695   0.442   0.985  0.00  0.00    +0.000 N 
ATOM      8  C   UNL     1       2.223  -0.058  -0.173  0.00  0.00    +0.000 C 
ATOM      9  O   UNL     1       2.048   0.513  -1.242  0.00  0.00    +0.000 OA
ATOM     10  H   UNL     1       1.219   1.332   0.913  0.00  0.00    +0.000 HD
ATOM     11  H   UNL     1       2.012   0.152   1.898  0.00  0.00    +0.000 HD
ENDBRANCH   1   8
BRANCH   4  12
ATOM     12  C   UNL     1       5.475  -4.869   0.068  0.00  0.00    +0.000 C 
BRANCH  12  13
ATOM     13  N   UNL     1       4.899  -5.952  -0.721  0.00  0.00    +0.000 N 
ATOM     14  C   UNL     1       5.173  -6.164  -2.052  0.00  0.00    +0.000 A 
ATOM     15  C   UNL     1       4.535  -7.317  -2.444  0.00  0.00    +0.000 A 
ATOM     16  C   UNL     1       3.859  -7.843  -1.310  0.00  0.00    +0.000 A 
ATOM     17  C   UNL     1       3.075  -8.984  -1.092  0.00  0.00    +0.000 A 
ATOM     18  C   UNL     1       2.595  -9.153   0.194  0.00  0.00    +0.000 A 
ATOM     19 CL   UNL     1       1.641 -10.527   0.589  0.00  0.00    +0.000 Cl
ATOM     20  N   UNL     1       2.815  -8.318   1.229  0.00  0.00    +0.000 NA
ATOM     21  C   UNL     1       3.567  -7.216   1.022  0.00  0.00    +0.000 A 
ATOM     22  C   UNL     1       4.097  -6.971  -0.242  0.00  0.00    +0.000 A 
ENDBRANCH  12  13
ENDBRANCH   4  12
TORSDOF 3
