REMARK  Name = 
REMARK  8 active torsions:
REMARK  status: ('A' for Active; 'I' for Inactive)
REMARK    1  A    between atoms: C_1  and  C_2
REMARK    2  A    between atoms: C_2  and  C_3
REMARK    3  A    between atoms: C_3  and  N_4
REMARK    4  A    between atoms: C_3  and  C_13
REMARK    5  A    between atoms: C_5  and  C_7
REMARK    6  A    between atoms: C_16  and  C_17
REMARK    7  A    between atoms: C_17  and  N_18
REMARK    8  A    between atoms: C_19  and  C_21
REMARK                            x       y       z     vdW  Elec       q    Type
REMARK                         _______ _______ _______ _____ _____    ______ ____
ROOT
ATOM      1  C   UNL     1       4.631  -1.364   0.931  0.00  0.00    +0.000 A 
ATOM      2  C   UNL     1       5.324  -0.237   1.406  0.00  0.00    +0.000 A 
ATOM      3  C   UNL     1       6.721  -0.225   1.491  0.00  0.00    +0.000 A 
ATOM      4  C   UNL     1       7.467  -1.346   1.111  0.00  0.00    +0.000 A 
ATOM      5  C   UNL     1       6.778  -2.514   0.758  0.00  0.00    +0.000 A 
ATOM      6  C   UNL     1       5.379  -2.517   0.651  0.00  0.00    +0.000 A 
ENDROOT
BRANCH   1   7
ATOM      7  C   UNL     1       3.128  -1.248   0.686  0.00  0.00    +0.000 C 
BRANCH   7   8
ATOM      8  N   UNL     1       2.888  -0.702  -0.659  0.00  0.00    +0.000 N 
ATOM      9  C   UNL     1       1.802   0.099  -0.942  0.00  0.00    +0.000 C 
ATOM     10  O   UNL     1       0.966   0.387  -0.085  0.00  0.00    +0.000 OA
ATOM     11  H   UNL     1       3.419  -1.051  -1.448  0.00  0.00    +0.000 HD
BRANCH   9  12
ATOM     12  C   UNL     1       1.685   0.668  -2.382  0.00  0.00    +0.000 C 
ATOM     13  C   UNL     1       0.416   0.144  -3.067  0.00  0.00    +0.000 C 
ATOM     14  C   UNL     1       0.234   0.760  -4.453  0.00  0.00    +0.000 C 
ATOM     15  C   UNL     1       1.496   0.590  -5.290  0.00  0.00    +0.000 C 
ATOM     16  C   UNL     1       2.737   1.056  -4.528  0.00  0.00    +0.000 C 
ATOM     17  N   UNL     1       2.881   0.390  -3.219  0.00  0.00    +0.000 NA
ATOM     18  H   UNL     1       3.693   0.799  -2.752  0.00  0.00    +0.000 HD
ENDBRANCH   9  12
ENDBRANCH   7   8
BRANCH   7  20
ATOM     19  C   UNL     1       2.349  -3.024   2.364  0.00  0.00    +0.000 C 
ATOM     20  C   UNL     1       2.308  -2.536   0.918  0.00  0.00    +0.000 C 
ENDBRANCH   7  20
ENDBRANCH   1   7
BRANCH   4  21
ATOM     21  C   UNL     1       8.971  -1.277   1.024  0.00  0.00    +0.000 C 
BRANCH  21  22
ATOM     22  N   UNL     1       9.626  -1.631   2.254  0.00  0.00    +0.000 N 
ATOM     23  C   UNL     1      10.992  -1.514   2.369  0.00  0.00    +0.000 C 
ATOM     24  O   UNL     1      11.684  -1.054   1.465  0.00  0.00    +0.000 OA
ATOM     25  H   UNL     1       9.118  -2.229   2.899  0.00  0.00    +0.000 HD
BRANCH  23  26
ATOM     26  C   UNL     1      11.583  -1.914   3.651  0.00  0.00    +0.000 A 
ATOM     27  C   UNL     1      12.803  -1.376   4.044  0.00  0.00    +0.000 A 
ATOM     28  S   UNL     1      13.320  -1.907   5.580  0.00  0.00    +0.000 S 
ATOM     29  C   UNL     1      11.962  -2.919   5.747  0.00  0.00    +0.000 A 
ATOM     30  N   UNL     1      11.801  -3.694   6.852  0.00  0.00    +0.000 NA
ATOM     31  C   UNL     1      10.746  -4.439   6.831  0.00  0.00    +0.000 A 
ATOM     32  N   UNL     1       9.835  -4.473   5.806  0.00  0.00    +0.000 N 
ATOM     33  C   UNL     1       9.936  -3.685   4.686  0.00  0.00    +0.000 A 
ATOM     34  O   UNL     1       9.081  -3.697   3.816  0.00  0.00    +0.000 OA
ATOM     35  C   UNL     1      11.115  -2.837   4.656  0.00  0.00    +0.000 A 
ATOM     36  H   UNL     1       9.023  -5.068   5.858  0.00  0.00    +0.000 HD
ENDBRANCH  23  26
ENDBRANCH  21  22
ENDBRANCH   4  21
TORSDOF 7
