REMARK  Name = 
REMARK  7 active torsions:
REMARK  status: ('A' for Active; 'I' for Inactive)
REMARK    1  A    between atoms: C_2  and  C_4
REMARK    2  A    between atoms: C_7  and  N_8
REMARK    3  A    between atoms: N_8  and  C_9
REMARK    4  A    between atoms: C_9  and  C_10
REMARK    5  A    between atoms: C_10  and  C_11
REMARK    6  A    between atoms: C_15  and  O_16
REMARK    7  A    between atoms: O_16  and  C_17
REMARK                            x       y       z     vdW  Elec       q    Type
REMARK                         _______ _______ _______ _____ _____    ______ ____
ROOT
ATOM      1  N   UNL     1       5.616  -4.238  -2.157  0.00  0.00    +0.000 N 
ATOM      2  H   UNL     1       5.989  -4.780  -1.380  0.00  0.00    +0.000 HD
ENDROOT
BRANCH   1   6
ATOM      3  C   UNL     1       3.560  -0.782  -0.868  0.00  0.00    +0.000 A 
ATOM      4  C   UNL     1       3.066  -1.510  -1.953  0.00  0.00    +0.000 A 
ATOM      5  C   UNL     1       3.730  -2.667  -2.381  0.00  0.00    +0.000 A 
ATOM      6  C   UNL     1       4.873  -3.138  -1.724  0.00  0.00    +0.000 A 
ATOM      7  C   UNL     1       5.365  -2.382  -0.651  0.00  0.00    +0.000 A 
ATOM      8  C   UNL     1       4.722  -1.214  -0.226  0.00  0.00    +0.000 A 
BRANCH   3  10
ATOM      9  N   UNL     1       1.560   0.583  -0.622  0.00  0.00    +0.000 N 
ATOM     10  C   UNL     1       2.905   0.467  -0.405  0.00  0.00    +0.000 C 
ATOM     11  O   UNL     1       3.527   1.345   0.178  0.00  0.00    +0.000 OA
ATOM     12  H   UNL     1       1.107   1.389  -0.205  0.00  0.00    +0.000 HD
ATOM     13  H   UNL     1       0.981  -0.208  -0.865  0.00  0.00    +0.000 HD
ENDBRANCH   3  10
ENDBRANCH   1   6
BRANCH   1  14
ATOM     14  C   UNL     1       5.170  -5.029  -3.302  0.00  0.00    +0.000 C 
BRANCH  14  15
ATOM     15  C   UNL     1       6.142  -6.180  -3.573  0.00  0.00    +0.000 C 
BRANCH  15  16
ATOM     16  C   UNL     1       5.766  -6.957  -4.811  0.00  0.00    +0.000 A 
ATOM     17  C   UNL     1       6.270  -6.592  -6.065  0.00  0.00    +0.000 A 
ATOM     18  C   UNL     1       5.922  -7.318  -7.206  0.00  0.00    +0.000 A 
ATOM     19  C   UNL     1       5.056  -8.413  -7.110  0.00  0.00    +0.000 A 
ATOM     20  C   UNL     1       4.531  -8.768  -5.870  0.00  0.00    +0.000 A 
ATOM     21  C   UNL     1       4.888  -8.046  -4.729  0.00  0.00    +0.000 A 
BRANCH  20  22
ATOM     22  O   UNL     1       3.688  -9.827  -5.647  0.00  0.00    +0.000 OA
BRANCH  22  23
ATOM     23  C   UNL     1       2.897 -10.339  -6.742  0.00  0.00    +0.000 C 
ATOM     24  C   UNL     1       1.764  -9.461  -7.290  0.00  0.00    +0.000 C 
ATOM     25  O   UNL     1       0.772 -10.480  -7.024  0.00  0.00    +0.000 OA
ATOM     26  C   UNL     1       1.756 -11.279  -6.329  0.00  0.00    +0.000 C 
ENDBRANCH  22  23
ENDBRANCH  20  22
ENDBRANCH  15  16
ENDBRANCH  14  15
ENDBRANCH   1  14
TORSDOF 7
