REMARK  Name = 
REMARK  5 active torsions:
REMARK  status: ('A' for Active; 'I' for Inactive)
REMARK    1  A    between atoms: C_2  and  C_3
REMARK    2  A    between atoms: N_7  and  C_8
REMARK    3  A    between atoms: C_8  and  C_9
REMARK    4  A    between atoms: C_11  and  C_12
REMARK    5  A    between atoms: C_19  and  C_20
REMARK                            x       y       z     vdW  Elec       q    Type
REMARK                         _______ _______ _______ _____ _____    ______ ____
ROOT
ATOM      1  C   UNL     1      -5.859   1.108  -0.250  0.00  0.00    +0.000 A 
ATOM      2  C   UNL     1      -6.389  -0.186  -0.288  0.00  0.00    +0.000 A 
ATOM      3  C   UNL     1      -7.768  -0.429  -0.206  0.00  0.00    +0.000 A 
ATOM      4  C   UNL     1      -8.627   0.677  -0.118  0.00  0.00    +0.000 A 
ATOM      5  C   UNL     1      -8.132   1.986  -0.079  0.00  0.00    +0.000 A 
ATOM      6  C   UNL     1      -6.747   2.190  -0.173  0.00  0.00    +0.000 A 
ENDROOT
BRANCH   3   7
ATOM      7  C   UNL     1      -8.282  -1.805  -0.140  0.00  0.00    +0.000 A 
ATOM      8  C   UNL     1      -9.524  -2.157  -0.675  0.00  0.00    +0.000 A 
ATOM      9  C   UNL     1      -9.988  -3.465  -0.572  0.00  0.00    +0.000 A 
ATOM     10  C   UNL     1      -9.182  -4.395   0.061  0.00  0.00    +0.000 A 
ATOM     11  N   UNL     1      -7.978  -4.110   0.594  0.00  0.00    +0.000 NA
ATOM     12  C   UNL     1      -7.565  -2.828   0.484  0.00  0.00    +0.000 A 
ENDBRANCH   3   7
BRANCH   5  13
ATOM     13  C   UNL     1      -9.068   3.145   0.160  0.00  0.00    +0.000 C 
ATOM     14  F   UNL     1     -10.365   2.765   0.333  0.00  0.00    +0.000 F 
ATOM     15  F   UNL     1      -8.735   3.845   1.280  0.00  0.00    +0.000 F 
ATOM     16  F   UNL     1      -9.072   4.044  -0.860  0.00  0.00    +0.000 F 
ENDBRANCH   5  13
BRANCH   1  17
ATOM     17  C   UNL     1      -4.372   1.378  -0.212  0.00  0.00    +0.000 C 
BRANCH  17  22
ATOM     18  C   UNL     1      -1.998  -1.764  -3.513  0.00  0.00    +0.000 A 
ATOM     19  C   UNL     1      -2.798  -0.652  -3.742  0.00  0.00    +0.000 A 
ATOM     20  C   UNL     1      -3.328   0.032  -2.652  0.00  0.00    +0.000 A 
ATOM     21  C   UNL     1      -3.072  -0.417  -1.362  0.00  0.00    +0.000 A 
ATOM     22  N   UNL     1      -3.559   0.188  -0.242  0.00  0.00    +0.000 N 
ATOM     23  N   UNL     1      -2.304  -1.503  -1.134  0.00  0.00    +0.000 NA
ATOM     24  C   UNL     1      -1.773  -2.144  -2.203  0.00  0.00    +0.000 A 
ATOM     25  H   UNL     1      -3.433  -0.360   0.601  0.00  0.00    +0.000 HD
BRANCH  18  27
ATOM     26  N   UNL     1      -0.969  -3.087  -5.476  0.00  0.00    +0.000 NA
ATOM     27  C   UNL     1      -1.427  -2.498  -4.596  0.00  0.00    +0.000 C 
ENDBRANCH  18  27
ENDBRANCH  17  22
ENDBRANCH   1  17
TORSDOF 5
