REMARK  Name = 
REMARK  4 active torsions:
REMARK  status: ('A' for Active; 'I' for Inactive)
REMARK    1  A    between atoms: C_2  and  C_3
REMARK    2  A    between atoms: N_7  and  C_8
REMARK    3  A    between atoms: C_8  and  C_9
REMARK    4  A    between atoms: C_11  and  C_12
REMARK                            x       y       z     vdW  Elec       q    Type
REMARK                         _______ _______ _______ _____ _____    ______ ____
ROOT
ATOM      1  C   UNL     1      -4.381   1.204  -0.237  0.00  0.00    +0.000 C 
ATOM      2  C   UNL     1      -4.643   2.339  -1.198  0.00  0.00    +0.000 C 
ATOM      3  C   UNL     1      -4.584   2.624   0.269  0.00  0.00    +0.000 C 
ENDROOT
BRANCH   1   8
ATOM      4  C   UNL     1      -0.423  -1.227  -2.682  0.00  0.00    +0.000 A 
ATOM      5  C   UNL     1      -1.584  -0.680  -3.219  0.00  0.00    +0.000 A 
ATOM      6  C   UNL     1      -2.511  -0.064  -2.368  0.00  0.00    +0.000 A 
ATOM      7  C   UNL     1      -2.259  -0.022  -1.001  0.00  0.00    +0.000 A 
ATOM      8  N   UNL     1      -3.026   0.666  -0.074  0.00  0.00    +0.000 N 
ATOM      9  N   UNL     1      -1.155  -0.592  -0.475  0.00  0.00    +0.000 NA
ATOM     10  C   UNL     1      -0.259  -1.163  -1.312  0.00  0.00    +0.000 A 
ATOM     11  H   UNL     1      -2.739   0.394   0.863  0.00  0.00    +0.000 HD
BRANCH   4  13
ATOM     12  N   UNL     1       1.426  -2.280  -4.154  0.00  0.00    +0.000 NA
ATOM     13  C   UNL     1       0.590  -1.813  -3.501  0.00  0.00    +0.000 C 
ENDBRANCH   4  13
ENDBRANCH   1   8
BRANCH   1  14
ATOM     14  C   UNL     1      -5.442   0.176   0.155  0.00  0.00    +0.000 A 
ATOM     15  C   UNL     1      -5.795  -0.814  -0.761  0.00  0.00    +0.000 A 
ATOM     16  C   UNL     1      -6.260  -2.062  -0.316  0.00  0.00    +0.000 A 
ATOM     17  C   UNL     1      -6.518  -2.192   1.052  0.00  0.00    +0.000 A 
ATOM     18  C   UNL     1      -6.299  -1.108   1.882  0.00  0.00    +0.000 A 
ATOM     19  N   UNL     1      -5.760   0.052   1.469  0.00  0.00    +0.000 NA
BRANCH  16  20
ATOM     20  C   UNL     1      -6.337  -3.206  -1.245  0.00  0.00    +0.000 A 
ATOM     21  C   UNL     1      -5.509  -3.331  -2.359  0.00  0.00    +0.000 A 
ATOM     22  N   UNL     1      -5.523  -4.368  -3.226  0.00  0.00    +0.000 NA
ATOM     23  C   UNL     1      -6.399  -5.340  -2.943  0.00  0.00    +0.000 A 
ATOM     24  N   UNL     1      -7.244  -5.354  -1.902  0.00  0.00    +0.000 NA
ATOM     25  C   UNL     1      -7.187  -4.287  -1.079  0.00  0.00    +0.000 A 
ENDBRANCH  16  20
ENDBRANCH   1  14
TORSDOF 4
