REMARK  Name = 
REMARK  6 active torsions:
REMARK  status: ('A' for Active; 'I' for Inactive)
REMARK    1  A    between atoms: C_2  and  C_3
REMARK    2  A    between atoms: N_10  and  C_11
REMARK    3  A    between atoms: C_11  and  C_12
REMARK    4  A    between atoms: C_15  and  C_16
REMARK    5  A    between atoms: C_16  and  N_17
REMARK    6  A    between atoms: C_18  and  C_20
REMARK                            x       y       z     vdW  Elec       q    Type
REMARK                         _______ _______ _______ _____ _____    ______ ____
ROOT
ATOM      1  C   UNL     1       0.639  -4.076  -0.023  0.00  0.00    +0.000 A 
ATOM      2  C   UNL     1       0.009  -5.325   0.027  0.00  0.00    +0.000 A 
ATOM      3  C   UNL     1      -1.386  -5.418   0.091  0.00  0.00    +0.000 A 
ATOM      4  C   UNL     1      -2.182  -4.265   0.083  0.00  0.00    +0.000 A 
ATOM      5  C   UNL     1      -1.551  -3.015   0.055  0.00  0.00    +0.000 A 
ATOM      6  C   UNL     1      -0.157  -2.921  -0.007  0.00  0.00    +0.000 A 
ENDROOT
BRANCH   1   7
ATOM      7  C   UNL     1       2.140  -3.975  -0.066  0.00  0.00    +0.000 C 
BRANCH   7  15
ATOM      8  C   UNL     1       4.163  -4.676  -3.939  0.00  0.00    +0.000 A 
ATOM      9  C   UNL     1       4.810  -4.231  -5.081  0.00  0.00    +0.000 A 
ATOM     10  C   UNL     1       5.492  -3.038  -4.754  0.00  0.00    +0.000 A 
ATOM     11  C   UNL     1       5.276  -2.810  -3.416  0.00  0.00    +0.000 A 
ATOM     12  N   UNL     1       4.424  -3.786  -2.912  0.00  0.00    +0.000 N 
ATOM     13  C   UNL     1       4.026  -3.845  -1.563  0.00  0.00    +0.000 C 
ATOM     14  O   UNL     1       4.828  -3.553  -0.689  0.00  0.00    +0.000 OA
ATOM     15  N   UNL     1       2.684  -4.109  -1.401  0.00  0.00    +0.000 N 
ATOM     16  H   UNL     1       2.047  -4.017  -2.182  0.00  0.00    +0.000 HD
BRANCH   8  18
ATOM     17  N   UNL     1       2.873  -6.897  -3.688  0.00  0.00    +0.000 NA
ATOM     18  C   UNL     1       3.448  -5.900  -3.798  0.00  0.00    +0.000 C 
ENDBRANCH   8  18
ENDBRANCH   7  15
ENDBRANCH   1   7
BRANCH   4  19
ATOM     19  C   UNL     1      -3.685  -4.364   0.120  0.00  0.00    +0.000 C 
BRANCH  19  20
ATOM     20  N   UNL     1      -4.198  -4.290   1.466  0.00  0.00    +0.000 N 
ATOM     21  C   UNL     1      -5.551  -4.258   1.694  0.00  0.00    +0.000 C 
ATOM     22  O   UNL     1      -6.363  -4.141   0.778  0.00  0.00    +0.000 OA
ATOM     23  H   UNL     1      -3.572  -4.569   2.216  0.00  0.00    +0.000 HD
BRANCH  21  24
ATOM     24  C   UNL     1      -5.996  -4.361   3.088  0.00  0.00    +0.000 A 
ATOM     25  C   UNL     1      -7.220  -3.824   3.467  0.00  0.00    +0.000 A 
ATOM     26  S   UNL     1      -7.622  -4.125   5.097  0.00  0.00    +0.000 S 
ATOM     27  C   UNL     1      -6.208  -5.042   5.331  0.00  0.00    +0.000 A 
ATOM     28  N   UNL     1      -5.987  -5.708   6.496  0.00  0.00    +0.000 NA
ATOM     29  C   UNL     1      -4.884  -6.379   6.526  0.00  0.00    +0.000 A 
ATOM     30  N   UNL     1      -3.960  -6.407   5.513  0.00  0.00    +0.000 N 
ATOM     31  C   UNL     1      -4.117  -5.709   4.340  0.00  0.00    +0.000 A 
ATOM     32  O   UNL     1      -3.229  -5.670   3.495  0.00  0.00    +0.000 OA
ATOM     33  C   UNL     1      -5.385  -5.018   4.218  0.00  0.00    +0.000 A 
ATOM     34  H   UNL     1      -3.089  -6.904   5.623  0.00  0.00    +0.000 HD
ENDBRANCH  21  24
ENDBRANCH  19  20
ENDBRANCH   4  19
TORSDOF 6
