REMARK  Name = 
REMARK  6 active torsions:
REMARK  status: ('A' for Active; 'I' for Inactive)
REMARK    1  A    between atoms: C_2  and  C_19
REMARK    2  A    between atoms: N_3  and  C_4
REMARK    3  A    between atoms: C_4  and  C_5
REMARK    4  A    between atoms: C_8  and  C_9
REMARK    5  A    between atoms: C_9  and  O_10
REMARK    6  A    between atoms: O_10  and  C_11
REMARK                            x       y       z     vdW  Elec       q    Type
REMARK                         _______ _______ _______ _____ _____    ______ ____
ROOT
ATOM      1  O   UNL     1      -0.033  -0.646   1.358  0.00  0.00    +0.000 OA
ATOM      2  C   UNL     1       0.540  -1.142   2.313  0.00  0.00    +0.000 C 
ATOM      3  N   UNL     1       1.544  -2.083   2.220  0.00  0.00    +0.000 N 
ATOM      4  H   UNL     1       2.074  -2.271   3.055  0.00  0.00    +0.000 HD
ENDROOT
BRANCH   2   5
ATOM      5  C   UNL     1       0.420  -0.657   3.688  0.00  0.00    +0.000 A 
ATOM      6  C   UNL     1       0.339   0.686   4.004  0.00  0.00    +0.000 A 
ATOM      7  S   UNL     1       0.808   0.974   5.633  0.00  0.00    +0.000 S 
ATOM      8  C   UNL     1       0.984  -0.696   5.940  0.00  0.00    +0.000 A 
ATOM      9  N   UNL     1       1.525  -1.179   7.091  0.00  0.00    +0.000 NA
ATOM     10  C   UNL     1       1.546  -2.473   7.163  0.00  0.00    +0.000 A 
ATOM     11  N   UNL     1       1.022  -3.324   6.219  0.00  0.00    +0.000 N 
ATOM     12  C   UNL     1       0.446  -2.880   5.055  0.00  0.00    +0.000 A 
ATOM     13  O   UNL     1      -0.080  -3.641   4.255  0.00  0.00    +0.000 OA
ATOM     14  C   UNL     1       0.535  -1.445   4.876  0.00  0.00    +0.000 A 
ATOM     15  H   UNL     1       0.997  -4.321   6.375  0.00  0.00    +0.000 HD
ENDBRANCH   2   5
BRANCH   3  16
ATOM     16  C   UNL     1       2.174  -2.443   0.978  0.00  0.00    +0.000 C 
BRANCH  16  17
ATOM     17  C   UNL     1       3.153  -3.545   1.225  0.00  0.00    +0.000 A 
ATOM     18  C   UNL     1       2.819  -4.876   1.101  0.00  0.00    +0.000 A 
ATOM     19  N   UNL     1       3.657  -5.892   1.390  0.00  0.00    +0.000 NA
ATOM     20  C   UNL     1       4.890  -5.559   1.829  0.00  0.00    +0.000 A 
ATOM     21  N   UNL     1       5.306  -4.288   2.012  0.00  0.00    +0.000 NA
ATOM     22  C   UNL     1       4.429  -3.313   1.700  0.00  0.00    +0.000 A 
BRANCH  20  23
ATOM     23  C   UNL     1       5.856  -6.676   2.163  0.00  0.00    +0.000 C 
BRANCH  23  24
ATOM     24  O   UNL     1       6.592  -7.040   0.996  0.00  0.00    +0.000 OA
BRANCH  24  25
ATOM     25  C   UNL     1       7.415  -8.115   1.241  0.00  0.00    +0.000 A 
ATOM     26  N   UNL     1       7.730  -8.846   0.164  0.00  0.00    +0.000 NA
ATOM     27  C   UNL     1       8.545  -9.895   0.379  0.00  0.00    +0.000 A 
ATOM     28  C   UNL     1       9.059 -10.217   1.613  0.00  0.00    +0.000 A 
ATOM     29  C   UNL     1       8.685  -9.389   2.644  0.00  0.00    +0.000 A 
ATOM     30  N   UNL     1       7.862  -8.335   2.491  0.00  0.00    +0.000 NA
ENDBRANCH  24  25
ENDBRANCH  23  24
ENDBRANCH  20  23
ENDBRANCH  16  17
ENDBRANCH   3  16
TORSDOF 6
