REMARK  Name = 
REMARK  10 active torsions:
REMARK  status: ('A' for Active; 'I' for Inactive)
REMARK    1  A    between atoms: C_1  and  C_2
REMARK    2  A    between atoms: C_4  and  C_5
REMARK    3  A    between atoms: C_9  and  C_10
REMARK    4  A    between atoms: C_10  and  C_11
REMARK    5  A    between atoms: C_10  and  C_12
REMARK    6  A    between atoms: C_10  and  C_13
REMARK    7  A    between atoms: C_13  and  N_14
REMARK    8  A    between atoms: N_14  and  C_15
REMARK    9  A    between atoms: C_18  and  C_19
REMARK   10  A    between atoms: C_22  and  C_23
REMARK                            x       y       z     vdW  Elec       q    Type
REMARK                         _______ _______ _______ _____ _____    ______ ____
ROOT
ATOM      1  C   UNL     1      -6.056  -4.968  -1.451  0.00  0.00    +0.000 C 
ENDROOT
BRANCH   1   2
ATOM      2  C   UNL     1      -5.100  -3.786  -1.803  0.00  0.00    +0.000 C 
ATOM      3  C   UNL     1      -5.899  -2.464  -1.677  0.00  0.00    +0.000 C 
ATOM      4  C   UNL     1      -4.580  -3.936  -3.248  0.00  0.00    +0.000 C 
BRANCH   2   9
ATOM      5  C   UNL     1      -1.964  -2.403   0.020  0.00  0.00    +0.000 A 
ATOM      6  C   UNL     1      -1.834  -3.334   1.061  0.00  0.00    +0.000 A 
ATOM      7  C   UNL     1      -2.670  -4.447   1.143  0.00  0.00    +0.000 A 
ATOM      8  C   UNL     1      -3.692  -4.632   0.212  0.00  0.00    +0.000 A 
ATOM      9  C   UNL     1      -3.895  -3.714  -0.828  0.00  0.00    +0.000 A 
ATOM     10  C   UNL     1      -2.982  -2.642  -0.926  0.00  0.00    +0.000 A 
BRANCH   5  14
ATOM     11  C   UNL     1      -1.228   2.387  -1.335  0.00  0.00    +0.000 C 
ATOM     12  C   UNL     1      -0.746   1.116  -0.702  0.00  0.00    +0.000 A 
ATOM     13  C   UNL     1      -1.573  -0.001  -0.631  0.00  0.00    +0.000 A 
ATOM     14  C   UNL     1      -1.104  -1.199  -0.063  0.00  0.00    +0.000 A 
ATOM     15  C   UNL     1       0.206  -1.189   0.428  0.00  0.00    +0.000 A 
ATOM     16  C   UNL     1       0.959  -0.029   0.336  0.00  0.00    +0.000 A 
ATOM     17  N   UNL     1       0.515   1.116  -0.220  0.00  0.00    +0.000 NA
ENDBRANCH   5  14
ENDBRANCH   2   9
ENDBRANCH   1   2
BRANCH   1  18
ATOM     18  N   UNL     1      -7.238  -5.068  -2.322  0.00  0.00    +0.000 N 
ATOM     19  H   UNL     1      -6.998  -5.033  -3.309  0.00  0.00    +0.000 HD
BRANCH  18  20
ATOM     20  C   UNL     1      -8.147  -6.100  -2.056  0.00  0.00    +0.000 A 
ATOM     21  C   UNL     1      -8.908  -6.663  -3.075  0.00  0.00    +0.000 A 
ATOM     22  N   UNL     1      -9.849  -7.622  -2.903  0.00  0.00    +0.000 NA
ATOM     23  C   UNL     1     -10.113  -8.023  -1.619  0.00  0.00    +0.000 A 
ATOM     24  C   UNL     1      -9.434  -7.530  -0.519  0.00  0.00    +0.000 A 
ATOM     25  C   UNL     1      -8.450  -6.546  -0.769  0.00  0.00    +0.000 A 
BRANCH  23  26
ATOM     26  C   UNL     1     -11.235  -9.011  -1.545  0.00  0.00    +0.000 C 
ATOM     27  N   UNL     1     -11.353  -9.830  -2.641  0.00  0.00    +0.000 N 
ATOM     28  O   UNL     1     -12.033  -9.060  -0.628  0.00  0.00    +0.000 OA
ATOM     29  H   UNL     1     -10.852  -9.577  -3.486  0.00  0.00    +0.000 HD
ATOM     30  H   UNL     1     -12.189 -10.391  -2.717  0.00  0.00    +0.000 HD
ENDBRANCH  23  26
BRANCH  24  31
ATOM     31  C   UNL     1      -9.595  -7.980   0.901  0.00  0.00    +0.000 C 
ATOM     32  F   UNL     1     -10.485  -8.960   1.173  0.00  0.00    +0.000 F 
ATOM     33  F   UNL     1      -8.405  -8.456   1.385  0.00  0.00    +0.000 F 
ATOM     34  F   UNL     1      -9.911  -6.939   1.727  0.00  0.00    +0.000 F 
ENDBRANCH  24  31
ENDBRANCH  18  20
ENDBRANCH   1  18
TORSDOF 7
