REMARK  Name = 
REMARK  5 active torsions:
REMARK  status: ('A' for Active; 'I' for Inactive)
REMARK    1  A    between atoms: C_1  and  C_2
REMARK    2  A    between atoms: C_5  and  C_6
REMARK    3  A    between atoms: C_6  and  C_7
REMARK    4  A    between atoms: C_6  and  N_8
REMARK    5  A    between atoms: C_12  and  C_13
REMARK                            x       y       z     vdW  Elec       q    Type
REMARK                         _______ _______ _______ _____ _____    ______ ____
ROOT
ATOM      1  N   UNL     1      -3.919   1.375  -0.008  0.00  0.00    +0.000 N 
ATOM      2  C   UNL     1      -4.375   1.938  -1.182  0.00  0.00    +0.000 A 
ATOM      3  C   UNL     1      -4.851   1.201  -2.258  0.00  0.00    +0.000 A 
ATOM      4  C   UNL     1      -5.403   1.853  -3.361  0.00  0.00    +0.000 A 
ATOM      5  C   UNL     1      -5.478   3.239  -3.380  0.00  0.00    +0.000 A 
ATOM      6  C   UNL     1      -4.967   3.908  -2.280  0.00  0.00    +0.000 A 
ATOM      7  N   UNL     1      -4.418   3.287  -1.195  0.00  0.00    +0.000 NA
ATOM      8  H   UNL     1      -3.506   2.099   0.566  0.00  0.00    +0.000 HD
ENDROOT
BRANCH   5   9
ATOM      9  C   UNL     1      -6.103   3.892  -4.558  0.00  0.00    +0.000 C 
ATOM     10  N   UNL     1      -6.187   5.253  -4.610  0.00  0.00    +0.000 N 
ATOM     11  O   UNL     1      -6.553   3.225  -5.484  0.00  0.00    +0.000 OA
ATOM     12  H   UNL     1      -5.854   5.895  -3.912  0.00  0.00    +0.000 HD
ATOM     13  H   UNL     1      -6.629   5.644  -5.433  0.00  0.00    +0.000 HD
ENDBRANCH   5   9
BRANCH   1  14
ATOM     14  C   UNL     1      -3.298   0.056   0.065  0.00  0.00    +0.000 C 
ATOM     15  C   UNL     1      -1.785   0.182  -0.073  0.00  0.00    +0.000 C 
BRANCH  14  20
ATOM     16  C   UNL     1      -4.976  -2.867   4.851  0.00  0.00    +0.000 C 
ATOM     17  C   UNL     1      -4.458  -2.125   3.655  0.00  0.00    +0.000 A 
ATOM     18  C   UNL     1      -4.104  -2.799   2.485  0.00  0.00    +0.000 A 
ATOM     19  C   UNL     1      -3.710  -2.083   1.349  0.00  0.00    +0.000 A 
ATOM     20  C   UNL     1      -3.666  -0.676   1.352  0.00  0.00    +0.000 A 
ATOM     21  C   UNL     1      -3.964  -0.013   2.550  0.00  0.00    +0.000 A 
ATOM     22  C   UNL     1      -4.374  -0.728   3.681  0.00  0.00    +0.000 A 
ENDBRANCH  14  20
ENDBRANCH   1  14
TORSDOF 3
