REMARK  Name = 
REMARK  9 active torsions:
REMARK  status: ('A' for Active; 'I' for Inactive)
REMARK    1  A    between atoms: C_1  and  C_2
REMARK    2  A    between atoms: C_2  and  C_3
REMARK    3  A    between atoms: C_2  and  C_4
REMARK    4  A    between atoms: C_2  and  C_5
REMARK    5  A    between atoms: C_9  and  C_10
REMARK    6  A    between atoms: N_16  and  C_17
REMARK    7  A    between atoms: C_17  and  C_18
REMARK    8  A    between atoms: C_21  and  C_22
REMARK    9  A    between atoms: C_22  and  N_23
REMARK                            x       y       z     vdW  Elec       q    Type
REMARK                         _______ _______ _______ _____ _____    ______ ____
ROOT
ATOM      1  C   UNL     1       2.913  -0.513  -1.358  0.00  0.00    +0.000 A 
ATOM      2  N   UNL     1       3.418   0.207  -2.355  0.00  0.00    +0.000 NA
ATOM      3  C   UNL     1       3.604  -0.647  -3.406  0.00  0.00    +0.000 A 
ATOM      4  C   UNL     1       4.128  -0.432  -4.691  0.00  0.00    +0.000 A 
ATOM      5  C   UNL     1       4.191  -1.535  -5.552  0.00  0.00    +0.000 A 
ATOM      6  C   UNL     1       3.724  -2.768  -5.086  0.00  0.00    +0.000 A 
ATOM      7  N   UNL     1       3.211  -3.022  -3.850  0.00  0.00    +0.000 NA
ATOM      8  C   UNL     1       3.187  -1.925  -3.071  0.00  0.00    +0.000 A 
ATOM      9  N   UNL     1       2.794  -1.840  -1.753  0.00  0.00    +0.000 N 
ENDROOT
BRANCH   5  10
ATOM     10  C   UNL     1       4.730  -1.481  -6.930  0.00  0.00    +0.000 C 
ATOM     11  N   UNL     1       5.198  -0.291  -7.412  0.00  0.00    +0.000 N 
ATOM     12  O   UNL     1       4.765  -2.482  -7.641  0.00  0.00    +0.000 OA
ATOM     13  H   UNL     1       5.213   0.582  -6.908  0.00  0.00    +0.000 HD
ATOM     14  H   UNL     1       5.563  -0.292  -8.360  0.00  0.00    +0.000 HD
ENDBRANCH   5  10
BRANCH   1  16
ATOM     15  C   UNL     1       0.971   0.488  -0.157  0.00  0.00    +0.000 C 
ATOM     16  C   UNL     1       2.459   0.115  -0.035  0.00  0.00    +0.000 C 
ATOM     17  C   UNL     1       3.271   1.407   0.217  0.00  0.00    +0.000 C 
ATOM     18  C   UNL     1       2.671  -0.753   1.213  0.00  0.00    +0.000 C 
ENDBRANCH   1  16
BRANCH   9  19
ATOM     19  C   UNL     1       2.376  -3.005  -0.979  0.00  0.00    +0.000 C 
BRANCH  19  20
ATOM     20  C   UNL     1       3.495  -3.582  -0.132  0.00  0.00    +0.000 A 
ATOM     21  C   UNL     1       3.204  -4.140   1.127  0.00  0.00    +0.000 A 
ATOM     22  C   UNL     1       4.231  -4.588   1.968  0.00  0.00    +0.000 A 
ATOM     23  C   UNL     1       5.571  -4.514   1.562  0.00  0.00    +0.000 A 
ATOM     24  C   UNL     1       5.854  -4.023   0.286  0.00  0.00    +0.000 A 
ATOM     25  C   UNL     1       4.832  -3.577  -0.555  0.00  0.00    +0.000 A 
BRANCH  23  26
ATOM     26  C   UNL     1       6.691  -4.903   2.493  0.00  0.00    +0.000 C 
BRANCH  26  27
ATOM     27  N   UNL     1       7.508  -5.979   1.947  0.00  0.00    +0.000 NA
ATOM     28  H   UNL     1       6.933  -6.815   1.856  0.00  0.00    +0.000 HD
ATOM     29  H   UNL     1       8.249  -6.204   2.607  0.00  0.00    +0.000 HD
ENDBRANCH  26  27
ENDBRANCH  23  26
ENDBRANCH  19  20
ENDBRANCH   9  19
TORSDOF 6
