REMARK  Name = 
REMARK  6 active torsions:
REMARK  status: ('A' for Active; 'I' for Inactive)
REMARK    1  A    between atoms: C_1  and  N_2
REMARK    2  A    between atoms: N_2  and  C_3
REMARK    3  A    between atoms: C_3  and  C_4
REMARK    4  A    between atoms: C_7  and  C_8
REMARK    5  A    between atoms: C_8  and  N_9
REMARK    6  A    between atoms: C_16  and  C_18
REMARK                            x       y       z     vdW  Elec       q    Type
REMARK                         _______ _______ _______ _____ _____    ______ ____
ROOT
ATOM      1  C   UNL     1       5.010   0.697  -2.702  0.00  0.00    +0.000 C 
ATOM      2  N   UNL     1       4.573   0.355  -1.354  0.00  0.00    +0.000 N 
ATOM      3  C   UNL     1       5.576  -0.084  -0.469  0.00  0.00    +0.000 C 
ATOM      4  O   UNL     1       6.747  -0.190  -0.831  0.00  0.00    +0.000 OA
ENDROOT
BRANCH   3   5
ATOM      5  C   UNL     1       5.211  -0.470   0.902  0.00  0.00    +0.000 A 
ATOM      6  C   UNL     1       4.127  -1.268   1.230  0.00  0.00    +0.000 A 
ATOM      7  S   UNL     1       4.013  -1.615   2.898  0.00  0.00    +0.000 S 
ATOM      8  C   UNL     1       5.494  -0.842   3.211  0.00  0.00    +0.000 A 
ATOM      9  N   UNL     1       6.053  -0.881   4.447  0.00  0.00    +0.000 NA
ATOM     10  C   UNL     1       7.214  -0.316   4.520  0.00  0.00    +0.000 A 
ATOM     11  N   UNL     1       7.844   0.322   3.478  0.00  0.00    +0.000 N 
ATOM     12  C   UNL     1       7.244   0.509   2.248  0.00  0.00    +0.000 A 
ATOM     13  O   UNL     1       7.711   1.297   1.433  0.00  0.00    +0.000 OA
ATOM     14  C   UNL     1       6.006  -0.229   2.084  0.00  0.00    +0.000 A 
ATOM     15  H   UNL     1       8.714   0.805   3.620  0.00  0.00    +0.000 HD
ENDBRANCH   3   5
BRANCH   2  16
ATOM     16  C   UNL     1       3.249   0.774  -0.890  0.00  0.00    +0.000 C 
BRANCH  16  17
ATOM     17  C   UNL     1       2.354   1.519  -1.847  0.00  0.00    +0.000 A 
ATOM     18  C   UNL     1       1.496   0.813  -2.705  0.00  0.00    +0.000 A 
ATOM     19  C   UNL     1       0.594   1.493  -3.520  0.00  0.00    +0.000 A 
ATOM     20  C   UNL     1       0.523   2.892  -3.493  0.00  0.00    +0.000 A 
ATOM     21  C   UNL     1       1.410   3.598  -2.665  0.00  0.00    +0.000 A 
ATOM     22  C   UNL     1       2.320   2.918  -1.851  0.00  0.00    +0.000 A 
BRANCH  20  23
ATOM     23  C   UNL     1      -0.483   3.625  -4.359  0.00  0.00    +0.000 C 
BRANCH  23  24
ATOM     24  N   UNL     1      -1.860   3.167  -4.146  0.00  0.00    +0.000 NA
ATOM     25  C   UNL     1      -2.381   3.512  -2.820  0.00  0.00    +0.000 C 
ATOM     26  C   UNL     1      -3.697   4.230  -3.065  0.00  0.00    +0.000 C 
ATOM     27  N   UNL     1      -3.654   4.662  -4.461  0.00  0.00    +0.000 NA
ATOM     28  C   UNL     1      -2.786   3.705  -5.129  0.00  0.00    +0.000 C 
ATOM     29  H   UNL     1      -3.211   5.573  -4.510  0.00  0.00    +0.000 HD
ENDBRANCH  23  24
ENDBRANCH  20  23
ENDBRANCH  16  17
ENDBRANCH   2  16
TORSDOF 5
