REMARK  Name = 
REMARK  6 active torsions:
REMARK  status: ('A' for Active; 'I' for Inactive)
REMARK    1  A    between atoms: C_2  and  C_19
REMARK    2  A    between atoms: N_3  and  C_4
REMARK    3  A    between atoms: C_4  and  C_5
REMARK    4  A    between atoms: C_8  and  C_9
REMARK    5  A    between atoms: C_9  and  N_10
REMARK    6  A    between atoms: N_10  and  C_11
REMARK                            x       y       z     vdW  Elec       q    Type
REMARK                         _______ _______ _______ _____ _____    ______ ____
ROOT
ATOM      1  C   UNL     1       2.271   2.271  -1.247  0.00  0.00    +0.000 C 
ENDROOT
BRANCH   1   2
ATOM      2  C   UNL     1       3.287   3.280  -1.795  0.00  0.00    +0.000 C 
ATOM      3  C   UNL     1       4.722   2.972  -1.335  0.00  0.00    +0.000 C 
ATOM      4  C   UNL     1       5.713   4.038  -1.808  0.00  0.00    +0.000 C 
ATOM      5  C   UNL     1       5.294   5.448  -1.362  0.00  0.00    +0.000 C 
ATOM      6  C   UNL     1       3.857   5.746  -1.823  0.00  0.00    +0.000 C 
ATOM      7  C   UNL     1       2.873   4.686  -1.348  0.00  0.00    +0.000 C 
BRANCH   5   8
ATOM      8  C   UNL     1       6.288   6.506  -1.893  0.00  0.00    +0.000 C 
BRANCH   8   9
ATOM      9  N   UNL     1       5.868   7.840  -1.464  0.00  0.00    +0.000 NA
ATOM     10  H   UNL     1       5.711   7.822  -0.455  0.00  0.00    +0.000 HD
BRANCH   9  11
ATOM     11  C   UNL     1       6.800   8.930  -1.779  0.00  0.00    +0.000 C 
ATOM     12  C   UNL     1       6.207  10.232  -1.208  0.00  0.00    +0.000 C 
ATOM     13  C   UNL     1       5.052  10.764  -2.058  0.00  0.00    +0.000 C 
ATOM     14  N   UNL     1       5.478  11.012  -3.437  0.00  0.00    +0.000 NA
ATOM     15  C   UNL     1       5.940   9.761  -4.048  0.00  0.00    +0.000 C 
ATOM     16  C   UNL     1       7.100   9.134  -3.275  0.00  0.00    +0.000 C 
ATOM     17  H   UNL     1       6.243  11.687  -3.434  0.00  0.00    +0.000 HD
ENDBRANCH   9  11
ENDBRANCH   8   9
ENDBRANCH   5   8
ENDBRANCH   1   2
BRANCH   1  20
ATOM     18  O   UNL     1       1.358   0.939  -3.594  0.00  0.00    +0.000 OA
ATOM     19  C   UNL     1       2.028   0.329  -2.769  0.00  0.00    +0.000 C 
ATOM     20  N   UNL     1       2.561   0.919  -1.653  0.00  0.00    +0.000 N 
ATOM     21  H   UNL     1       3.037   0.345  -0.970  0.00  0.00    +0.000 HD
BRANCH  19  22
ATOM     22  C   UNL     1       2.363  -1.089  -2.936  0.00  0.00    +0.000 A 
ATOM     23  C   UNL     1       2.405  -1.657  -4.200  0.00  0.00    +0.000 A 
ATOM     24  S   UNL     1       2.865  -3.301  -4.187  0.00  0.00    +0.000 S 
ATOM     25  C   UNL     1       2.975  -3.318  -2.488  0.00  0.00    +0.000 A 
ATOM     26  N   UNL     1       3.330  -4.446  -1.816  0.00  0.00    +0.000 NA
ATOM     27  C   UNL     1       3.332  -4.324  -0.530  0.00  0.00    +0.000 A 
ATOM     28  N   UNL     1       3.012  -3.177   0.146  0.00  0.00    +0.000 N 
ATOM     29  C   UNL     1       2.693  -2.002  -0.488  0.00  0.00    +0.000 A 
ATOM     30  O   UNL     1       2.499  -0.973   0.153  0.00  0.00    +0.000 OA
ATOM     31  C   UNL     1       2.666  -2.087  -1.938  0.00  0.00    +0.000 A 
ATOM     32  H   UNL     1       3.049  -3.142   1.155  0.00  0.00    +0.000 HD
ENDBRANCH  19  22
ENDBRANCH   1  20
TORSDOF 6
