REMARK  Name = 
REMARK  12 active torsions:
REMARK  status: ('A' for Active; 'I' for Inactive)
REMARK    1  A    between atoms: C_1  and  N_2
REMARK    2  A    between atoms: N_2  and  C_3
REMARK    3  A    between atoms: N_2  and  C_4
REMARK    4  A    between atoms: C_4  and  C_5
REMARK    5  A    between atoms: C_5  and  O_6
REMARK    6  A    between atoms: O_6  and  C_7
REMARK    7  A    between atoms: N_9  and  C_10
REMARK    8  A    between atoms: C_13  and  C_14
REMARK    9  A    between atoms: C_14  and  C_17
REMARK   10  A    between atoms: C_17  and  N_18
REMARK   11  A    between atoms: N_18  and  C_19
REMARK   12  A    between atoms: C_22  and  C_23
REMARK                            x       y       z     vdW  Elec       q    Type
REMARK                         _______ _______ _______ _____ _____    ______ ____
ROOT
ATOM      1  C   UNL     1      12.356  -2.581  -5.002  0.00  0.00    +0.000 C 
ATOM      2  F   UNL     1      12.535  -3.496  -6.002  0.00  0.00    +0.000 F 
ATOM      3  F   UNL     1      12.899  -1.417  -5.485  0.00  0.00    +0.000 F 
ENDROOT
BRANCH   1   7
ATOM      4  C   UNL     1       8.148  -1.855  -4.149  0.00  0.00    +0.000 A 
ATOM      5  C   UNL     1       8.985  -2.365  -3.160  0.00  0.00    +0.000 A 
ATOM      6  C   UNL     1      10.327  -2.633  -3.425  0.00  0.00    +0.000 A 
ATOM      7  C   UNL     1      10.875  -2.398  -4.693  0.00  0.00    +0.000 A 
ATOM      8  C   UNL     1      10.008  -1.959  -5.708  0.00  0.00    +0.000 A 
ATOM      9  C   UNL     1       8.654  -1.702  -5.443  0.00  0.00    +0.000 A 
BRANCH   4  12
ATOM     10  C   UNL     1       6.207  -1.436  -2.668  0.00  0.00    +0.000 C 
ATOM     11  O   UNL     1       6.722  -1.541  -1.566  0.00  0.00    +0.000 OA
ATOM     12  N   UNL     1       6.814  -1.497  -3.895  0.00  0.00    +0.000 N 
ATOM     13  H   UNL     1       6.210  -1.285  -4.676  0.00  0.00    +0.000 HD
BRANCH  10  14
ATOM     14  O   UNL     1       4.867  -1.316  -2.852  0.00  0.00    +0.000 OA
BRANCH  14  15
ATOM     15  C   UNL     1       4.119  -2.137  -1.945  0.00  0.00    +0.000 C 
BRANCH  15  16
ATOM     16  C   UNL     1       3.405  -1.348  -0.840  0.00  0.00    +0.000 C 
BRANCH  16  18
ATOM     17  C   UNL     1       1.978  -1.434   1.116  0.00  0.00    +0.000 C 
ATOM     18  N   UNL     1       2.610  -2.219   0.054  0.00  0.00    +0.000 NA
ATOM     19  C   UNL     1       1.593  -2.989  -0.664  0.00  0.00    +0.000 C 
ENDBRANCH  16  18
ENDBRANCH  15  16
ENDBRANCH  14  15
ENDBRANCH  10  14
ENDBRANCH   4  12
ENDBRANCH   1   7
BRANCH   1  20
ATOM     20  C   UNL     1      13.210  -3.014  -3.776  0.00  0.00    +0.000 C 
BRANCH  20  21
ATOM     21  N   UNL     1      14.655  -3.150  -4.053  0.00  0.00    +0.000 N 
ATOM     22  H   UNL     1      15.007  -2.368  -4.607  0.00  0.00    +0.000 HD
BRANCH  21  23
ATOM     23  C   UNL     1      15.492  -3.466  -2.971  0.00  0.00    +0.000 A 
ATOM     24  C   UNL     1      15.088  -4.281  -1.905  0.00  0.00    +0.000 A 
ATOM     25  C   UNL     1      15.981  -4.654  -0.893  0.00  0.00    +0.000 A 
ATOM     26  C   UNL     1      17.310  -4.242  -0.942  0.00  0.00    +0.000 A 
ATOM     27  C   UNL     1      17.739  -3.439  -2.004  0.00  0.00    +0.000 A 
ATOM     28  C   UNL     1      16.836  -3.073  -3.013  0.00  0.00    +0.000 A 
BRANCH  26  29
ATOM     29  C   UNL     1      18.222  -4.684   0.146  0.00  0.00    +0.000 C 
ATOM     30  N   UNL     1      19.562  -4.747  -0.141  0.00  0.00    +0.000 N 
ATOM     31  O   UNL     1      17.802  -5.021   1.244  0.00  0.00    +0.000 OA
ATOM     32  H   UNL     1      19.911  -4.735  -1.086  0.00  0.00    +0.000 HD
ATOM     33  H   UNL     1      20.141  -5.174   0.570  0.00  0.00    +0.000 HD
ENDBRANCH  26  29
ENDBRANCH  21  23
ENDBRANCH  20  21
ENDBRANCH   1  20
TORSDOF 10
