REMARK  Name = 
REMARK  7 active torsions:
REMARK  status: ('A' for Active; 'I' for Inactive)
REMARK    1  A    between atoms: C_2  and  C_4
REMARK    2  A    between atoms: C_7  and  N_8
REMARK    3  A    between atoms: N_8  and  C_9
REMARK    4  A    between atoms: C_9  and  C_10
REMARK    5  A    between atoms: C_10  and  C_11
REMARK    6  A    between atoms: C_15  and  C_16
REMARK    7  A    between atoms: C_16  and  C_17
REMARK                            x       y       z     vdW  Elec       q    Type
REMARK                         _______ _______ _______ _____ _____    ______ ____
ROOT
ATOM      1  C   UNL     1       5.236  -4.722   3.770  0.00  0.00    +0.000 C 
ENDROOT
BRANCH   1   2
ATOM      2  N   UNL     1       5.490  -3.287   3.615  0.00  0.00    +0.000 N 
ATOM      3  H   UNL     1       6.426  -3.094   3.264  0.00  0.00    +0.000 HD
BRANCH   2   7
ATOM      4  C   UNL     1       2.727  -0.716   1.858  0.00  0.00    +0.000 A 
ATOM      5  C   UNL     1       2.243  -1.882   2.431  0.00  0.00    +0.000 A 
ATOM      6  C   UNL     1       3.157  -2.769   3.004  0.00  0.00    +0.000 A 
ATOM      7  C   UNL     1       4.527  -2.492   2.982  0.00  0.00    +0.000 A 
ATOM      8  C   UNL     1       4.891  -1.264   2.413  0.00  0.00    +0.000 A 
ATOM      9  N   UNL     1       4.044  -0.379   1.831  0.00  0.00    +0.000 NA
BRANCH   4  11
ATOM     10  N   UNL     1       2.356   1.349   0.648  0.00  0.00    +0.000 N 
ATOM     11  C   UNL     1       1.775   0.256   1.233  0.00  0.00    +0.000 C 
ATOM     12  O   UNL     1       0.562   0.093   1.238  0.00  0.00    +0.000 OA
ATOM     13  H   UNL     1       1.775   2.052   0.216  0.00  0.00    +0.000 HD
ATOM     14  H   UNL     1       3.364   1.449   0.670  0.00  0.00    +0.000 HD
ENDBRANCH   4  11
ENDBRANCH   2   7
ENDBRANCH   1   2
BRANCH   1  15
ATOM     15  C   UNL     1       6.429  -5.390   4.461  0.00  0.00    +0.000 C 
BRANCH  15  16
ATOM     16  C   UNL     1       6.217  -6.871   4.641  0.00  0.00    +0.000 A 
ATOM     17  C   UNL     1       6.601  -7.773   3.643  0.00  0.00    +0.000 A 
ATOM     18  C   UNL     1       6.387  -9.141   3.810  0.00  0.00    +0.000 A 
ATOM     19  C   UNL     1       5.799  -9.624   4.981  0.00  0.00    +0.000 A 
ATOM     20  C   UNL     1       5.428  -8.744   6.004  0.00  0.00    +0.000 A 
ATOM     21  C   UNL     1       5.621  -7.366   5.813  0.00  0.00    +0.000 A 
BRANCH  20  22
ATOM     22  C   UNL     1       4.879  -9.264   7.311  0.00  0.00    +0.000 C 
BRANCH  22  23
ATOM     23  C   UNL     1       3.371  -9.447   7.263  0.00  0.00    +0.000 C 
ATOM     24  C   UNL     1       2.460  -8.202   7.183  0.00  0.00    +0.000 C 
ATOM     25  N   UNL     1       1.575  -8.822   8.195  0.00  0.00    +0.000 NA
ATOM     26  C   UNL     1       2.711  -9.653   8.647  0.00  0.00    +0.000 C 
ATOM     27  H   UNL     1       0.816  -9.368   7.786  0.00  0.00    +0.000 HD
ENDBRANCH  22  23
ENDBRANCH  20  22
ENDBRANCH  15  16
ENDBRANCH   1  15
TORSDOF 7
