REMARK  Name = 
REMARK  9 active torsions:
REMARK  status: ('A' for Active; 'I' for Inactive)
REMARK    1  A    between atoms: C_1  and  C_2
REMARK    2  A    between atoms: C_2  and  C_3
REMARK    3  A    between atoms: C_2  and  C_4
REMARK    4  A    between atoms: C_2  and  C_5
REMARK    5  A    between atoms: C_9  and  C_10
REMARK    6  A    between atoms: N_17  and  C_18
REMARK    7  A    between atoms: C_18  and  C_19
REMARK    8  A    between atoms: C_22  and  O_23
REMARK    9  A    between atoms: O_23  and  C_24
REMARK                            x       y       z     vdW  Elec       q    Type
REMARK                         _______ _______ _______ _____ _____    ______ ____
ROOT
ATOM      1  C   UNL     1       3.108   1.223  -0.085  0.00  0.00    +0.000 A 
ATOM      2  N   UNL     1       4.359   1.639  -0.234  0.00  0.00    +0.000 NA
ATOM      3  C   UNL     1       4.336   2.988  -0.184  0.00  0.00    +0.000 A 
ATOM      4  C   UNL     1       5.380   3.899  -0.312  0.00  0.00    +0.000 A 
ATOM      5  C   UNL     1       5.053   5.257  -0.263  0.00  0.00    +0.000 A 
ATOM      6  C   UNL     1       3.715   5.613  -0.061  0.00  0.00    +0.000 A 
ATOM      7 CL   UNL     1       3.150   7.244  -0.024  0.00  0.00    +0.000 Cl
ATOM      8  N   UNL     1       2.669   4.743   0.087  0.00  0.00    +0.000 NA
ATOM      9  C   UNL     1       3.052   3.453   0.014  0.00  0.00    +0.000 A 
ATOM     10  N   UNL     1       2.268   2.317   0.124  0.00  0.00    +0.000 N 
ENDROOT
BRANCH   5  11
ATOM     11  C   UNL     1       6.142   6.245  -0.400  0.00  0.00    +0.000 C 
ATOM     12  N   UNL     1       7.211   5.903  -1.186  0.00  0.00    +0.000 N 
ATOM     13  O   UNL     1       6.133   7.318   0.174  0.00  0.00    +0.000 OA
ATOM     14  H   UNL     1       7.264   5.068  -1.750  0.00  0.00    +0.000 HD
ATOM     15  H   UNL     1       7.952   6.587  -1.278  0.00  0.00    +0.000 HD
ENDBRANCH   5  11
BRANCH   1  17
ATOM     16  C   UNL     1       4.089  -1.059   0.100  0.00  0.00    +0.000 C 
ATOM     17  C   UNL     1       2.798  -0.263  -0.247  0.00  0.00    +0.000 C 
ATOM     18  C   UNL     1       2.452  -0.548  -1.719  0.00  0.00    +0.000 C 
ATOM     19  C   UNL     1       1.702  -0.810   0.661  0.00  0.00    +0.000 C 
ENDBRANCH   1  17
BRANCH  10  20
ATOM     20  C   UNL     1       0.826   2.389   0.350  0.00  0.00    +0.000 C 
BRANCH  20  21
ATOM     21  C   UNL     1       0.470   2.296   1.822  0.00  0.00    +0.000 A 
ATOM     22  C   UNL     1       0.934   3.235   2.756  0.00  0.00    +0.000 A 
ATOM     23  C   UNL     1       0.736   3.052   4.136  0.00  0.00    +0.000 A 
ATOM     24  C   UNL     1       0.036   1.943   4.600  0.00  0.00    +0.000 A 
ATOM     25  C   UNL     1      -0.515   1.062   3.666  0.00  0.00    +0.000 A 
ATOM     26  C   UNL     1      -0.327   1.250   2.296  0.00  0.00    +0.000 A 
BRANCH  24  27
ATOM     27  O   UNL     1      -0.225   1.593   5.889  0.00  0.00    +0.000 OA
BRANCH  27  28
ATOM     28  C   UNL     1       0.289   2.352   6.968  0.00  0.00    +0.000 C 
ATOM     29  F   UNL     1       0.175   3.680   6.768  0.00  0.00    +0.000 F 
ATOM     30  F   UNL     1      -0.428   2.043   8.073  0.00  0.00    +0.000 F 
ATOM     31  F   UNL     1       1.580   2.038   7.204  0.00  0.00    +0.000 F 
ENDBRANCH  27  28
ENDBRANCH  24  27
ENDBRANCH  20  21
ENDBRANCH  10  20
TORSDOF 6
