REMARK  Name = 
REMARK  8 active torsions:
REMARK  status: ('A' for Active; 'I' for Inactive)
REMARK    1  A    between atoms: C_1  and  C_2
REMARK    2  A    between atoms: C_2  and  N_3
REMARK    3  A    between atoms: C_2  and  C_18
REMARK    4  A    between atoms: N_3  and  C_4
REMARK    5  A    between atoms: C_7  and  C_8
REMARK    6  A    between atoms: C_8  and  N_9
REMARK    7  A    between atoms: N_9  and  C_10
REMARK    8  A    between atoms: N_13  and  C_14
REMARK                            x       y       z     vdW  Elec       q    Type
REMARK                         _______ _______ _______ _____ _____    ______ ____
ROOT
ATOM      1  N   UNL     1       1.046  -0.082   0.040  0.00  0.00    +0.000 N 
ATOM      2  H   UNL     1       0.724   0.883   0.043  0.00  0.00    +0.000 HD
ENDROOT
BRANCH   1   3
ATOM      3  C   UNL     1       0.292  -1.067   0.645  0.00  0.00    +0.000 A 
ATOM      4  C   UNL     1       0.883  -2.123   1.347  0.00  0.00    +0.000 A 
ATOM      5  C   UNL     1       0.135  -3.214   1.790  0.00  0.00    +0.000 A 
ATOM      6  C   UNL     1      -1.232  -3.288   1.517  0.00  0.00    +0.000 A 
ATOM      7  C   UNL     1      -1.847  -2.203   0.877  0.00  0.00    +0.000 A 
ATOM      8  C   UNL     1      -1.092  -1.102   0.454  0.00  0.00    +0.000 A 
BRANCH   6   9
ATOM      9  C   UNL     1      -1.999  -4.553   1.823  0.00  0.00    +0.000 C 
BRANCH   9  10
ATOM     10  N   UNL     1      -2.009  -4.869   3.249  0.00  0.00    +0.000 NA
ATOM     11  H   UNL     1      -2.423  -4.091   3.765  0.00  0.00    +0.000 HD
BRANCH  10  12
ATOM     12  C   UNL     1      -2.776  -6.091   3.543  0.00  0.00    +0.000 C 
ATOM     13  C   UNL     1      -4.267  -5.977   3.183  0.00  0.00    +0.000 C 
ATOM     14  C   UNL     1      -5.022  -6.364   4.444  0.00  0.00    +0.000 C 
ATOM     15  N   UNL     1      -4.103  -5.954   5.502  0.00  0.00    +0.000 NA
ATOM     16  C   UNL     1      -4.476  -6.491   6.801  0.00  0.00    +0.000 C 
ATOM     17  C   UNL     1      -2.784  -6.415   5.053  0.00  0.00    +0.000 C 
ENDBRANCH  10  12
ENDBRANCH   9  10
ENDBRANCH   6   9
ENDBRANCH   1   3
BRANCH   1  19
ATOM     18  C   UNL     1       2.343   0.304  -1.985  0.00  0.00    +0.000 C 
ATOM     19  C   UNL     1       2.316  -0.373  -0.612  0.00  0.00    +0.000 C 
BRANCH  19  20
ATOM     20  C   UNL     1       3.563  -0.066   0.186  0.00  0.00    +0.000 A 
ATOM     21  C   UNL     1       4.662  -0.910   0.217  0.00  0.00    +0.000 A 
ATOM     22  S   UNL     1       5.888  -0.381   1.279  0.00  0.00    +0.000 S 
ATOM     23  C   UNL     1       5.018   1.029   1.673  0.00  0.00    +0.000 A 
ATOM     24  N   UNL     1       5.527   1.949   2.535  0.00  0.00    +0.000 NA
ATOM     25  C   UNL     1       4.775   2.985   2.708  0.00  0.00    +0.000 A 
ATOM     26  N   UNL     1       3.561   3.183   2.101  0.00  0.00    +0.000 N 
ATOM     27  C   UNL     1       3.007   2.285   1.218  0.00  0.00    +0.000 A 
ATOM     28  O   UNL     1       1.947   2.531   0.645  0.00  0.00    +0.000 OA
ATOM     29  C   UNL     1       3.809   1.094   1.004  0.00  0.00    +0.000 A 
ATOM     30  H   UNL     1       3.038   4.031   2.256  0.00  0.00    +0.000 HD
ENDBRANCH  19  20
ENDBRANCH   1  19
TORSDOF 6
