REMARK  Name = 
REMARK  5 active torsions:
REMARK  status: ('A' for Active; 'I' for Inactive)
REMARK    1  A    between atoms: C_1  and  C_2
REMARK    2  A    between atoms: C_2  and  O_3
REMARK    3  A    between atoms: C_2  and  C_13
REMARK    4  A    between atoms: O_3  and  C_4
REMARK    5  A    between atoms: C_7  and  C_8
REMARK                            x       y       z     vdW  Elec       q    Type
REMARK                         _______ _______ _______ _____ _____    ______ ____
ROOT
ATOM      1  C   UNL     1       3.038  -0.921   2.097  0.00  0.00    +0.000 A 
ATOM      2  C   UNL     1       3.327  -2.044   2.856  0.00  0.00    +0.000 A 
ATOM      3  C   UNL     1       3.516  -1.889   4.229  0.00  0.00    +0.000 A 
ATOM      4  C   UNL     1       3.417  -0.619   4.805  0.00  0.00    +0.000 A 
ATOM      5  C   UNL     1       3.122   0.439   3.958  0.00  0.00    +0.000 A 
ATOM      6  N   UNL     1       2.924   0.319   2.619  0.00  0.00    +0.000 NA
ENDROOT
BRANCH   4   7
ATOM      7  C   UNL     1       3.625  -0.469   6.267  0.00  0.00    +0.000 C 
ATOM      8  N   UNL     1       3.555   0.776   6.828  0.00  0.00    +0.000 N 
ATOM      9  O   UNL     1       3.858  -1.444   6.974  0.00  0.00    +0.000 OA
ATOM     10  H   UNL     1       3.390   1.642   6.344  0.00  0.00    +0.000 HD
ATOM     11  H   UNL     1       3.709   0.825   7.828  0.00  0.00    +0.000 HD
ENDBRANCH   4   7
BRANCH   1  12
ATOM     12  O   UNL     1       2.872  -1.122   0.744  0.00  0.00    +0.000 OA
BRANCH  12  14
ATOM     13  C   UNL     1       1.049   0.211  -0.136  0.00  0.00    +0.000 C 
ATOM     14  C   UNL     1       2.565   0.050  -0.021  0.00  0.00    +0.000 C 
BRANCH  14  15
ATOM     15  C   UNL     1       3.197  -0.122  -1.397  0.00  0.00    +0.000 A 
ATOM     16  C   UNL     1       4.114   0.833  -1.867  0.00  0.00    +0.000 A 
ATOM     17  C   UNL     1       4.696   0.702  -3.130  0.00  0.00    +0.000 A 
ATOM     18  C   UNL     1       4.366  -0.388  -3.932  0.00  0.00    +0.000 A 
ATOM     19 CL   UNL     1       5.081  -0.549  -5.489  0.00  0.00    +0.000 Cl
ATOM     20  C   UNL     1       3.462  -1.347  -3.482  0.00  0.00    +0.000 A 
ATOM     21  C   UNL     1       2.882  -1.217  -2.218  0.00  0.00    +0.000 A 
ENDBRANCH  14  15
ENDBRANCH  12  14
ENDBRANCH   1  12
TORSDOF 4
