REMARK  Name = 
REMARK  5 active torsions:
REMARK  status: ('A' for Active; 'I' for Inactive)
REMARK    1  A    between atoms: N_1  and  C_2
REMARK    2  A    between atoms: C_2  and  C_3
REMARK    3  A    between atoms: C_6  and  C_7
REMARK    4  A    between atoms: C_7  and  O_8
REMARK    5  A    between atoms: O_8  and  C_9
REMARK                            x       y       z     vdW  Elec       q    Type
REMARK                         _______ _______ _______ _____ _____    ______ ____
ROOT
ATOM      1  C   UNL     1       2.972  -0.811   1.280  0.00  0.00    +0.000 A 
ATOM      2  C   UNL     1       2.780  -2.186   1.343  0.00  0.00    +0.000 A 
ATOM      3  N   UNL     1       3.117  -2.929   2.424  0.00  0.00    +0.000 NA
ATOM      4  C   UNL     1       3.655  -2.244   3.465  0.00  0.00    +0.000 A 
ATOM      5  C   UNL     1       3.857  -0.870   3.398  0.00  0.00    +0.000 A 
ATOM      6  N   UNL     1       3.516  -0.125   2.321  0.00  0.00    +0.000 NA
ENDROOT
BRANCH   1   7
ATOM      7  C   UNL     1       2.512  -0.028   0.076  0.00  0.00    +0.000 C 
BRANCH   7   8
ATOM      8  N   UNL     1       1.129   0.433   0.217  0.00  0.00    +0.000 NA
ATOM      9  H   UNL     1       0.901   1.038  -0.569  0.00  0.00    +0.000 HD
ATOM     10  H   UNL     1       1.087   1.028   1.048  0.00  0.00    +0.000 HD
ENDBRANCH   7   8
ENDBRANCH   1   7
BRANCH   4  11
ATOM     11  C   UNL     1       3.964  -2.999   4.729  0.00  0.00    +0.000 C 
BRANCH  11  12
ATOM     12  O   UNL     1       5.307  -3.483   4.718  0.00  0.00    +0.000 OA
BRANCH  12  13
ATOM     13  C   UNL     1       5.676  -4.224   5.809  0.00  0.00    +0.000 A 
ATOM     14  C   UNL     1       4.891  -4.464   6.928  0.00  0.00    +0.000 A 
ATOM     15  C   UNL     1       5.428  -5.226   7.949  0.00  0.00    +0.000 A 
ATOM     16  N   UNL     1       6.673  -5.736   7.906  0.00  0.00    +0.000 NA
ATOM     17  N   UNL     1       7.445  -5.510   6.812  0.00  0.00    +0.000 NA
ATOM     18  C   UNL     1       6.947  -4.772   5.793  0.00  0.00    +0.000 A 
ENDBRANCH  12  13
ENDBRANCH  11  12
ENDBRANCH   4  11
TORSDOF 5
