REMARK  Name = 
REMARK  3 active torsions:
REMARK  status: ('A' for Active; 'I' for Inactive)
REMARK    1  A    between atoms: C_2  and  C_4
REMARK    2  A    between atoms: N_8  and  C_9
REMARK    3  A    between atoms: C_9  and  C_10
REMARK                            x       y       z     vdW  Elec       q    Type
REMARK                         _______ _______ _______ _____ _____    ______ ____
ROOT
ATOM      1  C   UNL     1       3.215   1.085   0.260  0.00  0.00    +0.000 A 
ATOM      2  C   UNL     1       2.911   1.694   1.474  0.00  0.00    +0.000 A 
ATOM      3  C   UNL     1       3.671   2.788   1.897  0.00  0.00    +0.000 A 
ATOM      4  C   UNL     1       4.709   3.257   1.096  0.00  0.00    +0.000 A 
ATOM      5  N   UNL     1       5.518   4.340   1.450  0.00  0.00    +0.000 N 
ATOM      6  N   UNL     1       5.020   2.665  -0.077  0.00  0.00    +0.000 NA
ATOM      7  C   UNL     1       4.281   1.593  -0.465  0.00  0.00    +0.000 A 
ATOM      8  H   UNL     1       6.110   4.567   0.656  0.00  0.00    +0.000 HD
ENDROOT
BRANCH   1  10
ATOM      9  N   UNL     1       1.181  -0.240   0.127  0.00  0.00    +0.000 N 
ATOM     10  C   UNL     1       2.479  -0.083  -0.271  0.00  0.00    +0.000 C 
ATOM     11  O   UNL     1       2.999  -0.860  -1.059  0.00  0.00    +0.000 OA
ATOM     12  H   UNL     1       0.663  -0.989  -0.316  0.00  0.00    +0.000 HD
ATOM     13  H   UNL     1       0.649   0.496   0.568  0.00  0.00    +0.000 HD
ENDBRANCH   1  10
BRANCH   5  14
ATOM     14  C   UNL     1       5.104   5.390   2.396  0.00  0.00    +0.000 C 
ATOM     15  C   UNL     1       3.900   6.245   2.035  0.00  0.00    +0.000 C 
ATOM     16  C   UNL     1       5.265   6.848   1.980  0.00  0.00    +0.000 C 
BRANCH  14  17
ATOM     17  C   UNL     1       5.444   5.116   3.868  0.00  0.00    +0.000 A 
ATOM     18  C   UNL     1       6.750   4.786   4.248  0.00  0.00    +0.000 A 
ATOM     19  N   UNL     1       7.154   4.624   5.535  0.00  0.00    +0.000 NA
ATOM     20  C   UNL     1       6.190   4.801   6.459  0.00  0.00    +0.000 A 
ATOM     21  C   UNL     1       4.887   5.108   6.114  0.00  0.00    +0.000 A 
ATOM     22  N   UNL     1       4.487   5.262   4.828  0.00  0.00    +0.000 NA
ENDBRANCH  14  17
ENDBRANCH   5  14
TORSDOF 3
