REMARK  Name = 
REMARK  9 active torsions:
REMARK  status: ('A' for Active; 'I' for Inactive)
REMARK    1  A    between atoms: C_1  and  C_2
REMARK    2  A    between atoms: C_2  and  C_3
REMARK    3  A    between atoms: C_2  and  C_4
REMARK    4  A    between atoms: C_2  and  C_5
REMARK    5  A    between atoms: C_6  and  C_7
REMARK    6  A    between atoms: C_10  and  C_11
REMARK    7  A    between atoms: C_11  and  N_12
REMARK    8  A    between atoms: N_12  and  C_13
REMARK    9  A    between atoms: C_16  and  C_17
REMARK                            x       y       z     vdW  Elec       q    Type
REMARK                         _______ _______ _______ _____ _____    ______ ____
ROOT
ATOM      1  C   UNL     1       5.303   7.774   2.003  0.00  0.00    +0.000 C 
ENDROOT
BRANCH   1   5
ATOM      2  C   UNL     1       3.842   3.775   1.206  0.00  0.00    +0.000 A 
ATOM      3  C   UNL     1       3.036   4.888   0.959  0.00  0.00    +0.000 A 
ATOM      4  C   UNL     1       3.505   6.174   1.253  0.00  0.00    +0.000 A 
ATOM      5  C   UNL     1       4.774   6.367   1.816  0.00  0.00    +0.000 A 
ATOM      6  C   UNL     1       5.544   5.233   2.126  0.00  0.00    +0.000 A 
ATOM      7  C   UNL     1       5.085   3.946   1.807  0.00  0.00    +0.000 A 
BRANCH   2   9
ATOM      8  C   UNL     1       2.971   1.293   0.460  0.00  0.00    +0.000 C 
ATOM      9  C   UNL     1       3.406   2.467   0.825  0.00  0.00    +0.000 C 
BRANCH   8  11
ATOM     10  C   UNL     1       0.931  -0.065   0.038  0.00  0.00    +0.000 C 
ATOM     11  C   UNL     1       2.465  -0.076   0.035  0.00  0.00    +0.000 C 
ATOM     12  C   UNL     1       2.981  -1.130   1.022  0.00  0.00    +0.000 C 
ATOM     13  C   UNL     1       2.981  -0.385  -1.376  0.00  0.00    +0.000 C 
ENDBRANCH   8  11
ENDBRANCH   2   9
ENDBRANCH   1   5
BRANCH   1  14
ATOM     14  N   UNL     1       4.947   8.343   3.303  0.00  0.00    +0.000 N 
ATOM     15  H   UNL     1       5.259   7.736   4.059  0.00  0.00    +0.000 HD
BRANCH  14  16
ATOM     16  C   UNL     1       5.392   9.660   3.547  0.00  0.00    +0.000 A 
ATOM     17  C   UNL     1       5.542  10.605   2.523  0.00  0.00    +0.000 A 
ATOM     18  C   UNL     1       5.978  11.908   2.794  0.00  0.00    +0.000 A 
ATOM     19  C   UNL     1       6.241  12.306   4.103  0.00  0.00    +0.000 A 
ATOM     20  C   UNL     1       6.015  11.396   5.146  0.00  0.00    +0.000 A 
ATOM     21  C   UNL     1       5.580  10.092   4.867  0.00  0.00    +0.000 A 
BRANCH  19  22
ATOM     22  C   UNL     1       6.761  13.661   4.457  0.00  0.00    +0.000 C 
ATOM     23  N   UNL     1       6.989  14.550   3.437  0.00  0.00    +0.000 N 
ATOM     24  O   UNL     1       7.003  13.977   5.608  0.00  0.00    +0.000 OA
ATOM     25  H   UNL     1       6.888  14.350   2.457  0.00  0.00    +0.000 HD
ATOM     26  H   UNL     1       7.394  15.440   3.698  0.00  0.00    +0.000 HD
ENDBRANCH  19  22
ENDBRANCH  14  16
ENDBRANCH   1  14
TORSDOF 6
