REMARK  Name = 
REMARK  10 active torsions:
REMARK  status: ('A' for Active; 'I' for Inactive)
REMARK    1  A    between atoms: C_1  and  O_2
REMARK    2  A    between atoms: O_2  and  C_3
REMARK    3  A    between atoms: C_3  and  C_5
REMARK    4  A    between atoms: N_9  and  C_10
REMARK    5  A    between atoms: C_10  and  C_11
REMARK    6  A    between atoms: C_11  and  C_12
REMARK    7  A    between atoms: C_11  and  C_13
REMARK    8  A    between atoms: C_11  and  C_14
REMARK    9  A    between atoms: C_17  and  O_18
REMARK   10  A    between atoms: O_18  and  C_19
REMARK                            x       y       z     vdW  Elec       q    Type
REMARK                         _______ _______ _______ _____ _____    ______ ____
ROOT
ATOM      1  C   UNL     1       4.593  -1.135  -0.298  0.00  0.00    +0.000 A 
ATOM      2  C   UNL     1       5.285  -0.490   0.720  0.00  0.00    +0.000 A 
ATOM      3  C   UNL     1       6.677  -0.532   0.723  0.00  0.00    +0.000 A 
ATOM      4  C   UNL     1       7.360  -1.217  -0.278  0.00  0.00    +0.000 A 
ATOM      5  N   UNL     1       8.728  -1.304  -0.324  0.00  0.00    +0.000 N 
ATOM      6  N   UNL     1       6.699  -1.842  -1.274  0.00  0.00    +0.000 NA
ATOM      7  C   UNL     1       5.340  -1.786  -1.267  0.00  0.00    +0.000 A 
ATOM      8  H   UNL     1       9.086  -1.885  -1.070  0.00  0.00    +0.000 HD
ENDROOT
BRANCH   1   9
ATOM      9  C   UNL     1       3.119  -1.170  -0.382  0.00  0.00    +0.000 C 
ATOM     10  O   UNL     1       2.510  -1.735  -1.271  0.00  0.00    +0.000 OA
BRANCH   9  12
ATOM     11  C   UNL     1       1.140  -0.498   0.665  0.00  0.00    +0.000 C 
ATOM     12  O   UNL     1       2.568  -0.502   0.665  0.00  0.00    +0.000 OA
ENDBRANCH   9  12
ENDBRANCH   1   9
BRANCH   5  13
ATOM     13  C   UNL     1       9.590  -0.659   0.651  0.00  0.00    +0.000 C 
BRANCH  13  14
ATOM     14  C   UNL     1      11.109  -0.866   0.414  0.00  0.00    +0.000 C 
ATOM     15  C   UNL     1      11.438  -2.372   0.445  0.00  0.00    +0.000 C 
ATOM     16  C   UNL     1      11.518  -0.279  -0.954  0.00  0.00    +0.000 C 
BRANCH  14  17
ATOM     17  C   UNL     1      11.884  -0.130   1.526  0.00  0.00    +0.000 A 
ATOM     18  C   UNL     1      13.278  -0.148   1.559  0.00  0.00    +0.000 A 
ATOM     19  C   UNL     1      13.958   0.561   2.550  0.00  0.00    +0.000 A 
ATOM     20  C   UNL     1      13.243   1.276   3.504  0.00  0.00    +0.000 A 
ATOM     21  C   UNL     1      11.861   1.236   3.410  0.00  0.00    +0.000 A 
ATOM     22  N   UNL     1      11.175   0.558   2.455  0.00  0.00    +0.000 NA
BRANCH  20  23
ATOM     23  O   UNL     1      13.773   2.013   4.521  0.00  0.00    +0.000 OA
ATOM     24  C   UNL     1      15.195   2.048   4.595  0.00  0.00    +0.000 C 
ENDBRANCH  20  23
ENDBRANCH  14  17
ENDBRANCH  13  14
ENDBRANCH   5  13
TORSDOF 6
