REMARK  Name = 
REMARK  7 active torsions:
REMARK  status: ('A' for Active; 'I' for Inactive)
REMARK    1  A    between atoms: C_2  and  C_3
REMARK    2  A    between atoms: C_7  and  C_8
REMARK    3  A    between atoms: N_10  and  C_11
REMARK    4  A    between atoms: C_11  and  C_12
REMARK    5  A    between atoms: C_15  and  C_16
REMARK    6  A    between atoms: C_16  and  N_17
REMARK    7  A    between atoms: C_18  and  C_20
REMARK                            x       y       z     vdW  Elec       q    Type
REMARK                         _______ _______ _______ _____ _____    ______ ____
ROOT
ATOM      1  C   UNL     1      -5.771  -3.685  -0.040  0.00  0.00    +0.000 A 
ATOM      2  C   UNL     1      -6.591  -4.822   0.001  0.00  0.00    +0.000 A 
ATOM      3  C   UNL     1      -7.988  -4.702   0.041  0.00  0.00    +0.000 A 
ATOM      4  C   UNL     1      -8.598  -3.441   0.021  0.00  0.00    +0.000 A 
ATOM      5  C   UNL     1      -7.778  -2.305  -0.002  0.00  0.00    +0.000 A 
ATOM      6  C   UNL     1      -6.383  -2.425  -0.045  0.00  0.00    +0.000 A 
ENDROOT
BRANCH   1   7
ATOM      7  C   UNL     1      -4.267  -3.821  -0.063  0.00  0.00    +0.000 C 
BRANCH   7  10
ATOM      8  C   UNL     1      -2.385  -4.124  -1.630  0.00  0.00    +0.000 C 
ATOM      9  O   UNL     1      -1.550  -4.242  -0.739  0.00  0.00    +0.000 OA
ATOM     10  N   UNL     1      -3.732  -3.921  -1.400  0.00  0.00    +0.000 N 
ATOM     11  H   UNL     1      -4.337  -3.803  -2.207  0.00  0.00    +0.000 HD
BRANCH   8  16
ATOM     12  C   UNL     1      -2.645  -4.143  -5.290  0.00  0.00    +0.000 A 
ATOM     13  C   UNL     1      -1.341  -4.323  -5.736  0.00  0.00    +0.000 A 
ATOM     14  C   UNL     1      -0.329  -4.442  -4.787  0.00  0.00    +0.000 A 
ATOM     15  C   UNL     1      -0.653  -4.379  -3.435  0.00  0.00    +0.000 A 
ATOM     16  C   UNL     1      -1.986  -4.196  -3.077  0.00  0.00    +0.000 A 
ATOM     17  N   UNL     1      -2.998  -4.072  -3.980  0.00  0.00    +0.000 NA
BRANCH  12  19
ATOM     18  N   UNL     1      -4.572  -3.918  -7.020  0.00  0.00    +0.000 NA
ATOM     19  C   UNL     1      -3.722  -4.020  -6.230  0.00  0.00    +0.000 C 
ENDBRANCH  12  19
ENDBRANCH   8  16
ENDBRANCH   7  10
ENDBRANCH   1   7
BRANCH   4  20
ATOM     20  C   UNL     1     -10.102  -3.295   0.038  0.00  0.00    +0.000 C 
BRANCH  20  21
ATOM     21  N   UNL     1     -10.615  -3.200   1.380  0.00  0.00    +0.000 N 
ATOM     22  C   UNL     1     -11.965  -3.096   1.624  0.00  0.00    +0.000 C 
ATOM     23  O   UNL     1     -12.796  -3.116   0.721  0.00  0.00    +0.000 OA
ATOM     24  H   UNL     1      -9.964  -2.909   2.100  0.00  0.00    +0.000 HD
BRANCH  22  25
ATOM     25  C   UNL     1     -12.367  -3.025   3.034  0.00  0.00    +0.000 A 
ATOM     26  C   UNL     1     -13.634  -3.446   3.417  0.00  0.00    +0.000 A 
ATOM     27  S   UNL     1     -13.908  -3.347   5.099  0.00  0.00    +0.000 S 
ATOM     28  C   UNL     1     -12.362  -2.687   5.367  0.00  0.00    +0.000 A 
ATOM     29  N   UNL     1     -11.955  -2.339   6.618  0.00  0.00    +0.000 NA
ATOM     30  C   UNL     1     -10.772  -1.822   6.669  0.00  0.00    +0.000 A 
ATOM     31  N   UNL     1      -9.957  -1.628   5.584  0.00  0.00    +0.000 N 
ATOM     32  C   UNL     1     -10.314  -1.991   4.308  0.00  0.00    +0.000 A 
ATOM     33  O   UNL     1      -9.543  -1.845   3.366  0.00  0.00    +0.000 OA
ATOM     34  C   UNL     1     -11.641  -2.564   4.193  0.00  0.00    +0.000 A 
ATOM     35  H   UNL     1      -9.037  -1.229   5.691  0.00  0.00    +0.000 HD
ENDBRANCH  22  25
ENDBRANCH  20  21
ENDBRANCH   4  20
TORSDOF 7
