REMARK  Name = 
REMARK  8 active torsions:
REMARK  status: ('A' for Active; 'I' for Inactive)
REMARK    1  A    between atoms: N_1  and  C_2
REMARK    2  A    between atoms: C_2  and  C_3
REMARK    3  A    between atoms: C_3  and  N_4
REMARK    4  A    between atoms: C_3  and  C_17
REMARK    5  A    between atoms: C_5  and  C_7
REMARK    6  A    between atoms: C_20  and  O_21
REMARK    7  A    between atoms: O_21  and  C_22
REMARK    8  A    between atoms: C_22  and  C_23
REMARK                            x       y       z     vdW  Elec       q    Type
REMARK                         _______ _______ _______ _____ _____    ______ ____
ROOT
ATOM      1  C   UNL     1       2.832   0.471   1.301  0.00  0.00    +0.000 C 
ENDROOT
BRANCH   1   2
ATOM      2  C   UNL     1       4.354   0.486   1.429  0.00  0.00    +0.000 A 
ATOM      3  C   UNL     1       5.035   1.646   1.819  0.00  0.00    +0.000 A 
ATOM      4  C   UNL     1       6.430   1.644   1.934  0.00  0.00    +0.000 A 
ATOM      5  C   UNL     1       7.157   0.480   1.677  0.00  0.00    +0.000 A 
ATOM      6  C   UNL     1       6.491  -0.665   1.248  0.00  0.00    +0.000 A 
ATOM      7  C   UNL     1       5.101  -0.669   1.146  0.00  0.00    +0.000 A 
BRANCH   5   8
ATOM      8  O   UNL     1       8.511   0.566   1.875  0.00  0.00    +0.000 OA
BRANCH   8   9
ATOM      9  C   UNL     1       9.162  -0.691   2.105  0.00  0.00    +0.000 C 
BRANCH   9  10
ATOM     10  C   UNL     1      10.492  -0.512   2.799  0.00  0.00    +0.000 A 
ATOM     11  C   UNL     1      11.317   0.574   2.519  0.00  0.00    +0.000 A 
ATOM     12  C   UNL     1      12.541   0.673   3.172  0.00  0.00    +0.000 A 
ATOM     13  C   UNL     1      12.915  -0.317   4.075  0.00  0.00    +0.000 A 
ATOM     14  C   UNL     1      12.048  -1.373   4.284  0.00  0.00    +0.000 A 
ATOM     15  N   UNL     1      10.855  -1.496   3.665  0.00  0.00    +0.000 NA
ENDBRANCH   9  10
ENDBRANCH   8   9
ENDBRANCH   5   8
ENDBRANCH   1   2
BRANCH   1  16
ATOM     16  N   UNL     1       2.302  -0.455   2.298  0.00  0.00    +0.000 N 
ATOM     17  C   UNL     1       0.959  -0.646   2.498  0.00  0.00    +0.000 C 
ATOM     18  O   UNL     1       0.103  -0.187   1.749  0.00  0.00    +0.000 OA
ATOM     19  H   UNL     1       2.923  -0.645   3.080  0.00  0.00    +0.000 HD
BRANCH  17  20
ATOM     20  C   UNL     1       0.582  -1.478   3.644  0.00  0.00    +0.000 A 
ATOM     21  C   UNL     1      -0.592  -2.218   3.609  0.00  0.00    +0.000 A 
ATOM     22  S   UNL     1      -0.906  -3.068   5.053  0.00  0.00    +0.000 S 
ATOM     23  C   UNL     1       0.496  -2.444   5.789  0.00  0.00    +0.000 A 
ATOM     24  N   UNL     1       0.794  -2.726   7.086  0.00  0.00    +0.000 NA
ATOM     25  C   UNL     1       1.867  -2.154   7.522  0.00  0.00    +0.000 A 
ATOM     26  N   UNL     1       2.684  -1.346   6.769  0.00  0.00    +0.000 N 
ATOM     27  C   UNL     1       2.454  -1.087   5.443  0.00  0.00    +0.000 A 
ATOM     28  O   UNL     1       3.258  -0.453   4.765  0.00  0.00    +0.000 OA
ATOM     29  C   UNL     1       1.224  -1.650   4.923  0.00  0.00    +0.000 A 
ATOM     30  H   UNL     1       3.532  -0.966   7.161  0.00  0.00    +0.000 HD
ENDBRANCH  17  20
ENDBRANCH   1  16
BRANCH   1  31
ATOM     31  C   UNL     1       2.408   0.116  -0.160  0.00  0.00    +0.000 C 
BRANCH  31  32
ATOM     32  N   UNL     1       2.957   1.018  -1.185  0.00  0.00    +0.000 NA
ATOM     33  H   UNL     1       2.811   0.597  -2.101  0.00  0.00    +0.000 HD
ATOM     34  H   UNL     1       3.967   1.095  -1.064  0.00  0.00    +0.000 HD
ENDBRANCH  31  32
ENDBRANCH   1  31
TORSDOF 8
