REMARK  Name = 
REMARK  7 active torsions:
REMARK  status: ('A' for Active; 'I' for Inactive)
REMARK    1  A    between atoms: C_1  and  O_2
REMARK    2  A    between atoms: O_2  and  C_3
REMARK    3  A    between atoms: C_7  and  C_8
REMARK    4  A    between atoms: C_8  and  C_9
REMARK    5  A    between atoms: C_12  and  C_13
REMARK    6  A    between atoms: C_13  and  N_14
REMARK    7  A    between atoms: C_15  and  C_17
REMARK                            x       y       z     vdW  Elec       q    Type
REMARK                         _______ _______ _______ _____ _____    ______ ____
ROOT
ATOM      1  C   UNL     1       8.511  -5.167   5.321  0.00  0.00    +0.000 C 
ENDROOT
BRANCH   1   5
ATOM      2  C   UNL     1       7.044  -1.678   3.465  0.00  0.00    +0.000 A 
ATOM      3  C   UNL     1       7.580  -2.730   2.752  0.00  0.00    +0.000 A 
ATOM      4  N   UNL     1       8.133  -3.816   3.324  0.00  0.00    +0.000 NA
ATOM      5  C   UNL     1       8.117  -3.860   4.671  0.00  0.00    +0.000 A 
ATOM      6  N   UNL     1       7.689  -2.853   5.462  0.00  0.00    +0.000 NA
ATOM      7  C   UNL     1       7.156  -1.787   4.836  0.00  0.00    +0.000 A 
BRANCH   2   8
ATOM      8  C   UNL     1       6.268  -0.584   2.798  0.00  0.00    +0.000 C 
BRANCH   8  13
ATOM      9  C   UNL     1       3.165  -2.089   1.517  0.00  0.00    +0.000 A 
ATOM     10  C   UNL     1       2.205  -1.807   2.473  0.00  0.00    +0.000 A 
ATOM     11  C   UNL     1       2.580  -1.042   3.571  0.00  0.00    +0.000 A 
ATOM     12  C   UNL     1       3.897  -0.606   3.682  0.00  0.00    +0.000 A 
ATOM     13  C   UNL     1       4.806  -0.938   2.677  0.00  0.00    +0.000 A 
ATOM     14  N   UNL     1       4.446  -1.669   1.592  0.00  0.00    +0.000 NA
BRANCH   9  16
ATOM     15  C   UNL     1       3.808  -3.083  -0.495  0.00  0.00    +0.000 C 
ATOM     16  O   UNL     1       2.763  -2.865   0.449  0.00  0.00    +0.000 OA
ENDBRANCH   9  16
ENDBRANCH   8  13
ENDBRANCH   2   8
ENDBRANCH   1   5
BRANCH   1  17
ATOM     17  N   UNL     1       9.932  -5.324   5.529  0.00  0.00    +0.000 N 
ATOM     18  C   UNL     1      10.424  -6.458   6.122  0.00  0.00    +0.000 C 
ATOM     19  O   UNL     1       9.689  -7.388   6.445  0.00  0.00    +0.000 OA
ATOM     20  H   UNL     1      10.549  -4.714   5.000  0.00  0.00    +0.000 HD
BRANCH  18  21
ATOM     21  C   UNL     1      11.852  -6.461   6.457  0.00  0.00    +0.000 A 
ATOM     22  C   UNL     1      12.408  -7.523   7.158  0.00  0.00    +0.000 A 
ATOM     23  S   UNL     1      13.971  -7.183   7.760  0.00  0.00    +0.000 S 
ATOM     24  C   UNL     1      13.965  -5.638   7.046  0.00  0.00    +0.000 A 
ATOM     25  N   UNL     1      14.961  -4.741   7.276  0.00  0.00    +0.000 NA
ATOM     26  C   UNL     1      14.831  -3.628   6.630  0.00  0.00    +0.000 A 
ATOM     27  N   UNL     1      13.831  -3.348   5.734  0.00  0.00    +0.000 N 
ATOM     28  C   UNL     1      12.830  -4.244   5.443  0.00  0.00    +0.000 A 
ATOM     29  O   UNL     1      12.017  -4.033   4.550  0.00  0.00    +0.000 OA
ATOM     30  C   UNL     1      12.853  -5.447   6.249  0.00  0.00    +0.000 A 
ATOM     31  H   UNL     1      13.836  -2.497   5.196  0.00  0.00    +0.000 HD
ENDBRANCH  18  21
ENDBRANCH   1  17
TORSDOF 6
