REMARK  Name = 
REMARK  8 active torsions:
REMARK  status: ('A' for Active; 'I' for Inactive)
REMARK    1  A    between atoms: C_1  and  C_2
REMARK    2  A    between atoms: C_5  and  C_6
REMARK    3  A    between atoms: C_10  and  C_11
REMARK    4  A    between atoms: C_11  and  C_12
REMARK    5  A    between atoms: C_11  and  C_13
REMARK    6  A    between atoms: C_11  and  C_14
REMARK    7  A    between atoms: C_14  and  N_15
REMARK    8  A    between atoms: C_19  and  C_20
REMARK                            x       y       z     vdW  Elec       q    Type
REMARK                         _______ _______ _______ _____ _____    ______ ____
ROOT
ATOM      1  C   UNL     1      -6.222  -0.763   1.973  0.00  0.00    +0.000 C 
ATOM      2  C   UNL     1      -6.989   0.330   2.748  0.00  0.00    +0.000 C 
ATOM      3  C   UNL     1      -7.248  -1.692   1.287  0.00  0.00    +0.000 C 
ENDROOT
BRANCH   1   8
ATOM      4  C   UNL     1      -3.330   0.178  -0.153  0.00  0.00    +0.000 A 
ATOM      5  C   UNL     1      -3.972   0.937  -1.111  0.00  0.00    +0.000 A 
ATOM      6  N   UNL     1      -5.296   1.169  -1.058  0.00  0.00    +0.000 NA
ATOM      7  N   UNL     1      -5.998   0.636  -0.036  0.00  0.00    +0.000 NA
ATOM      8  C   UNL     1      -5.364  -0.138   0.879  0.00  0.00    +0.000 A 
ATOM      9  N   UNL     1      -4.041  -0.404   0.835  0.00  0.00    +0.000 NA
BRANCH   4  14
ATOM     10  C   UNL     1       2.382  -0.481  -0.276  0.00  0.00    +0.000 C 
ATOM     11  C   UNL     1       0.893  -0.352  -0.190  0.00  0.00    +0.000 A 
ATOM     12  C   UNL     1       0.108  -1.344   0.386  0.00  0.00    +0.000 A 
ATOM     13  C   UNL     1      -1.280  -1.177   0.420  0.00  0.00    +0.000 A 
ATOM     14  C   UNL     1      -1.875  -0.032  -0.130  0.00  0.00    +0.000 A 
ATOM     15  C   UNL     1      -0.987   0.911  -0.649  0.00  0.00    +0.000 A 
ATOM     16  N   UNL     1       0.360   0.779  -0.701  0.00  0.00    +0.000 NA
ENDBRANCH   4  14
ENDBRANCH   1   8
BRANCH   1  17
ATOM     17  C   UNL     1      -5.384  -1.618   2.959  0.00  0.00    +0.000 C 
BRANCH  17  18
ATOM     18  N   UNL     1      -4.405  -0.819   3.702  0.00  0.00    +0.000 N 
ATOM     19  C   UNL     1      -3.591  -1.525   4.586  0.00  0.00    +0.000 A 
ATOM     20  C   UNL     1      -2.589  -0.845   5.281  0.00  0.00    +0.000 A 
ATOM     21  N   UNL     1      -1.759  -1.434   6.175  0.00  0.00    +0.000 NA
ATOM     22  C   UNL     1      -1.943  -2.772   6.353  0.00  0.00    +0.000 A 
ATOM     23  C   UNL     1      -2.919  -3.454   5.641  0.00  0.00    +0.000 A 
ATOM     24  N   UNL     1      -3.747  -2.855   4.755  0.00  0.00    +0.000 NA
ATOM     25  H   UNL     1      -4.791  -0.004   4.164  0.00  0.00    +0.000 HD
BRANCH  22  26
ATOM     26  C   UNL     1      -1.098  -3.536   7.342  0.00  0.00    +0.000 C 
ATOM     27  F   UNL     1      -0.177  -2.777   7.998  0.00  0.00    +0.000 F 
ATOM     28  F   UNL     1      -1.848  -4.131   8.315  0.00  0.00    +0.000 F 
ATOM     29  F   UNL     1      -0.395  -4.550   6.756  0.00  0.00    +0.000 F 
ENDBRANCH  22  26
ENDBRANCH  17  18
ENDBRANCH   1  17
TORSDOF 5
