REMARK  Name = 
REMARK  3 active torsions:
REMARK  status: ('A' for Active; 'I' for Inactive)
REMARK    1  A    between atoms: C_2  and  C_4
REMARK    2  A    between atoms: C_7  and  C_8
REMARK    3  A    between atoms: C_8  and  N_9
REMARK                            x       y       z     vdW  Elec       q    Type
REMARK                         _______ _______ _______ _____ _____    ______ ____
ROOT
ATOM      1  C   UNL     1       3.069   0.689  -1.158  0.00  0.00    +0.000 A 
ATOM      2  C   UNL     1       2.742   0.462  -2.500  0.00  0.00    +0.000 A 
ATOM      3  C   UNL     1       3.435   1.134  -3.511  0.00  0.00    +0.000 A 
ATOM      4  C   UNL     1       4.464   2.034  -3.198  0.00  0.00    +0.000 A 
ATOM      5  C   UNL     1       4.767   2.275  -1.850  0.00  0.00    +0.000 A 
ATOM      6  C   UNL     1       4.071   1.611  -0.837  0.00  0.00    +0.000 A 
ENDROOT
BRANCH   1   8
ATOM      7  N   UNL     1       1.834  -1.236  -0.317  0.00  0.00    +0.000 N 
ATOM      8  C   UNL     1       2.366  -0.006  -0.048  0.00  0.00    +0.000 C 
ATOM      9  O   UNL     1       2.299   0.476   1.075  0.00  0.00    +0.000 OA
ATOM     10  H   UNL     1       1.459  -1.743   0.474  0.00  0.00    +0.000 HD
ATOM     11  H   UNL     1       2.086  -1.766  -1.139  0.00  0.00    +0.000 HD
ENDBRANCH   1   8
BRANCH   4  12
ATOM     12  C   UNL     1       5.228   2.730  -4.297  0.00  0.00    +0.000 C 
BRANCH  12  13
ATOM     13  N   UNL     1       4.634   4.007  -4.665  0.00  0.00    +0.000 N 
ATOM     14  C   UNL     1       4.929   5.216  -4.078  0.00  0.00    +0.000 A 
ATOM     15  C   UNL     1       4.277   6.203  -4.787  0.00  0.00    +0.000 A 
ATOM     16  C   UNL     1       3.573   5.576  -5.848  0.00  0.00    +0.000 A 
ATOM     17  C   UNL     1       2.766   6.018  -6.909  0.00  0.00    +0.000 A 
ATOM     18  C   UNL     1       2.249   5.055  -7.775  0.00  0.00    +0.000 A 
ATOM     19  C   UNL     1       2.548   3.718  -7.549  0.00  0.00    +0.000 A 
ATOM     20  N   UNL     1       3.323   3.237  -6.550  0.00  0.00    +0.000 NA
ATOM     21  C   UNL     1       3.802   4.205  -5.740  0.00  0.00    +0.000 A 
ENDBRANCH  12  13
ENDBRANCH   4  12
TORSDOF 3
