REMARK  Name = 
REMARK  8 active torsions:
REMARK  status: ('A' for Active; 'I' for Inactive)
REMARK    1  A    between atoms: C_1  and  C_2
REMARK    2  A    between atoms: C_2  and  N_3
REMARK    3  A    between atoms: C_2  and  C_25
REMARK    4  A    between atoms: N_3  and  C_4
REMARK    5  A    between atoms: C_4  and  C_5
REMARK    6  A    between atoms: C_8  and  C_9
REMARK    7  A    between atoms: C_9  and  N_10
REMARK    8  A    between atoms: C_11  and  C_13
REMARK                            x       y       z     vdW  Elec       q    Type
REMARK                         _______ _______ _______ _____ _____    ______ ____
ROOT
ATOM      1  C   UNL     1      -1.014  -0.494  -1.323  0.00  0.00    +0.000 A 
ATOM      2  C   UNL     1      -1.596  -1.601  -0.684  0.00  0.00    +0.000 A 
ATOM      3  C   UNL     1      -2.979  -1.730  -0.608  0.00  0.00    +0.000 A 
ATOM      4  C   UNL     1      -3.824  -0.759  -1.160  0.00  0.00    +0.000 A 
ATOM      5  C   UNL     1      -3.238   0.366  -1.764  0.00  0.00    +0.000 A 
ATOM      6  C   UNL     1      -1.850   0.494  -1.849  0.00  0.00    +0.000 A 
ENDROOT
BRANCH   1   7
ATOM      7  C   UNL     1       0.483  -0.375  -1.400  0.00  0.00    +0.000 C 
BRANCH   7   8
ATOM      8  N   UNL     1       1.055  -1.523  -2.100  0.00  0.00    +0.000 NA
ATOM      9  H   UNL     1       0.666  -1.562  -3.041  0.00  0.00    +0.000 HD
BRANCH   8  11
ATOM     10  C   UNL     1       3.131  -1.371  -0.775  0.00  0.00    +0.000 C 
ATOM     11  C   UNL     1       2.517  -1.487  -2.177  0.00  0.00    +0.000 C 
BRANCH  11  12
ATOM     12  C   UNL     1       3.011  -2.715  -2.936  0.00  0.00    +0.000 A 
ATOM     13  C   UNL     1       2.773  -4.022  -2.474  0.00  0.00    +0.000 A 
ATOM     14  C   UNL     1       3.182  -5.136  -3.214  0.00  0.00    +0.000 A 
ATOM     15  C   UNL     1       3.821  -4.962  -4.440  0.00  0.00    +0.000 A 
ATOM     16  C   UNL     1       4.054  -3.676  -4.907  0.00  0.00    +0.000 A 
ATOM     17  F   UNL     1       4.649  -3.505  -6.096  0.00  0.00    +0.000 F 
ATOM     18  C   UNL     1       3.664  -2.559  -4.169  0.00  0.00    +0.000 A 
ENDBRANCH  11  12
ENDBRANCH   8  11
ENDBRANCH   7   8
ENDBRANCH   1   7
BRANCH   4  19
ATOM     19  C   UNL     1      -5.330  -0.895  -1.131  0.00  0.00    +0.000 C 
BRANCH  19  20
ATOM     20  N   UNL     1      -5.924  -0.296   0.042  0.00  0.00    +0.000 N 
ATOM     21  C   UNL     1      -7.275  -0.312   0.270  0.00  0.00    +0.000 C 
ATOM     22  O   UNL     1      -8.074  -0.835  -0.511  0.00  0.00    +0.000 OA
ATOM     23  H   UNL     1      -5.377   0.422   0.505  0.00  0.00    +0.000 HD
BRANCH  21  24
ATOM     24  C   UNL     1      -7.715   0.290   1.530  0.00  0.00    +0.000 A 
ATOM     25  C   UNL     1      -8.865  -0.165   2.155  0.00  0.00    +0.000 A 
ATOM     26  S   UNL     1      -9.206   0.639   3.623  0.00  0.00    +0.000 S 
ATOM     27  C   UNL     1      -7.848   1.649   3.450  0.00  0.00    +0.000 A 
ATOM     28  N   UNL     1      -7.569   2.619   4.363  0.00  0.00    +0.000 NA
ATOM     29  C   UNL     1      -6.526   3.330   4.087  0.00  0.00    +0.000 A 
ATOM     30  N   UNL     1      -5.726   3.148   2.988  0.00  0.00    +0.000 N 
ATOM     31  C   UNL     1      -5.924   2.136   2.088  0.00  0.00    +0.000 A 
ATOM     32  O   UNL     1      -5.118   1.925   1.175  0.00  0.00    +0.000 OA
ATOM     33  C   UNL     1      -7.119   1.347   2.313  0.00  0.00    +0.000 A 
ATOM     34  H   UNL     1      -4.898   3.712   2.855  0.00  0.00    +0.000 HD
ENDBRANCH  21  24
ENDBRANCH  19  20
ENDBRANCH   4  19
TORSDOF 7
