REMARK  Name = 
REMARK  5 active torsions:
REMARK  status: ('A' for Active; 'I' for Inactive)
REMARK    1  A    between atoms: C_1  and  C_2
REMARK    2  A    between atoms: N_6  and  C_7
REMARK    3  A    between atoms: C_7  and  C_8
REMARK    4  A    between atoms: C_10  and  C_11
REMARK    5  A    between atoms: C_15  and  C_16
REMARK                            x       y       z     vdW  Elec       q    Type
REMARK                         _______ _______ _______ _____ _____    ______ ____
ROOT
ATOM      1  C   UNL     1       5.319  -1.016  -0.045  0.00  0.00    +0.000 A 
ATOM      2  C   UNL     1       5.840   0.275  -0.044  0.00  0.00    +0.000 A 
ATOM      3  C   UNL     1       7.229   0.478  -0.083  0.00  0.00    +0.000 A 
ATOM      4  C   UNL     1       8.038  -0.665  -0.120  0.00  0.00    +0.000 A 
ATOM      5  C   UNL     1       7.444  -1.917  -0.108  0.00  0.00    +0.000 A 
ATOM      6  N   UNL     1       6.113  -2.117  -0.062  0.00  0.00    +0.000 NA
ENDROOT
BRANCH   3   7
ATOM      7  C   UNL     1       7.810   1.838  -0.078  0.00  0.00    +0.000 A 
ATOM      8  C   UNL     1       9.003   2.139  -0.747  0.00  0.00    +0.000 A 
ATOM      9  C   UNL     1       9.507   3.430  -0.690  0.00  0.00    +0.000 A 
ATOM     10  N   UNL     1       8.913   4.440  -0.026  0.00  0.00    +0.000 NA
ATOM     11  C   UNL     1       7.759   4.159   0.615  0.00  0.00    +0.000 A 
ATOM     12  C   UNL     1       7.093   5.271   1.368  0.00  0.00    +0.000 C 
ATOM     13  C   UNL     1       7.188   2.890   0.612  0.00  0.00    +0.000 A 
ENDBRANCH   3   7
BRANCH   1  14
ATOM     14  C   UNL     1       3.816  -1.230  -0.027  0.00  0.00    +0.000 C 
BRANCH  14  20
ATOM     15  C   UNL     1       1.310   3.089   4.093  0.00  0.00    +0.000 C 
ATOM     16  C   UNL     1       1.874   1.947   3.323  0.00  0.00    +0.000 A 
ATOM     17  C   UNL     1       1.875   1.884   1.948  0.00  0.00    +0.000 A 
ATOM     18  N   UNL     1       2.364   0.840   1.248  0.00  0.00    +0.000 NA
ATOM     19  C   UNL     1       2.857  -0.190   1.950  0.00  0.00    +0.000 A 
ATOM     20  N   UNL     1       3.292  -1.333   1.320  0.00  0.00    +0.000 N 
ATOM     21  N   UNL     1       2.924  -0.211   3.286  0.00  0.00    +0.000 NA
ATOM     22  C   UNL     1       2.429   0.854   3.944  0.00  0.00    +0.000 A 
ATOM     23  H   UNL     1       3.867  -1.859   1.968  0.00  0.00    +0.000 HD
ENDBRANCH  14  20
ENDBRANCH   1  14
TORSDOF 3
