REMARK  Name = 
REMARK  7 active torsions:
REMARK  status: ('A' for Active; 'I' for Inactive)
REMARK    1  A    between atoms: C_1  and  C_2
REMARK    2  A    between atoms: C_2  and  N_3
REMARK    3  A    between atoms: N_3  and  C_4
REMARK    4  A    between atoms: N_3  and  C_11
REMARK    5  A    between atoms: C_4  and  C_5
REMARK    6  A    between atoms: C_11  and  C_12
REMARK    7  A    between atoms: C_16  and  C_18
REMARK                            x       y       z     vdW  Elec       q    Type
REMARK                         _______ _______ _______ _____ _____    ______ ____
ROOT
ATOM      1  C   UNL     1       4.942  -2.131  -1.962  0.00  0.00    +0.000 C 
ATOM      2  C   UNL     1       3.933  -3.098  -2.611  0.00  0.00    +0.000 C 
ATOM      3  C   UNL     1       3.241  -4.002  -1.590  0.00  0.00    +0.000 C 
ATOM      4  N   UNL     1       4.230  -4.717  -0.782  0.00  0.00    +0.000 N 
ATOM      5  C   UNL     1       4.170  -6.119  -0.752  0.00  0.00    +0.000 C 
ATOM      6  O   UNL     1       3.293  -6.732  -1.357  0.00  0.00    +0.000 OA
ATOM      7  C   UNL     1       5.206  -3.852  -0.111  0.00  0.00    +0.000 C 
ATOM      8  C   UNL     1       5.919  -2.938  -1.097  0.00  0.00    +0.000 C 
ENDROOT
BRANCH   5   9
ATOM      9  C   UNL     1       5.162  -6.870   0.031  0.00  0.00    +0.000 A 
ATOM     10  C   UNL     1       5.517  -6.562   1.333  0.00  0.00    +0.000 A 
ATOM     11  S   UNL     1       6.728  -7.582   1.968  0.00  0.00    +0.000 S 
ATOM     12  C   UNL     1       6.662  -8.594   0.600  0.00  0.00    +0.000 A 
ATOM     13  N   UNL     1       7.400  -9.734   0.547  0.00  0.00    +0.000 NA
ATOM     14  C   UNL     1       7.190 -10.448  -0.509  0.00  0.00    +0.000 A 
ATOM     15  N   UNL     1       6.335 -10.108  -1.525  0.00  0.00    +0.000 N 
ATOM     16  C   UNL     1       5.651  -8.910  -1.565  0.00  0.00    +0.000 A 
ATOM     17  O   UNL     1       5.023  -8.590  -2.571  0.00  0.00    +0.000 OA
ATOM     18  C   UNL     1       5.791  -8.113  -0.359  0.00  0.00    +0.000 A 
ATOM     19  H   UNL     1       6.238 -10.700  -2.337  0.00  0.00    +0.000 HD
ENDBRANCH   5   9
BRANCH   1  20
ATOM     20  C   UNL     1       4.237  -0.994  -1.173  0.00  0.00    +0.000 C 
BRANCH  20  21
ATOM     21  N   UNL     1       5.159  -0.044  -0.494  0.00  0.00    +0.000 NA
BRANCH  21  23
ATOM     22  C   UNL     1       7.003   1.654  -0.928  0.00  0.00    +0.000 C 
ATOM     23  C   UNL     1       6.007   0.645  -1.494  0.00  0.00    +0.000 C 
ENDBRANCH  21  23
BRANCH  21  24
ATOM     24  C   UNL     1       4.377   0.952   0.288  0.00  0.00    +0.000 C 
BRANCH  24  25
ATOM     25  C   UNL     1       3.519   0.414   1.421  0.00  0.00    +0.000 A 
ATOM     26  C   UNL     1       4.083  -0.330   2.459  0.00  0.00    +0.000 A 
ATOM     27  C   UNL     1       3.280  -0.707   3.533  0.00  0.00    +0.000 A 
ATOM     28  C   UNL     1       1.942  -0.334   3.548  0.00  0.00    +0.000 A 
ATOM     29  C   UNL     1       1.455   0.391   2.474  0.00  0.00    +0.000 A 
ATOM     30  N   UNL     1       2.207   0.766   1.418  0.00  0.00    +0.000 NA
ENDBRANCH  24  25
ENDBRANCH  21  24
ENDBRANCH  20  21
ENDBRANCH   1  20
TORSDOF 6
