REMARK  Name = 
REMARK  7 active torsions:
REMARK  status: ('A' for Active; 'I' for Inactive)
REMARK    1  A    between atoms: N_1  and  C_2
REMARK    2  A    between atoms: C_2  and  C_3
REMARK    3  A    between atoms: C_6  and  C_7
REMARK    4  A    between atoms: C_7  and  N_8
REMARK    5  A    between atoms: N_8  and  C_9
REMARK    6  A    between atoms: C_13  and  C_14
REMARK    7  A    between atoms: C_14  and  O_16
REMARK                            x       y       z     vdW  Elec       q    Type
REMARK                         _______ _______ _______ _____ _____    ______ ____
ROOT
ATOM      1  N   UNL     1       4.282   0.767   6.296  0.00  0.00    +0.000 N 
ATOM      2  H   UNL     1       4.541   1.551   5.701  0.00  0.00    +0.000 HD
ENDROOT
BRANCH   1   3
ATOM      3  C   UNL     1       4.811   0.854   7.585  0.00  0.00    +0.000 A 
ATOM      4  C   UNL     1       5.086  -0.260   8.389  0.00  0.00    +0.000 A 
ATOM      5  C   UNL     1       5.536  -0.122   9.706  0.00  0.00    +0.000 A 
ATOM      6  C   UNL     1       5.693   1.143  10.263  0.00  0.00    +0.000 A 
ATOM      7  C   UNL     1       5.404   2.272   9.491  0.00  0.00    +0.000 A 
ATOM      8  C   UNL     1       4.945   2.121   8.172  0.00  0.00    +0.000 A 
BRANCH   7   9
ATOM      9  C   UNL     1       5.514   3.643  10.044  0.00  0.00    +0.000 C 
ATOM     10  O   UNL     1       4.775   4.556   9.719  0.00  0.00    +0.000 OA
BRANCH   9  11
ATOM     11  O   UNL     1       6.540   3.800  10.909  0.00  0.00    +0.000 OA
ATOM     12  H   UNL     1       7.162   3.051  10.948  0.00  0.00    +0.000 HD
ENDBRANCH   9  11
ENDBRANCH   7   9
ENDBRANCH   1   3
BRANCH   1  13
ATOM     13  C   UNL     1       4.248  -0.507   5.594  0.00  0.00    +0.000 C 
BRANCH  13  17
ATOM     14  C   UNL     1       2.758  -0.100   1.540  0.00  0.00    +0.000 A 
ATOM     15  C   UNL     1       4.127   0.028   1.816  0.00  0.00    +0.000 A 
ATOM     16  C   UNL     1       4.607  -0.082   3.126  0.00  0.00    +0.000 A 
ATOM     17  C   UNL     1       3.727  -0.327   4.187  0.00  0.00    +0.000 A 
ATOM     18  C   UNL     1       2.354  -0.417   3.918  0.00  0.00    +0.000 A 
ATOM     19  C   UNL     1       1.876  -0.311   2.608  0.00  0.00    +0.000 A 
BRANCH  14  20
ATOM     20  C   UNL     1       2.244   0.008   0.126  0.00  0.00    +0.000 C 
BRANCH  20  21
ATOM     21  N   UNL     1       2.849  -0.993  -0.747  0.00  0.00    +0.000 NA
ATOM     22  H   UNL     1       2.386  -0.967  -1.653  0.00  0.00    +0.000 HD
ATOM     23  H   UNL     1       2.666  -1.918  -0.358  0.00  0.00    +0.000 HD
ENDBRANCH  20  21
ENDBRANCH  14  20
ENDBRANCH  13  17
ENDBRANCH   1  13
TORSDOF 7
