REMARK  Name = 
REMARK  8 active torsions:
REMARK  status: ('A' for Active; 'I' for Inactive)
REMARK    1  A    between atoms: C_1  and  C_2
REMARK    2  A    between atoms: C_2  and  C_3
REMARK    3  A    between atoms: C_2  and  C_4
REMARK    4  A    between atoms: C_2  and  C_5
REMARK    5  A    between atoms: C_8  and  C_9
REMARK    6  A    between atoms: C_9  and  N_10
REMARK    7  A    between atoms: C_15  and  C_16
REMARK    8  A    between atoms: C_16  and  O_18
REMARK                            x       y       z     vdW  Elec       q    Type
REMARK                         _______ _______ _______ _____ _____    ______ ____
ROOT
ATOM      1  N   UNL     1       2.556   5.747   3.558  0.00  0.00    +0.000 N 
ATOM      2  C   UNL     1       2.426   7.031   3.024  0.00  0.00    +0.000 A 
ATOM      3  C   UNL     1       1.216   7.495   3.502  0.00  0.00    +0.000 A 
ATOM      4  C   UNL     1       1.217   6.984   4.826  0.00  0.00    +0.000 A 
ATOM      5  C   UNL     1       0.742   7.458   6.054  0.00  0.00    +0.000 A 
ATOM      6  C   UNL     1       0.914   6.639   7.169  0.00  0.00    +0.000 A 
ATOM      7  C   UNL     1       1.324   5.308   7.039  0.00  0.00    +0.000 A 
ATOM      8  C   UNL     1       1.780   4.818   5.811  0.00  0.00    +0.000 A 
ATOM      9  C   UNL     1       1.842   5.734   4.754  0.00  0.00    +0.000 A 
ENDROOT
BRANCH   6  10
ATOM     10  C   UNL     1       0.710   7.197   8.523  0.00  0.00    +0.000 C 
ATOM     11  O   UNL     1       0.164   6.563   9.423  0.00  0.00    +0.000 OA
BRANCH  10  12
ATOM     12  O   UNL     1       1.223   8.439   8.670  0.00  0.00    +0.000 OA
ATOM     13  H   UNL     1       1.755   8.758   7.917  0.00  0.00    +0.000 HD
ENDBRANCH  10  12
ENDBRANCH   6  10
BRANCH   1  14
ATOM     14  C   UNL     1       3.732   4.923   3.268  0.00  0.00    +0.000 C 
BRANCH  14  18
ATOM     15  C   UNL     1       2.882   1.451   0.776  0.00  0.00    +0.000 A 
ATOM     16  C   UNL     1       2.729   2.758   0.281  0.00  0.00    +0.000 A 
ATOM     17  C   UNL     1       2.995   3.881   1.077  0.00  0.00    +0.000 A 
ATOM     18  C   UNL     1       3.431   3.734   2.398  0.00  0.00    +0.000 A 
ATOM     19  C   UNL     1       3.655   2.441   2.878  0.00  0.00    +0.000 A 
ATOM     20  C   UNL     1       3.387   1.321   2.081  0.00  0.00    +0.000 A 
BRANCH  15  22
ATOM     21  C   UNL     1       1.873   0.544  -1.413  0.00  0.00    +0.000 C 
ATOM     22  C   UNL     1       2.474   0.203  -0.032  0.00  0.00    +0.000 C 
ATOM     23  C   UNL     1       1.398  -0.584   0.750  0.00  0.00    +0.000 C 
ATOM     24  C   UNL     1       3.685  -0.725  -0.269  0.00  0.00    +0.000 C 
ENDBRANCH  15  22
ENDBRANCH  14  18
ENDBRANCH   1  14
TORSDOF 5
