REMARK  Name = 
REMARK  5 active torsions:
REMARK  status: ('A' for Active; 'I' for Inactive)
REMARK    1  A    between atoms: C_1  and  C_2
REMARK    2  A    between atoms: N_6  and  C_7
REMARK    3  A    between atoms: C_7  and  C_8
REMARK    4  A    between atoms: C_12  and  C_13
REMARK    5  A    between atoms: C_17  and  C_18
REMARK                            x       y       z     vdW  Elec       q    Type
REMARK                         _______ _______ _______ _____ _____    ______ ____
ROOT
ATOM      1  C   UNL     1       5.294  -0.995  -0.070  0.00  0.00    +0.000 A 
ATOM      2  C   UNL     1       5.809   0.303  -0.158  0.00  0.00    +0.000 A 
ATOM      3  C   UNL     1       7.180   0.518  -0.048  0.00  0.00    +0.000 A 
ATOM      4  C   UNL     1       8.046  -0.560   0.154  0.00  0.00    +0.000 A 
ATOM      5  C   UNL     1       7.568  -1.880   0.255  0.00  0.00    +0.000 A 
ATOM      6  C   UNL     1       6.182  -2.073   0.112  0.00  0.00    +0.000 A 
ENDROOT
BRANCH   5   7
ATOM      7  C   UNL     1       8.480  -3.005   0.554  0.00  0.00    +0.000 A 
ATOM      8  C   UNL     1       8.291  -4.292   0.049  0.00  0.00    +0.000 A 
ATOM      9  N   UNL     1       9.082  -5.361   0.323  0.00  0.00    +0.000 NA
ATOM     10  C   UNL     1      10.137  -5.147   1.145  0.00  0.00    +0.000 A 
ATOM     11  C   UNL     1      10.440  -3.917   1.706  0.00  0.00    +0.000 A 
ATOM     12  C   UNL     1       9.590  -2.846   1.404  0.00  0.00    +0.000 A 
BRANCH  11  13
ATOM     13  C   UNL     1      11.601  -3.673   2.597  0.00  0.00    +0.000 C 
ATOM     14  N   UNL     1      12.435  -4.711   2.906  0.00  0.00    +0.000 N 
ATOM     15  O   UNL     1      11.828  -2.559   3.053  0.00  0.00    +0.000 OA
ATOM     16  H   UNL     1      12.347  -5.663   2.587  0.00  0.00    +0.000 HD
ATOM     17  H   UNL     1      13.216  -4.494   3.514  0.00  0.00    +0.000 HD
ENDBRANCH  11  13
ENDBRANCH   5   7
BRANCH   1  18
ATOM     18  C   UNL     1       3.803  -1.242  -0.113  0.00  0.00    +0.000 C 
BRANCH  18  24
ATOM     19  C   UNL     1      -2.184  -2.239  -1.818  0.00  0.00    +0.000 C 
ATOM     20  C   UNL     1      -0.709  -2.057  -1.747  0.00  0.00    +0.000 A 
ATOM     21  C   UNL     1       0.039  -1.456  -2.735  0.00  0.00    +0.000 A 
ATOM     22  N   UNL     1       1.373  -1.259  -2.658  0.00  0.00    +0.000 NA
ATOM     23  C   UNL     1       1.988  -1.697  -1.553  0.00  0.00    +0.000 A 
ATOM     24  N   UNL     1       3.359  -1.473  -1.471  0.00  0.00    +0.000 N 
ATOM     25  N   UNL     1       1.350  -2.302  -0.540  0.00  0.00    +0.000 NA
ATOM     26  C   UNL     1       0.021  -2.469  -0.657  0.00  0.00    +0.000 A 
ATOM     27  H   UNL     1       3.573  -0.735  -2.131  0.00  0.00    +0.000 HD
ENDBRANCH  18  24
ENDBRANCH   1  18
TORSDOF 4
