REMARK  Name = 
REMARK  6 active torsions:
REMARK  status: ('A' for Active; 'I' for Inactive)
REMARK    1  A    between atoms: C_2  and  C_3
REMARK    2  A    between atoms: C_6  and  O_7
REMARK    3  A    between atoms: O_7  and  C_8
REMARK    4  A    between atoms: C_11  and  C_12
REMARK    5  A    between atoms: C_12  and  N_13
REMARK    6  A    between atoms: C_14  and  C_16
REMARK                            x       y       z     vdW  Elec       q    Type
REMARK                         _______ _______ _______ _____ _____    ______ ____
ROOT
ATOM      1  C   UNL     1       6.617  -4.932   0.136  0.00  0.00    +0.000 C 
ENDROOT
BRANCH   1   5
ATOM      2  C   UNL     1       4.531  -1.161   0.267  0.00  0.00    +0.000 A 
ATOM      3  C   UNL     1       4.386  -1.984  -0.850  0.00  0.00    +0.000 A 
ATOM      4  C   UNL     1       5.075  -3.203  -0.912  0.00  0.00    +0.000 A 
ATOM      5  C   UNL     1       5.899  -3.607   0.149  0.00  0.00    +0.000 A 
ATOM      6  C   UNL     1       6.106  -2.728   1.220  0.00  0.00    +0.000 A 
ATOM      7  C   UNL     1       5.450  -1.501   1.264  0.00  0.00    +0.000 A 
BRANCH   2   8
ATOM      8  O   UNL     1       3.744  -0.029   0.345  0.00  0.00    +0.000 OA
BRANCH   8  12
ATOM      9  C   UNL     1       2.214   1.013   4.098  0.00  0.00    +0.000 A 
ATOM     10  C   UNL     1       2.557   1.994   3.159  0.00  0.00    +0.000 A 
ATOM     11  C   UNL     1       3.047   1.625   1.900  0.00  0.00    +0.000 A 
ATOM     12  C   UNL     1       3.196   0.274   1.579  0.00  0.00    +0.000 A 
ATOM     13  C   UNL     1       2.786  -0.704   2.494  0.00  0.00    +0.000 A 
ATOM     14  C   UNL     1       2.331  -0.338   3.761  0.00  0.00    +0.000 A 
BRANCH   9  16
ATOM     15  N   UNL     1       1.345   1.653   6.456  0.00  0.00    +0.000 NA
ATOM     16  C   UNL     1       1.735   1.378   5.399  0.00  0.00    +0.000 C 
ENDBRANCH   9  16
ENDBRANCH   8  12
ENDBRANCH   2   8
ENDBRANCH   1   5
BRANCH   1  17
ATOM     17  N   UNL     1       7.943  -4.771  -0.397  0.00  0.00    +0.000 N 
ATOM     18  C   UNL     1       8.797  -5.830  -0.552  0.00  0.00    +0.000 C 
ATOM     19  O   UNL     1       8.469  -6.982  -0.287  0.00  0.00    +0.000 OA
ATOM     20  H   UNL     1       8.325  -3.833  -0.370  0.00  0.00    +0.000 HD
BRANCH  18  21
ATOM     21  C   UNL     1      10.109  -5.511  -1.131  0.00  0.00    +0.000 A 
ATOM     22  C   UNL     1      10.833  -6.493  -1.791  0.00  0.00    +0.000 A 
ATOM     23  S   UNL     1      12.277  -5.918  -2.495  0.00  0.00    +0.000 S 
ATOM     24  C   UNL     1      12.016  -4.350  -1.888  0.00  0.00    +0.000 A 
ATOM     25  N   UNL     1      12.902  -3.345  -2.128  0.00  0.00    +0.000 NA
ATOM     26  C   UNL     1      12.587  -2.216  -1.586  0.00  0.00    +0.000 A 
ATOM     27  N   UNL     1      11.473  -2.001  -0.818  0.00  0.00    +0.000 N 
ATOM     28  C   UNL     1      10.547  -2.980  -0.559  0.00  0.00    +0.000 A 
ATOM     29  O   UNL     1       9.552  -2.751   0.123  0.00  0.00    +0.000 OA
ATOM     30  C   UNL     1      10.844  -4.268  -1.160  0.00  0.00    +0.000 A 
ATOM     31  H   UNL     1      11.289  -1.095  -0.413  0.00  0.00    +0.000 HD
ENDBRANCH  18  21
ENDBRANCH   1  17
TORSDOF 6
