REMARK  Name = 
REMARK  8 active torsions:
REMARK  status: ('A' for Active; 'I' for Inactive)
REMARK    1  A    between atoms: C_2  and  C_21
REMARK    2  A    between atoms: N_3  and  C_4
REMARK    3  A    between atoms: C_4  and  C_5
REMARK    4  A    between atoms: C_8  and  C_9
REMARK    5  A    between atoms: C_9  and  O_10
REMARK    6  A    between atoms: C_9  and  C_11
REMARK    7  A    between atoms: C_11  and  O_12
REMARK    8  A    between atoms: O_12  and  C_13
REMARK                            x       y       z     vdW  Elec       q    Type
REMARK                         _______ _______ _______ _____ _____    ______ ____
ROOT
ATOM      1  C   UNL     1       3.633  -7.231  -7.890  0.00  0.00    +0.000 A 
ATOM      2  C   UNL     1       4.362  -6.101  -8.271  0.00  0.00    +0.000 A 
ATOM      3  C   UNL     1       5.118  -5.388  -7.336  0.00  0.00    +0.000 A 
ATOM      4  C   UNL     1       5.188  -5.799  -5.996  0.00  0.00    +0.000 A 
ATOM      5  C   UNL     1       4.476  -6.953  -5.625  0.00  0.00    +0.000 A 
ATOM      6  C   UNL     1       3.711  -7.662  -6.559  0.00  0.00    +0.000 A 
ENDROOT
BRANCH   1   7
ATOM      7  C   UNL     1       2.859  -8.015  -8.921  0.00  0.00    +0.000 C 
BRANCH   7  10
ATOM      8  O   UNL     1       2.280  -9.752 -11.128  0.00  0.00    +0.000 OA
ATOM      9  C   UNL     1       3.293  -9.897 -10.464  0.00  0.00    +0.000 C 
ATOM     10  N   UNL     1       3.698  -9.053  -9.458  0.00  0.00    +0.000 N 
ATOM     11  H   UNL     1       4.438  -9.363  -8.848  0.00  0.00    +0.000 HD
BRANCH   9  12
ATOM     12  C   UNL     1       4.109 -11.110 -10.484  0.00  0.00    +0.000 A 
ATOM     13  C   UNL     1       3.558 -12.375 -10.563  0.00  0.00    +0.000 A 
ATOM     14  S   UNL     1       4.656 -13.573 -10.007  0.00  0.00    +0.000 S 
ATOM     15  C   UNL     1       5.893 -12.419  -9.786  0.00  0.00    +0.000 A 
ATOM     16  N   UNL     1       7.074 -12.715  -9.179  0.00  0.00    +0.000 NA
ATOM     17  C   UNL     1       7.909 -11.728  -9.137  0.00  0.00    +0.000 A 
ATOM     18  N   UNL     1       7.697 -10.491  -9.695  0.00  0.00    +0.000 N 
ATOM     19  C   UNL     1       6.530 -10.153 -10.340  0.00  0.00    +0.000 A 
ATOM     20  O   UNL     1       6.387  -9.078 -10.909  0.00  0.00    +0.000 OA
ATOM     21  C   UNL     1       5.520 -11.189 -10.279  0.00  0.00    +0.000 A 
ATOM     22  H   UNL     1       8.425  -9.791  -9.706  0.00  0.00    +0.000 HD
ENDBRANCH   9  12
ENDBRANCH   7  10
ENDBRANCH   1   7
BRANCH   4  23
ATOM     23  C   UNL     1       5.996  -5.065  -4.934  0.00  0.00    +0.000 C 
BRANCH  23  24
ATOM     24  O   UNL     1       5.101  -4.650  -3.893  0.00  0.00    +0.000 OA
ATOM     25  H   UNL     1       4.282  -4.341  -4.318  0.00  0.00    +0.000 HD
ENDBRANCH  23  24
BRANCH  23  26
ATOM     26  C   UNL     1       6.785  -3.845  -5.441  0.00  0.00    +0.000 C 
BRANCH  26  27
ATOM     27  O   UNL     1       7.619  -3.323  -4.402  0.00  0.00    +0.000 OA
BRANCH  27  28
ATOM     28  C   UNL     1       8.235  -2.157  -4.809  0.00  0.00    +0.000 A 
ATOM     29  N   UNL     1       8.536  -1.295  -3.830  0.00  0.00    +0.000 NA
ATOM     30  C   UNL     1       9.130  -0.152  -4.217  0.00  0.00    +0.000 A 
ATOM     31  C   UNL     1       9.441   0.141  -5.525  0.00  0.00    +0.000 A 
ATOM     32  C   UNL     1       9.107  -0.825  -6.443  0.00  0.00    +0.000 A 
ATOM     33  N   UNL     1       8.502  -1.980  -6.117  0.00  0.00    +0.000 NA
ENDBRANCH  27  28
ENDBRANCH  26  27
ENDBRANCH  23  26
ENDBRANCH   4  23
TORSDOF 8
