REMARK  Name = 
REMARK  6 active torsions:
REMARK  status: ('A' for Active; 'I' for Inactive)
REMARK    1  A    between atoms: C_1  and  C_2
REMARK    2  A    between atoms: C_2  and  C_3
REMARK    3  A    between atoms: C_2  and  C_4
REMARK    4  A    between atoms: C_2  and  C_15
REMARK    5  A    between atoms: C_5  and  C_6
REMARK    6  A    between atoms: C_9  and  C_10
REMARK                            x       y       z     vdW  Elec       q    Type
REMARK                         _______ _______ _______ _____ _____    ______ ____
ROOT
ATOM      1  C   UNL     1       3.028  -1.264  -0.499  0.00  0.00    +0.000 C 
ATOM      2  C   UNL     1       3.325  -1.677  -1.746  0.00  0.00    +0.000 C 
ENDROOT
BRANCH   2   3
ATOM      3  C   UNL     1       3.785  -3.044  -2.049  0.00  0.00    +0.000 A 
ATOM      4  C   UNL     1       4.051  -3.455  -3.356  0.00  0.00    +0.000 A 
ATOM      5  N   UNL     1       4.476  -4.706  -3.683  0.00  0.00    +0.000 NA
ATOM      6  C   UNL     1       4.630  -5.548  -2.618  0.00  0.00    +0.000 A 
ATOM      7  C   UNL     1       4.370  -5.154  -1.317  0.00  0.00    +0.000 A 
ATOM      8  N   UNL     1       3.944  -3.901  -1.007  0.00  0.00    +0.000 NA
BRANCH   6   9
ATOM      9  C   UNL     1       5.092  -6.937  -2.886  0.00  0.00    +0.000 C 
ATOM     10  N   UNL     1       5.330  -7.249  -4.198  0.00  0.00    +0.000 N 
ATOM     11  O   UNL     1       5.255  -7.759  -1.991  0.00  0.00    +0.000 OA
ATOM     12  H   UNL     1       5.192  -6.553  -4.921  0.00  0.00    +0.000 HD
ATOM     13  H   UNL     1       5.651  -8.178  -4.437  0.00  0.00    +0.000 HD
ENDBRANCH   6   9
ENDBRANCH   2   3
BRANCH   1  15
ATOM     14  C   UNL     1       0.987   0.004   0.049  0.00  0.00    +0.000 C 
ATOM     15  C   UNL     1       2.527   0.105  -0.040  0.00  0.00    +0.000 C 
ATOM     16  C   UNL     1       3.045   0.334   1.404  0.00  0.00    +0.000 C 
BRANCH  15  17
ATOM     17  C   UNL     1       3.008   1.276  -0.924  0.00  0.00    +0.000 A 
ATOM     18  C   UNL     1       2.114   2.137  -1.594  0.00  0.00    +0.000 A 
ATOM     19  C   UNL     1       2.572   3.225  -2.346  0.00  0.00    +0.000 A 
ATOM     20  C   UNL     1       3.934   3.469  -2.443  0.00  0.00    +0.000 A 
ATOM     21  F   UNL     1       4.365   4.518  -3.156  0.00  0.00    +0.000 F 
ATOM     22  C   UNL     1       4.836   2.632  -1.805  0.00  0.00    +0.000 A 
ATOM     23  F   UNL     1       6.153   2.866  -1.899  0.00  0.00    +0.000 F 
ATOM     24  C   UNL     1       4.387   1.545  -1.056  0.00  0.00    +0.000 A 
ENDBRANCH  15  17
ENDBRANCH   1  15
TORSDOF 4
