REMARK  Name = 
REMARK  7 active torsions:
REMARK  status: ('A' for Active; 'I' for Inactive)
REMARK    1  A    between atoms: C_2  and  C_19
REMARK    2  A    between atoms: N_3  and  C_4
REMARK    3  A    between atoms: C_4  and  C_5
REMARK    4  A    between atoms: C_8  and  C_9
REMARK    5  A    between atoms: C_9  and  N_10
REMARK    6  A    between atoms: N_10  and  C_11
REMARK    7  A    between atoms: C_14  and  O_15
REMARK                            x       y       z     vdW  Elec       q    Type
REMARK                         _______ _______ _______ _____ _____    ______ ____
ROOT
ATOM      1  C   UNL     1       3.072  -4.702  14.902  0.00  0.00    +0.000 C 
ENDROOT
BRANCH   1   2
ATOM      2  C   UNL     1       3.871  -4.291  13.697  0.00  0.00    +0.000 A 
ATOM      3  C   UNL     1       3.958  -5.119  12.583  0.00  0.00    +0.000 A 
ATOM      4  N   UNL     1       4.674  -4.796  11.478  0.00  0.00    +0.000 NA
ATOM      5  C   UNL     1       5.312  -3.596  11.519  0.00  0.00    +0.000 A 
ATOM      6  C   UNL     1       5.254  -2.788  12.651  0.00  0.00    +0.000 A 
ATOM      7  N   UNL     1       4.536  -3.108  13.751  0.00  0.00    +0.000 NA
BRANCH   5   8
ATOM      8  C   UNL     1       6.155  -3.154  10.343  0.00  0.00    +0.000 C 
BRANCH   8   9
ATOM      9  N   UNL     1       5.722  -3.611   9.014  0.00  0.00    +0.000 NA
ATOM     10  H   UNL     1       5.756  -4.635   9.042  0.00  0.00    +0.000 HD
BRANCH   9  11
ATOM     11  C   UNL     1       4.356  -3.230   8.627  0.00  0.00    +0.000 C 
ATOM     12  C   UNL     1       4.104  -1.711   8.519  0.00  0.00    +0.000 C 
ATOM     13  C   UNL     1       3.951  -1.391   7.033  0.00  0.00    +0.000 C 
ATOM     14  C   UNL     1       4.554  -2.589   6.320  0.00  0.00    +0.000 C 
ATOM     15  C   UNL     1       4.117  -3.748   7.201  0.00  0.00    +0.000 C 
BRANCH  14  16
ATOM     16  O   UNL     1       4.073  -2.710   4.995  0.00  0.00    +0.000 OA
ATOM     17  H   UNL     1       3.108  -2.821   5.030  0.00  0.00    +0.000 HD
ENDBRANCH  14  16
ENDBRANCH   9  11
ENDBRANCH   8   9
ENDBRANCH   5   8
ENDBRANCH   1   2
BRANCH   1  20
ATOM     18  O   UNL     1       3.227  -7.487  14.966  0.00  0.00    +0.000 OA
ATOM     19  C   UNL     1       3.912  -6.847  15.759  0.00  0.00    +0.000 C 
ATOM     20  N   UNL     1       3.860  -5.481  15.827  0.00  0.00    +0.000 N 
ATOM     21  H   UNL     1       4.613  -4.977  16.287  0.00  0.00    +0.000 HD
BRANCH  19  22
ATOM     22  C   UNL     1       4.800  -7.508  16.716  0.00  0.00    +0.000 A 
ATOM     23  C   UNL     1       4.523  -8.796  17.152  0.00  0.00    +0.000 A 
ATOM     24  S   UNL     1       5.682  -9.406  18.245  0.00  0.00    +0.000 S 
ATOM     25  C   UNL     1       6.606  -7.979  18.150  0.00  0.00    +0.000 A 
ATOM     26  N   UNL     1       7.778  -7.850  18.829  0.00  0.00    +0.000 NA
ATOM     27  C   UNL     1       8.385  -6.726  18.637  0.00  0.00    +0.000 A 
ATOM     28  N   UNL     1       7.920  -5.712  17.844  0.00  0.00    +0.000 N 
ATOM     29  C   UNL     1       6.712  -5.772  17.191  0.00  0.00    +0.000 A 
ATOM     30  O   UNL     1       6.271  -4.806  16.587  0.00  0.00    +0.000 OA
ATOM     31  C   UNL     1       6.017  -7.036  17.328  0.00  0.00    +0.000 A 
ATOM     32  H   UNL     1       8.422  -4.840  17.761  0.00  0.00    +0.000 HD
ENDBRANCH  19  22
ENDBRANCH   1  20
TORSDOF 7
