REMARK  Name = 
REMARK  9 active torsions:
REMARK  status: ('A' for Active; 'I' for Inactive)
REMARK    1  A    between atoms: C_1  and  O_2
REMARK    2  A    between atoms: O_2  and  C_3
REMARK    3  A    between atoms: C_10  and  C_11
REMARK    4  A    between atoms: N_13  and  C_14
REMARK    5  A    between atoms: C_14  and  C_15
REMARK    6  A    between atoms: C_18  and  C_19
REMARK    7  A    between atoms: C_19  and  O_20
REMARK    8  A    between atoms: O_20  and  C_21
REMARK    9  A    between atoms: C_21  and  C_22
REMARK                            x       y       z     vdW  Elec       q    Type
REMARK                         _______ _______ _______ _____ _____    ______ ____
ROOT
ATOM      1  C   UNL     1       2.881   0.422  -3.467  0.00  0.00    +0.000 C 
ENDROOT
BRANCH   1   2
ATOM      2  C   UNL     1       1.666  -0.464  -3.334  0.00  0.00    +0.000 A 
ATOM      3  C   UNL     1       1.784  -1.860  -3.376  0.00  0.00    +0.000 A 
ATOM      4  C   UNL     1       0.655  -2.677  -3.238  0.00  0.00    +0.000 A 
ATOM      5  C   UNL     1      -0.619  -2.116  -3.067  0.00  0.00    +0.000 A 
ATOM      6  C   UNL     1      -0.738  -0.720  -3.053  0.00  0.00    +0.000 A 
ATOM      7  C   UNL     1       0.390   0.096  -3.192  0.00  0.00    +0.000 A 
BRANCH   5   8
ATOM      8  C   UNL     1      -1.838  -2.994  -2.914  0.00  0.00    +0.000 C 
BRANCH   8   9
ATOM      9  O   UNL     1      -1.685  -3.811  -1.756  0.00  0.00    +0.000 OA
BRANCH   9  10
ATOM     10  C   UNL     1      -2.824  -4.647  -1.539  0.00  0.00    +0.000 C 
BRANCH  10  11
ATOM     11  C   UNL     1      -2.622  -5.492  -0.309  0.00  0.00    +0.000 A 
ATOM     12  C   UNL     1      -1.870  -5.038   0.785  0.00  0.00    +0.000 A 
ATOM     13  C   UNL     1      -1.731  -5.826   1.931  0.00  0.00    +0.000 A 
ATOM     14  C   UNL     1      -2.353  -7.072   2.005  0.00  0.00    +0.000 A 
ATOM     15  C   UNL     1      -3.114  -7.530   0.931  0.00  0.00    +0.000 A 
ATOM     16  C   UNL     1      -3.245  -6.739  -0.209  0.00  0.00    +0.000 A 
ATOM     17  F   UNL     1      -3.991  -7.196  -1.226  0.00  0.00    +0.000 F 
ENDBRANCH  10  11
ENDBRANCH   9  10
ENDBRANCH   8   9
ENDBRANCH   5   8
ENDBRANCH   1   2
BRANCH   1  20
ATOM     18  C   UNL     1       4.251   1.451  -5.239  0.00  0.00    +0.000 C 
ATOM     19  O   UNL     1       5.026   1.933  -4.417  0.00  0.00    +0.000 OA
ATOM     20  N   UNL     1       3.173   0.702  -4.850  0.00  0.00    +0.000 N 
ATOM     21  H   UNL     1       2.493   0.407  -5.535  0.00  0.00    +0.000 HD
BRANCH  18  29
ATOM     22  C   UNL     1       2.564   0.332  -8.025  0.00  0.00    +0.000 A 
ATOM     23  N   UNL     1       2.139  -0.007  -9.257  0.00  0.00    +0.000 NA
ATOM     24  C   UNL     1       2.836   0.435 -10.307  0.00  0.00    +0.000 A 
ATOM     25  N   UNL     1       3.924   1.199 -10.280  0.00  0.00    +0.000 NA
ATOM     26  C   UNL     1       4.314   1.515  -9.034  0.00  0.00    +0.000 A 
ATOM     27  S   UNL     1       5.681   2.496  -8.808  0.00  0.00    +0.000 S 
ATOM     28  C   UNL     1       5.525   2.411  -7.118  0.00  0.00    +0.000 A 
ATOM     29  C   UNL     1       4.449   1.642  -6.689  0.00  0.00    +0.000 A 
ATOM     30  C   UNL     1       3.710   1.127  -7.840  0.00  0.00    +0.000 A 
BRANCH  22  32
ATOM     31  C   UNL     1       1.037  -1.237  -7.201  0.00  0.00    +0.000 C 
ATOM     32  O   UNL     1       1.792  -0.054  -6.949  0.00  0.00    +0.000 OA
ENDBRANCH  22  32
ENDBRANCH  18  29
ENDBRANCH   1  20
TORSDOF 8
