REMARK  Name = 
REMARK  12 active torsions:
REMARK  status: ('A' for Active; 'I' for Inactive)
REMARK    1  A    between atoms: C_1  and  C_2
REMARK    2  A    between atoms: C_2  and  N_3
REMARK    3  A    between atoms: N_3  and  C_4
REMARK    4  A    between atoms: C_4  and  C_5
REMARK    5  A    between atoms: C_6  and  C_8
REMARK    6  A    between atoms: C_11  and  N_12
REMARK    7  A    between atoms: N_12  and  C_13
REMARK    8  A    between atoms: C_13  and  C_14
REMARK    9  A    between atoms: C_14  and  C_15
REMARK   10  A    between atoms: C_14  and  C_16
REMARK   11  A    between atoms: C_14  and  C_17
REMARK   12  A    between atoms: C_21  and  C_22
REMARK                            x       y       z     vdW  Elec       q    Type
REMARK                         _______ _______ _______ _____ _____    ______ ____
ROOT
ATOM      1  N   UNL     1       6.189   5.274  -4.636  0.00  0.00    +0.000 N 
ATOM      2  H   UNL     1       6.590   4.856  -5.473  0.00  0.00    +0.000 HD
ENDROOT
BRANCH   1   6
ATOM      3  C   UNL     1       4.908   2.227  -1.997  0.00  0.00    +0.000 A 
ATOM      4  C   UNL     1       4.249   3.454  -2.020  0.00  0.00    +0.000 A 
ATOM      5  C   UNL     1       4.639   4.452  -2.913  0.00  0.00    +0.000 A 
ATOM      6  C   UNL     1       5.744   4.285  -3.751  0.00  0.00    +0.000 A 
ATOM      7  C   UNL     1       6.503   3.115  -3.593  0.00  0.00    +0.000 A 
ATOM      8  C   UNL     1       6.085   2.086  -2.735  0.00  0.00    +0.000 A 
BRANCH   3  10
ATOM      9  N   UNL     1       3.024   0.784  -1.146  0.00  0.00    +0.000 N 
ATOM     10  C   UNL     1       4.410   1.085  -1.188  0.00  0.00    +0.000 C 
ATOM     11  O   UNL     1       5.245   0.409  -0.585  0.00  0.00    +0.000 OA
BRANCH   9  13
ATOM     12  C   UNL     1       2.687  -1.630  -0.671  0.00  0.00    +0.000 C 
ATOM     13  C   UNL     1       2.605  -0.205  -0.151  0.00  0.00    +0.000 C 
ENDBRANCH   9  13
BRANCH   9  14
ATOM     14  C   UNL     1       1.989   1.523  -1.883  0.00  0.00    +0.000 C 
ATOM     15  C   UNL     1       0.776   0.750  -2.370  0.00  0.00    +0.000 C 
ENDBRANCH   9  14
ENDBRANCH   3  10
ENDBRANCH   1   6
BRANCH   1  16
ATOM     16  C   UNL     1       5.338   6.445  -4.884  0.00  0.00    +0.000 C 
BRANCH  16  17
ATOM     17  C   UNL     1       5.964   7.471  -5.877  0.00  0.00    +0.000 C 
ATOM     18  C   UNL     1       7.369   7.867  -5.356  0.00  0.00    +0.000 C 
ATOM     19  C   UNL     1       6.150   6.836  -7.274  0.00  0.00    +0.000 C 
BRANCH  17  20
ATOM     20  C   UNL     1       5.009   8.684  -6.025  0.00  0.00    +0.000 A 
ATOM     21  C   UNL     1       5.387   9.991  -5.671  0.00  0.00    +0.000 A 
ATOM     22  C   UNL     1       4.522  11.075  -5.856  0.00  0.00    +0.000 A 
ATOM     23  C   UNL     1       3.260  10.882  -6.409  0.00  0.00    +0.000 A 
ATOM     24  C   UNL     1       2.853   9.599  -6.773  0.00  0.00    +0.000 A 
ATOM     25  C   UNL     1       3.712   8.508  -6.559  0.00  0.00    +0.000 A 
BRANCH  24  26
ATOM     26  C   UNL     1       1.508   9.437  -7.389  0.00  0.00    +0.000 C 
ATOM     27  N   UNL     1       1.317   8.355  -8.205  0.00  0.00    +0.000 N 
ATOM     28  O   UNL     1       0.616  10.258  -7.218  0.00  0.00    +0.000 OA
ATOM     29  H   UNL     1       2.088   7.828  -8.587  0.00  0.00    +0.000 HD
ATOM     30  H   UNL     1       0.446   8.344  -8.721  0.00  0.00    +0.000 HD
ENDBRANCH  24  26
ENDBRANCH  17  20
ENDBRANCH  16  17
ENDBRANCH   1  16
TORSDOF 8
