REMARK  Name = 
REMARK  6 active torsions:
REMARK  status: ('A' for Active; 'I' for Inactive)
REMARK    1  A    between atoms: C_2  and  C_25
REMARK    2  A    between atoms: N_3  and  C_4
REMARK    3  A    between atoms: C_4  and  C_5
REMARK    4  A    between atoms: C_8  and  C_9
REMARK    5  A    between atoms: C_9  and  N_10
REMARK    6  A    between atoms: C_11  and  C_13
REMARK                            x       y       z     vdW  Elec       q    Type
REMARK                         _______ _______ _______ _____ _____    ______ ____
ROOT
ATOM      1  C   UNL     1       3.323  -3.117  -1.787  0.00  0.00    +0.000 A 
ATOM      2  C   UNL     1       4.530  -2.701  -2.366  0.00  0.00    +0.000 A 
ATOM      3  C   UNL     1       5.417  -3.634  -2.914  0.00  0.00    +0.000 A 
ATOM      4  C   UNL     1       5.107  -5.000  -2.913  0.00  0.00    +0.000 A 
ATOM      5  C   UNL     1       3.903  -5.416  -2.327  0.00  0.00    +0.000 A 
ATOM      6  C   UNL     1       3.017  -4.484  -1.780  0.00  0.00    +0.000 A 
ENDROOT
BRANCH   1   7
ATOM      7  C   UNL     1       2.359  -2.109  -1.217  0.00  0.00    +0.000 C 
BRANCH   7  10
ATOM      8  O   UNL     1       0.315  -0.228  -0.810  0.00  0.00    +0.000 OA
ATOM      9  C   UNL     1       0.446  -0.738  -1.915  0.00  0.00    +0.000 C 
ATOM     10  N   UNL     1       1.411  -1.675  -2.216  0.00  0.00    +0.000 N 
ATOM     11  H   UNL     1       1.617  -1.890  -3.183  0.00  0.00    +0.000 HD
BRANCH   9  12
ATOM     12  C   UNL     1      -0.437  -0.337  -3.032  0.00  0.00    +0.000 A 
ATOM     13  C   UNL     1      -0.800  -1.217  -4.055  0.00  0.00    +0.000 A 
ATOM     14  C   UNL     1      -1.634  -0.770  -5.078  0.00  0.00    +0.000 A 
ATOM     15  C   UNL     1      -2.080   0.542  -5.038  0.00  0.00    +0.000 A 
ATOM     16  N   UNL     1      -1.761   1.414  -4.056  0.00  0.00    +0.000 NA
ATOM     17  C   UNL     1      -0.955   0.951  -3.066  0.00  0.00    +0.000 A 
ENDBRANCH   9  12
ENDBRANCH   7  10
ENDBRANCH   1   7
BRANCH   4  18
ATOM     18  C   UNL     1       6.064  -6.013  -3.488  0.00  0.00    +0.000 C 
BRANCH  18  19
ATOM     19  N   UNL     1       6.987  -6.484  -2.487  0.00  0.00    +0.000 N 
ATOM     20  C   UNL     1       8.002  -7.352  -2.801  0.00  0.00    +0.000 C 
ATOM     21  O   UNL     1       8.204  -7.726  -3.954  0.00  0.00    +0.000 OA
ATOM     22  H   UNL     1       6.704  -6.380  -1.518  0.00  0.00    +0.000 HD
BRANCH  20  23
ATOM     23  C   UNL     1       8.879  -7.764  -1.696  0.00  0.00    +0.000 A 
ATOM     24  C   UNL     1      10.162  -8.219  -1.967  0.00  0.00    +0.000 A 
ATOM     25  S   UNL     1      11.064  -8.595  -0.569  0.00  0.00    +0.000 S 
ATOM     26  C   UNL     1       9.753  -8.214   0.445  0.00  0.00    +0.000 A 
ATOM     27  N   UNL     1       9.853  -8.341   1.796  0.00  0.00    +0.000 NA
ATOM     28  C   UNL     1       8.775  -8.050   2.442  0.00  0.00    +0.000 A 
ATOM     29  N   UNL     1       7.604  -7.636   1.860  0.00  0.00    +0.000 N 
ATOM     30  C   UNL     1       7.464  -7.472   0.502  0.00  0.00    +0.000 A 
ATOM     31  O   UNL     1       6.411  -7.075   0.016  0.00  0.00    +0.000 OA
ATOM     32  C   UNL     1       8.647  -7.793  -0.272  0.00  0.00    +0.000 A 
ATOM     33  H   UNL     1       6.794  -7.421   2.420  0.00  0.00    +0.000 HD
ENDBRANCH  20  23
ENDBRANCH  18  19
ENDBRANCH   4  18
TORSDOF 6
