REMARK  Name = 
REMARK  5 active torsions:
REMARK  status: ('A' for Active; 'I' for Inactive)
REMARK    1  A    between atoms: C_2  and  C_4
REMARK    2  A    between atoms: C_7  and  O_8
REMARK    3  A    between atoms: O_8  and  C_9
REMARK    4  A    between atoms: C_9  and  C_10
REMARK    5  A    between atoms: C_14  and  C_15
REMARK                            x       y       z     vdW  Elec       q    Type
REMARK                         _______ _______ _______ _____ _____    ______ ____
ROOT
ATOM      1  C   UNL     1       4.946   5.953  -0.224  0.00  0.00    +0.000 C 
ENDROOT
BRANCH   1   2
ATOM      2  C   UNL     1       5.813   7.131  -0.609  0.00  0.00    +0.000 A 
ATOM      3  C   UNL     1       5.266   8.420  -0.588  0.00  0.00    +0.000 A 
ATOM      4  C   UNL     1       6.062   9.529  -0.853  0.00  0.00    +0.000 A 
ATOM      5  C   UNL     1       7.422   9.364  -1.121  0.00  0.00    +0.000 A 
ATOM      6  C   UNL     1       8.020   8.090  -1.119  0.00  0.00    +0.000 A 
ATOM      7  C   UNL     1       7.185   6.982  -0.870  0.00  0.00    +0.000 A 
BRANCH   6   8
ATOM      8  C   UNL     1       9.473   7.926  -1.328  0.00  0.00    +0.000 A 
ATOM      9  C   UNL     1      10.402   8.858  -0.843  0.00  0.00    +0.000 A 
ATOM     10  N   UNL     1      11.751   8.770  -0.980  0.00  0.00    +0.000 NA
ATOM     11  C   UNL     1      12.213   7.683  -1.631  0.00  0.00    +0.000 A 
ATOM     12  C   UNL     1      11.391   6.698  -2.145  0.00  0.00    +0.000 A 
ATOM     13  F   UNL     1      11.909   5.637  -2.774  0.00  0.00    +0.000 F 
ATOM     14  C   UNL     1      10.015   6.820  -1.999  0.00  0.00    +0.000 A 
ENDBRANCH   6   8
ENDBRANCH   1   2
BRANCH   1  15
ATOM     15  O   UNL     1       5.315   4.763  -0.926  0.00  0.00    +0.000 OA
BRANCH  15  19
ATOM     16  C   UNL     1       3.200   1.231  -0.218  0.00  0.00    +0.000 A 
ATOM     17  C   UNL     1       2.834   2.380   0.489  0.00  0.00    +0.000 A 
ATOM     18  C   UNL     1       3.521   3.581   0.279  0.00  0.00    +0.000 A 
ATOM     19  C   UNL     1       4.578   3.644  -0.634  0.00  0.00    +0.000 A 
ATOM     20  C   UNL     1       4.949   2.488  -1.325  0.00  0.00    +0.000 A 
ATOM     21  C   UNL     1       4.270   1.283  -1.115  0.00  0.00    +0.000 A 
BRANCH  16  23
ATOM     22  N   UNL     1       1.176   0.006   0.361  0.00  0.00    +0.000 N 
ATOM     23  C   UNL     1       2.490  -0.060  -0.016  0.00  0.00    +0.000 C 
ATOM     24  O   UNL     1       3.039  -1.134  -0.212  0.00  0.00    +0.000 OA
ATOM     25  H   UNL     1       0.678  -0.874   0.391  0.00  0.00    +0.000 HD
ATOM     26  H   UNL     1       0.631   0.850   0.275  0.00  0.00    +0.000 HD
ENDBRANCH  16  23
ENDBRANCH  15  19
ENDBRANCH   1  15
TORSDOF 5
