REMARK  Name = 
REMARK  5 active torsions:
REMARK  status: ('A' for Active; 'I' for Inactive)
REMARK    1  A    between atoms: C_2  and  C_4
REMARK    2  A    between atoms: C_7  and  N_8
REMARK    3  A    between atoms: N_8  and  C_9
REMARK    4  A    between atoms: C_9  and  C_10
REMARK    5  A    between atoms: C_14  and  C_15
REMARK                            x       y       z     vdW  Elec       q    Type
REMARK                         _______ _______ _______ _____ _____    ______ ____
ROOT
ATOM      1  C   UNL     1       4.677   4.844  -3.573  0.00  0.00    +0.000 C 
ATOM      2  C   UNL     1       3.698   3.711  -3.258  0.00  0.00    +0.000 C 
ATOM      3  C   UNL     1       4.548   4.275  -2.169  0.00  0.00    +0.000 C 
ENDROOT
BRANCH   1   4
ATOM      4  C   UNL     1       5.816   4.378  -4.486  0.00  0.00    +0.000 A 
ATOM      5  C   UNL     1       7.090   4.075  -3.977  0.00  0.00    +0.000 A 
ATOM      6  C   UNL     1       7.998   3.307  -4.702  0.00  0.00    +0.000 A 
ATOM      7  C   UNL     1       7.649   2.839  -5.963  0.00  0.00    +0.000 A 
ATOM      8  C   UNL     1       6.430   3.206  -6.552  0.00  0.00    +0.000 A 
ATOM      9  C   UNL     1       5.546   4.014  -5.819  0.00  0.00    +0.000 A 
BRANCH   8  10
ATOM     10  C   UNL     1       5.994   2.622  -7.884  0.00  0.00    +0.000 C 
ATOM     11  C   UNL     1       5.620   1.139  -7.709  0.00  0.00    +0.000 C 
ATOM     12  C   UNL     1       5.356   0.468  -9.046  0.00  0.00    +0.000 C 
ATOM     13  O   UNL     1       6.457   0.655  -9.931  0.00  0.00    +0.000 OA
ATOM     14  C   UNL     1       6.668   2.032 -10.238  0.00  0.00    +0.000 C 
ATOM     15  C   UNL     1       7.049   2.805  -8.983  0.00  0.00    +0.000 C 
ENDBRANCH   8  10
ENDBRANCH   1   4
BRANCH   1  16
ATOM     16  N   UNL     1       4.123   6.192  -3.819  0.00  0.00    +0.000 N 
ATOM     17  H   UNL     1       3.113   6.257  -3.904  0.00  0.00    +0.000 HD
BRANCH  16  21
ATOM     18  C   UNL     1       5.993   9.759  -2.609  0.00  0.00    +0.000 A 
ATOM     19  C   UNL     1       6.634   8.539  -2.385  0.00  0.00    +0.000 A 
ATOM     20  C   UNL     1       5.986   7.352  -2.708  0.00  0.00    +0.000 A 
ATOM     21  C   UNL     1       4.695   7.352  -3.250  0.00  0.00    +0.000 A 
ATOM     22  C   UNL     1       4.028   8.578  -3.370  0.00  0.00    +0.000 A 
ATOM     23  C   UNL     1       4.664   9.778  -3.035  0.00  0.00    +0.000 A 
BRANCH  18  25
ATOM     24  N   UNL     1       8.048  10.980  -2.902  0.00  0.00    +0.000 N 
ATOM     25  C   UNL     1       6.752  11.027  -2.491  0.00  0.00    +0.000 C 
ATOM     26  O   UNL     1       6.217  12.066  -2.125  0.00  0.00    +0.000 OA
ATOM     27  H   UNL     1       8.531  11.865  -2.998  0.00  0.00    +0.000 HD
ATOM     28  H   UNL     1       8.402  10.203  -3.447  0.00  0.00    +0.000 HD
ENDBRANCH  18  25
ENDBRANCH  16  21
ENDBRANCH   1  16
TORSDOF 5
