REMARK  Name = 
REMARK  7 active torsions:
REMARK  status: ('A' for Active; 'I' for Inactive)
REMARK    1  A    between atoms: C_2  and  C_19
REMARK    2  A    between atoms: N_3  and  C_4
REMARK    3  A    between atoms: C_4  and  C_5
REMARK    4  A    between atoms: C_8  and  C_9
REMARK    5  A    between atoms: C_9  and  N_10
REMARK    6  A    between atoms: N_10  and  C_11
REMARK    7  A    between atoms: C_11  and  C_12
REMARK                            x       y       z     vdW  Elec       q    Type
REMARK                         _______ _______ _______ _____ _____    ______ ____
ROOT
ATOM      1  C   UNL     1       1.379   9.811 -14.203  0.00  0.00    +0.000 C 
ENDROOT
BRANCH   1   2
ATOM      2  C   UNL     1       2.300   8.970 -13.356  0.00  0.00    +0.000 A 
ATOM      3  C   UNL     1       2.536   9.317 -12.020  0.00  0.00    +0.000 A 
ATOM      4  C   UNL     1       3.364   8.532 -11.211  0.00  0.00    +0.000 A 
ATOM      5  C   UNL     1       3.974   7.377 -11.715  0.00  0.00    +0.000 A 
ATOM      6  C   UNL     1       3.770   7.053 -13.066  0.00  0.00    +0.000 A 
ATOM      7  C   UNL     1       2.949   7.844 -13.880  0.00  0.00    +0.000 A 
BRANCH   5   8
ATOM      8  C   UNL     1       4.879   6.528 -10.842  0.00  0.00    +0.000 C 
BRANCH   8   9
ATOM      9  N   UNL     1       4.183   6.009  -9.656  0.00  0.00    +0.000 NA
ATOM     10  H   UNL     1       3.381   5.461  -9.968  0.00  0.00    +0.000 HD
BRANCH   9  11
ATOM     11  C   UNL     1       5.069   5.178  -8.834  0.00  0.00    +0.000 C 
BRANCH  11  12
ATOM     12  C   UNL     1       4.335   4.565  -7.634  0.00  0.00    +0.000 C 
ATOM     13  C   UNL     1       5.235   3.708  -6.753  0.00  0.00    +0.000 C 
ATOM     14  C   UNL     1       4.415   3.601  -5.485  0.00  0.00    +0.000 C 
ATOM     15  N   UNL     1       3.876   4.951  -5.292  0.00  0.00    +0.000 NA
ATOM     16  C   UNL     1       3.738   5.558  -6.634  0.00  0.00    +0.000 C 
ATOM     17  H   UNL     1       4.555   5.500  -4.763  0.00  0.00    +0.000 HD
ENDBRANCH  11  12
ENDBRANCH   9  11
ENDBRANCH   8   9
ENDBRANCH   5   8
ENDBRANCH   1   2
BRANCH   1  20
ATOM     18  O   UNL     1       1.760  12.444 -13.250  0.00  0.00    +0.000 OA
ATOM     19  C   UNL     1       2.266  12.108 -14.316  0.00  0.00    +0.000 C 
ATOM     20  N   UNL     1       2.080  10.870 -14.875  0.00  0.00    +0.000 N 
ATOM     21  H   UNL     1       2.675  10.580 -15.643  0.00  0.00    +0.000 HD
BRANCH  19  22
ATOM     22  C   UNL     1       3.072  13.038 -15.111  0.00  0.00    +0.000 A 
ATOM     23  C   UNL     1       2.875  14.410 -15.011  0.00  0.00    +0.000 A 
ATOM     24  S   UNL     1       3.901  15.315 -16.034  0.00  0.00    +0.000 S 
ATOM     25  C   UNL     1       4.665  13.907 -16.607  0.00  0.00    +0.000 A 
ATOM     26  N   UNL     1       5.680  13.970 -17.521  0.00  0.00    +0.000 NA
ATOM     27  C   UNL     1       6.181  12.824 -17.831  0.00  0.00    +0.000 A 
ATOM     28  N   UNL     1       5.769  11.619 -17.326  0.00  0.00    +0.000 N 
ATOM     29  C   UNL     1       4.706  11.500 -16.471  0.00  0.00    +0.000 A 
ATOM     30  O   UNL     1       4.268  10.395 -16.167  0.00  0.00    +0.000 OA
ATOM     31  C   UNL     1       4.130  12.763 -16.047  0.00  0.00    +0.000 A 
ATOM     32  H   UNL     1       6.173  10.750 -17.648  0.00  0.00    +0.000 HD
ENDBRANCH  19  22
ENDBRANCH   1  20
TORSDOF 7
