REMARK  Name = 
REMARK  8 active torsions:
REMARK  status: ('A' for Active; 'I' for Inactive)
REMARK    1  A    between atoms: C_1  and  O_2
REMARK    2  A    between atoms: O_2  and  C_3
REMARK    3  A    between atoms: C_10  and  C_11
REMARK    4  A    between atoms: N_13  and  C_14
REMARK    5  A    between atoms: C_14  and  C_15
REMARK    6  A    between atoms: C_18  and  C_19
REMARK    7  A    between atoms: C_19  and  N_20
REMARK    8  A    between atoms: C_21  and  C_22
REMARK                            x       y       z     vdW  Elec       q    Type
REMARK                         _______ _______ _______ _____ _____    ______ ____
ROOT
ATOM      1  C   UNL     1       4.152  -0.269   2.266  0.00  0.00    +0.000 C 
ATOM      2  O   UNL     1       4.687  -0.228   3.371  0.00  0.00    +0.000 OA
ATOM      3  N   UNL     1       3.178   0.631   1.923  0.00  0.00    +0.000 N 
ATOM      4  H   UNL     1       2.754   0.602   1.005  0.00  0.00    +0.000 HD
ENDROOT
BRANCH   1  12
ATOM      5  C   UNL     1       3.049  -1.043  -0.918  0.00  0.00    +0.000 A 
ATOM      6  N   UNL     1       2.815  -1.572  -2.138  0.00  0.00    +0.000 NA
ATOM      7  C   UNL     1       3.551  -2.615  -2.527  0.00  0.00    +0.000 A 
ATOM      8  N   UNL     1       4.515  -3.213  -1.836  0.00  0.00    +0.000 NA
ATOM      9  C   UNL     1       4.715  -2.662  -0.628  0.00  0.00    +0.000 A 
ATOM     10  S   UNL     1       5.912  -3.305   0.389  0.00  0.00    +0.000 S 
ATOM     11  C   UNL     1       5.558  -2.170   1.602  0.00  0.00    +0.000 A 
ATOM     12  C   UNL     1       4.538  -1.285   1.269  0.00  0.00    +0.000 A 
ATOM     13  C   UNL     1       4.037  -1.580  -0.072  0.00  0.00    +0.000 A 
BRANCH   5  15
ATOM     14  C   UNL     1       1.349   0.468  -1.501  0.00  0.00    +0.000 C 
ATOM     15  O   UNL     1       2.298   0.047  -0.522  0.00  0.00    +0.000 OA
ENDBRANCH   5  15
ENDBRANCH   1  12
BRANCH   3  16
ATOM     16  C   UNL     1       2.735   1.649   2.848  0.00  0.00    +0.000 C 
BRANCH  16  17
ATOM     17  C   UNL     1       1.632   2.490   2.256  0.00  0.00    +0.000 A 
ATOM     18  C   UNL     1       0.290   2.112   2.397  0.00  0.00    +0.000 A 
ATOM     19  C   UNL     1      -0.729   2.858   1.792  0.00  0.00    +0.000 A 
ATOM     20  C   UNL     1      -0.426   3.986   1.018  0.00  0.00    +0.000 A 
ATOM     21  C   UNL     1       0.913   4.381   0.904  0.00  0.00    +0.000 A 
ATOM     22  C   UNL     1       1.932   3.636   1.508  0.00  0.00    +0.000 A 
BRANCH  20  23
ATOM     23  C   UNL     1      -1.511   4.744   0.298  0.00  0.00    +0.000 C 
BRANCH  23  24
ATOM     24  N   UNL     1      -2.027   5.850   1.068  0.00  0.00    +0.000 N 
ATOM     25  C   UNL     1      -2.990   6.673   0.531  0.00  0.00    +0.000 C 
ATOM     26  C   UNL     1      -3.465   7.772   1.441  0.00  0.00    +0.000 C 
ATOM     27  O   UNL     1      -3.436   6.536  -0.604  0.00  0.00    +0.000 OA
ATOM     28  H   UNL     1      -1.729   5.962   2.028  0.00  0.00    +0.000 HD
ENDBRANCH  23  24
ENDBRANCH  20  23
ENDBRANCH  16  17
ENDBRANCH   3  16
TORSDOF 6
