REMARK  Name = 
REMARK  7 active torsions:
REMARK  status: ('A' for Active; 'I' for Inactive)
REMARK    1  A    between atoms: C_2  and  C_3
REMARK    2  A    between atoms: C_6  and  C_7
REMARK    3  A    between atoms: C_7  and  O_8
REMARK    4  A    between atoms: O_8  and  C_9
REMARK    5  A    between atoms: C_12  and  C_13
REMARK    6  A    between atoms: C_13  and  C_14
REMARK    7  A    between atoms: C_14  and  N_15
REMARK                            x       y       z     vdW  Elec       q    Type
REMARK                         _______ _______ _______ _____ _____    ______ ____
ROOT
ATOM      1  C   UNL     1       5.639  -1.625   0.321  0.00  0.00    +0.000 A 
ATOM      2  C   UNL     1       6.392  -0.914   1.255  0.00  0.00    +0.000 A 
ATOM      3  C   UNL     1       7.745  -1.221   1.453  0.00  0.00    +0.000 A 
ATOM      4  C   UNL     1       8.363  -2.239   0.715  0.00  0.00    +0.000 A 
ATOM      5  C   UNL     1       7.594  -2.967  -0.199  0.00  0.00    +0.000 A 
ATOM      6  C   UNL     1       6.246  -2.657  -0.398  0.00  0.00    +0.000 A 
ENDROOT
BRANCH   1   7
ATOM      7  O   UNL     1       4.324  -1.409   0.015  0.00  0.00    +0.000 OA
BRANCH   7   8
ATOM      8  C   UNL     1       3.651  -0.385   0.748  0.00  0.00    +0.000 C 
BRANCH   8  12
ATOM      9  C   UNL     1      -0.519  -0.090  -0.359  0.00  0.00    +0.000 A 
ATOM     10  C   UNL     1       0.148  -1.310  -0.490  0.00  0.00    +0.000 A 
ATOM     11  C   UNL     1       1.498  -1.409  -0.146  0.00  0.00    +0.000 A 
ATOM     12  C   UNL     1       2.202  -0.289   0.319  0.00  0.00    +0.000 A 
ATOM     13  C   UNL     1       1.520   0.930   0.456  0.00  0.00    +0.000 A 
ATOM     14  C   UNL     1       0.168   1.030   0.116  0.00  0.00    +0.000 A 
BRANCH   9  16
ATOM     15  N   UNL     1      -3.030   0.097  -0.981  0.00  0.00    +0.000 NA
ATOM     16  C   UNL     1      -1.907   0.012  -0.704  0.00  0.00    +0.000 C 
ENDBRANCH   9  16
ENDBRANCH   8  12
ENDBRANCH   7   8
ENDBRANCH   1   7
BRANCH   4  17
ATOM     17  C   UNL     1       9.836  -2.532   0.881  0.00  0.00    +0.000 C 
BRANCH  17  18
ATOM     18  C   UNL     1      10.126  -3.583   1.958  0.00  0.00    +0.000 C 
BRANCH  18  19
ATOM     19  N   UNL     1      11.563  -3.849   2.060  0.00  0.00    +0.000 NA
ATOM     20  H   UNL     1      11.903  -4.248   1.186  0.00  0.00    +0.000 HD
ATOM     21  H   UNL     1      11.723  -4.560   2.775  0.00  0.00    +0.000 HD
ENDBRANCH  18  19
ENDBRANCH  17  18
ENDBRANCH   4  17
TORSDOF 7
