REMARK  Name = 
REMARK  8 active torsions:
REMARK  status: ('A' for Active; 'I' for Inactive)
REMARK    1  A    between atoms: C_2  and  C_3
REMARK    2  A    between atoms: C_3  and  C_4
REMARK    3  A    between atoms: C_4  and  N_5
REMARK    4  A    between atoms: C_4  and  C_18
REMARK    5  A    between atoms: C_6  and  C_8
REMARK    6  A    between atoms: C_21  and  C_22
REMARK    7  A    between atoms: C_22  and  O_23
REMARK    8  A    between atoms: O_23  and  C_24
REMARK                            x       y       z     vdW  Elec       q    Type
REMARK                         _______ _______ _______ _____ _____    ______ ____
ROOT
ATOM      1  C   UNL     1       4.231   0.508  -1.302  0.00  0.00    +0.000 C 
ENDROOT
BRANCH   1   2
ATOM      2  C   UNL     1       5.759   0.504  -1.289  0.00  0.00    +0.000 A 
ATOM      3  C   UNL     1       6.460  -0.522  -1.939  0.00  0.00    +0.000 A 
ATOM      4  C   UNL     1       7.858  -0.506  -1.996  0.00  0.00    +0.000 A 
ATOM      5  C   UNL     1       8.585   0.526  -1.392  0.00  0.00    +0.000 A 
ATOM      6  C   UNL     1       7.890   1.536  -0.718  0.00  0.00    +0.000 A 
ATOM      7  C   UNL     1       6.496   1.511  -0.645  0.00  0.00    +0.000 A 
BRANCH   5   8
ATOM      8  C   UNL     1      10.093   0.562  -1.466  0.00  0.00    +0.000 C 
BRANCH   8   9
ATOM      9  O   UNL     1      10.493   1.246  -2.654  0.00  0.00    +0.000 OA
BRANCH   9  10
ATOM     10  C   UNL     1      11.864   1.379  -2.738  0.00  0.00    +0.000 A 
ATOM     11  C   UNL     1      12.366   2.009  -3.865  0.00  0.00    +0.000 A 
ATOM     12  C   UNL     1      13.746   2.168  -3.974  0.00  0.00    +0.000 A 
ATOM     13  C   UNL     1      14.568   1.693  -2.957  0.00  0.00    +0.000 A 
ATOM     14  C   UNL     1      13.974   1.075  -1.870  0.00  0.00    +0.000 A 
ATOM     15  N   UNL     1      12.641   0.904  -1.738  0.00  0.00    +0.000 NA
ENDBRANCH   9  10
ENDBRANCH   8   9
ENDBRANCH   5   8
ENDBRANCH   1   2
BRANCH   1  16
ATOM     16  N   UNL     1       3.767  -0.122  -0.077  0.00  0.00    +0.000 N 
ATOM     17  C   UNL     1       2.454  -0.439   0.172  0.00  0.00    +0.000 C 
ATOM     18  O   UNL     1       1.546  -0.112  -0.583  0.00  0.00    +0.000 OA
ATOM     19  H   UNL     1       4.476  -0.426   0.578  0.00  0.00    +0.000 HD
BRANCH  17  20
ATOM     20  C   UNL     1       2.201  -1.256   1.370  0.00  0.00    +0.000 A 
ATOM     21  C   UNL     1       1.049  -2.022   1.461  0.00  0.00    +0.000 A 
ATOM     22  S   UNL     1       0.983  -2.992   2.869  0.00  0.00    +0.000 S 
ATOM     23  C   UNL     1       2.472  -2.385   3.423  0.00  0.00    +0.000 A 
ATOM     24  N   UNL     1       3.027  -2.830   4.583  0.00  0.00    +0.000 NA
ATOM     25  C   UNL     1       4.154  -2.276   4.883  0.00  0.00    +0.000 A 
ATOM     26  N   UNL     1       4.770  -1.303   4.137  0.00  0.00    +0.000 N 
ATOM     27  C   UNL     1       4.232  -0.802   2.978  0.00  0.00    +0.000 A 
ATOM     28  O   UNL     1       4.784   0.102   2.359  0.00  0.00    +0.000 OA
ATOM     29  C   UNL     1       2.996  -1.435   2.563  0.00  0.00    +0.000 A 
ATOM     30  H   UNL     1       5.643  -0.895   4.437  0.00  0.00    +0.000 HD
ENDBRANCH  17  20
ENDBRANCH   1  16
BRANCH   1  31
ATOM     31  C   UNL     1       3.634   1.912  -1.540  0.00  0.00    +0.000 C 
BRANCH  31  33
ATOM     32  N   UNL     1       4.458   2.896  -3.836  0.00  0.00    +0.000 NA
ATOM     33  C   UNL     1       4.089   2.463  -2.824  0.00  0.00    +0.000 C 
ENDBRANCH  31  33
ENDBRANCH   1  31
TORSDOF 8
