REMARK  Name = 
REMARK  5 active torsions:
REMARK  status: ('A' for Active; 'I' for Inactive)
REMARK    1  A    between atoms: C_2  and  C_4
REMARK    2  A    between atoms: C_7  and  N_8
REMARK    3  A    between atoms: N_8  and  C_9
REMARK    4  A    between atoms: C_9  and  C_10
REMARK    5  A    between atoms: C_14  and  N_15
REMARK                            x       y       z     vdW  Elec       q    Type
REMARK                         _______ _______ _______ _____ _____    ______ ____
ROOT
ATOM      1  N   UNL     1       5.254  -0.847  -5.679  0.00  0.00    +0.000 N 
ATOM      2  H   UNL     1       5.107  -0.373  -6.564  0.00  0.00    +0.000 HD
ENDROOT
BRANCH   1   6
ATOM      3  C   UNL     1       8.181   0.879  -3.185  0.00  0.00    +0.000 A 
ATOM      4  C   UNL     1       7.904  -0.484  -3.082  0.00  0.00    +0.000 A 
ATOM      5  C   UNL     1       6.958  -1.072  -3.927  0.00  0.00    +0.000 A 
ATOM      6  C   UNL     1       6.273  -0.326  -4.895  0.00  0.00    +0.000 A 
ATOM      7  C   UNL     1       6.546   1.049  -4.965  0.00  0.00    +0.000 A 
ATOM      8  C   UNL     1       7.492   1.649  -4.124  0.00  0.00    +0.000 A 
BRANCH   3  10
ATOM      9  N   UNL     1      10.161   0.764  -1.771  0.00  0.00    +0.000 N 
ATOM     10  C   UNL     1       9.156   1.538  -2.279  0.00  0.00    +0.000 C 
ATOM     11  O   UNL     1       9.084   2.733  -2.017  0.00  0.00    +0.000 OA
ATOM     12  H   UNL     1      10.865   1.240  -1.222  0.00  0.00    +0.000 HD
ATOM     13  H   UNL     1      10.383  -0.151  -2.132  0.00  0.00    +0.000 HD
ENDBRANCH   3  10
ENDBRANCH   1   6
BRANCH   1  14
ATOM     14  C   UNL     1       4.884  -2.257  -5.681  0.00  0.00    +0.000 C 
BRANCH  14  15
ATOM     15  C   UNL     1       5.711  -3.121  -6.597  0.00  0.00    +0.000 A 
ATOM     16  C   UNL     1       5.469  -4.490  -6.620  0.00  0.00    +0.000 A 
ATOM     17  N   UNL     1       6.098  -5.357  -7.437  0.00  0.00    +0.000 NA
ATOM     18  C   UNL     1       7.023  -4.828  -8.276  0.00  0.00    +0.000 A 
ATOM     19  C   UNL     1       7.380  -3.478  -8.358  0.00  0.00    +0.000 A 
ATOM     20  C   UNL     1       6.689  -2.636  -7.479  0.00  0.00    +0.000 A 
BRANCH  19  21
ATOM     21  N   UNL     1       8.331  -3.007  -9.235  0.00  0.00    +0.000 N 
ATOM     22  C   UNL     1       9.165  -1.824  -8.974  0.00  0.00    +0.000 C 
ATOM     23  C   UNL     1       8.973  -0.790 -10.093  0.00  0.00    +0.000 C 
ATOM     24  O   UNL     1       9.223  -1.362 -11.389  0.00  0.00    +0.000 OA
ATOM     25  C   UNL     1       8.331  -2.465 -11.629  0.00  0.00    +0.000 C 
ATOM     26  C   UNL     1       8.506  -3.577 -10.579  0.00  0.00    +0.000 C 
ENDBRANCH  19  21
ENDBRANCH  14  15
ENDBRANCH   1  14
TORSDOF 5
