REMARK  Name = 
REMARK  6 active torsions:
REMARK  status: ('A' for Active; 'I' for Inactive)
REMARK    1  A    between atoms: C_1  and  C_2
REMARK    2  A    between atoms: C_4  and  O_5
REMARK    3  A    between atoms: O_5  and  C_6
REMARK    4  A    between atoms: C_6  and  C_7
REMARK    5  A    between atoms: C_11  and  C_12
REMARK    6  A    between atoms: C_22  and  C_23
REMARK                            x       y       z     vdW  Elec       q    Type
REMARK                         _______ _______ _______ _____ _____    ______ ____
ROOT
ATOM      1  C   UNL     1      -1.122   3.501  -0.049  0.00  0.00    +0.000 C 
ENDROOT
BRANCH   1   2
ATOM      2  C   UNL     1       0.243   3.503   0.613  0.00  0.00    +0.000 A 
ATOM      3  C   UNL     1       0.731   4.721   1.108  0.00  0.00    +0.000 A 
ATOM      4  C   UNL     1       1.931   4.771   1.810  0.00  0.00    +0.000 A 
ATOM      5  C   UNL     1       2.685   3.612   1.979  0.00  0.00    +0.000 A 
ATOM      6  C   UNL     1       2.298   2.393   1.394  0.00  0.00    +0.000 A 
ATOM      7  C   UNL     1       1.051   2.357   0.730  0.00  0.00    +0.000 A 
BRANCH   6   8
ATOM      8  C   UNL     1       3.208   1.226   1.410  0.00  0.00    +0.000 A 
ATOM      9  C   UNL     1       2.755  -0.097   1.458  0.00  0.00    +0.000 A 
ATOM     10  N   UNL     1       3.548  -1.200   1.387  0.00  0.00    +0.000 NA
ATOM     11  C   UNL     1       4.876  -0.980   1.267  0.00  0.00    +0.000 A 
ATOM     12  C   UNL     1       5.435   0.281   1.241  0.00  0.00    +0.000 A 
ATOM     13  F   UNL     1       6.759   0.442   1.124  0.00  0.00    +0.000 F 
ATOM     14  C   UNL     1       4.601   1.389   1.315  0.00  0.00    +0.000 A 
ENDBRANCH   6   8
ENDBRANCH   1   2
BRANCH   1  15
ATOM     15  O   UNL     1      -1.656   2.188  -0.244  0.00  0.00    +0.000 OA
BRANCH  15  19
ATOM     16  C   UNL     1      -5.676   4.245  -2.327  0.00  0.00    +0.000 C 
ATOM     17  C   UNL     1      -4.885   3.020  -1.950  0.00  0.00    +0.000 A 
ATOM     18  C   UNL     1      -3.687   3.199  -1.218  0.00  0.00    +0.000 A 
ATOM     19  C   UNL     1      -2.867   2.116  -0.888  0.00  0.00    +0.000 A 
ATOM     20  C   UNL     1      -3.279   0.833  -1.244  0.00  0.00    +0.000 A 
ATOM     21  C   UNL     1      -4.470   0.634  -1.953  0.00  0.00    +0.000 A 
ATOM     22  C   UNL     1      -5.279   1.721  -2.321  0.00  0.00    +0.000 A 
BRANCH  22  23
ATOM     23  C   UNL     1      -6.505   1.489  -3.147  0.00  0.00    +0.000 C 
ATOM     24  N   UNL     1      -7.152   0.291  -2.996  0.00  0.00    +0.000 N 
ATOM     25  O   UNL     1      -6.948   2.321  -3.930  0.00  0.00    +0.000 OA
ATOM     26  H   UNL     1      -6.961  -0.352  -2.242  0.00  0.00    +0.000 HD
ATOM     27  H   UNL     1      -8.013   0.182  -3.508  0.00  0.00    +0.000 HD
ENDBRANCH  22  23
ENDBRANCH  15  19
ENDBRANCH   1  15
TORSDOF 5
