REMARK  Name = 
REMARK  7 active torsions:
REMARK  status: ('A' for Active; 'I' for Inactive)
REMARK    1  A    between atoms: C_1  and  C_2
REMARK    2  A    between atoms: C_2  and  C_3
REMARK    3  A    between atoms: C_6  and  O_7
REMARK    4  A    between atoms: O_7  and  C_8
REMARK    5  A    between atoms: C_15  and  C_16
REMARK    6  A    between atoms: C_15  and  C_17
REMARK    7  A    between atoms: C_20  and  C_21
REMARK                            x       y       z     vdW  Elec       q    Type
REMARK                         _______ _______ _______ _____ _____    ______ ____
ROOT
ATOM      1  C   UNL     1       0.789   0.086  -0.199  0.00  0.00    +0.000 C 
ATOM      2  C   UNL     1       2.293   0.007  -0.030  0.00  0.00    +0.000 C 
ATOM      3  C   UNL     1       3.143   0.766  -1.033  0.00  0.00    +0.000 C 
ATOM      4  C   UNL     1       3.136  -0.744  -1.102  0.00  0.00    +0.000 C 
ATOM      5  C   UNL     1       4.424  -1.444  -0.711  0.00  0.00    +0.000 C 
ENDROOT
BRANCH   2   6
ATOM      6  C   UNL     1       2.755  -0.029   1.423  0.00  0.00    +0.000 A 
ATOM      7  C   UNL     1       2.752  -1.226   2.157  0.00  0.00    +0.000 A 
ATOM      8  C   UNL     1       3.301  -1.296   3.442  0.00  0.00    +0.000 A 
ATOM      9  C   UNL     1       3.887  -0.170   4.012  0.00  0.00    +0.000 A 
ATOM     10  C   UNL     1       3.787   1.053   3.351  0.00  0.00    +0.000 A 
ATOM     11  C   UNL     1       3.223   1.122   2.075  0.00  0.00    +0.000 A 
BRANCH   9  12
ATOM     12  O   UNL     1       4.520  -0.135   5.216  0.00  0.00    +0.000 OA
BRANCH  12  13
ATOM     13  C   UNL     1       5.327  -1.247   5.588  0.00  0.00    +0.000 C 
ATOM     14  F   UNL     1       5.423  -2.214   4.651  0.00  0.00    +0.000 F 
ATOM     15  F   UNL     1       6.578  -0.806   5.852  0.00  0.00    +0.000 F 
ATOM     16  F   UNL     1       4.828  -1.792   6.720  0.00  0.00    +0.000 F 
ENDBRANCH  12  13
ENDBRANCH   9  12
ENDBRANCH   2   6
BRANCH   4  17
ATOM     17  C   UNL     1       2.391  -1.477  -2.213  0.00  0.00    +0.000 A 
ATOM     18  C   UNL     1       2.268  -0.966  -3.505  0.00  0.00    +0.000 A 
ATOM     19  C   UNL     1       1.601  -1.696  -4.485  0.00  0.00    +0.000 A 
ATOM     20  C   UNL     1       1.093  -2.932  -4.138  0.00  0.00    +0.000 A 
ATOM     21  N   UNL     1       1.212  -3.433  -2.888  0.00  0.00    +0.000 NA
ATOM     22  N   UNL     1       1.859  -2.694  -1.927  0.00  0.00    +0.000 NA
BRANCH  20  23
ATOM     23  C   UNL     1       0.404  -3.784  -5.140  0.00  0.00    +0.000 C 
ATOM     24  N   UNL     1      -0.012  -5.017  -4.701  0.00  0.00    +0.000 N 
ATOM     25  O   UNL     1       0.221  -3.424  -6.294  0.00  0.00    +0.000 OA
ATOM     26  H   UNL     1       0.157  -5.312  -3.745  0.00  0.00    +0.000 HD
ATOM     27  H   UNL     1      -0.470  -5.644  -5.347  0.00  0.00    +0.000 HD
ENDBRANCH  20  23
ENDBRANCH   4  17
TORSDOF 5
