REMARK  Name = 
REMARK  10 active torsions:
REMARK  status: ('A' for Active; 'I' for Inactive)
REMARK    1  A    between atoms: N_1  and  C_2
REMARK    2  A    between atoms: C_2  and  C_3
REMARK    3  A    between atoms: C_3  and  N_4
REMARK    4  A    between atoms: N_4  and  C_5
REMARK    5  A    between atoms: C_5  and  C_6
REMARK    6  A    between atoms: C_9  and  C_10
REMARK    7  A    between atoms: C_10  and  N_11
REMARK    8  A    between atoms: N_11  and  C_12
REMARK    9  A    between atoms: C_12  and  C_13
REMARK   10  A    between atoms: C_20  and  C_22
REMARK                            x       y       z     vdW  Elec       q    Type
REMARK                         _______ _______ _______ _____ _____    ______ ____
ROOT
ATOM      1  N   UNL     1       4.342   1.410  -0.082  0.00  0.00    +0.000 N 
ATOM      2  C   UNL     1       5.083   2.614  -0.131  0.00  0.00    +0.000 C 
ATOM      3  O   UNL     1       4.580   3.649  -0.558  0.00  0.00    +0.000 OA
ENDROOT
BRANCH   2   4
ATOM      4  C   UNL     1       6.486   2.627   0.313  0.00  0.00    +0.000 A 
ATOM      5  C   UNL     1       7.452   1.699  -0.045  0.00  0.00    +0.000 A 
ATOM      6  S   UNL     1       8.991   2.000   0.629  0.00  0.00    +0.000 S 
ATOM      7  C   UNL     1       8.472   3.489   1.262  0.00  0.00    +0.000 A 
ATOM      8  N   UNL     1       9.351   4.325   1.868  0.00  0.00    +0.000 NA
ATOM      9  C   UNL     1       8.844   5.455   2.237  0.00  0.00    +0.000 A 
ATOM     10  N   UNL     1       7.523   5.800   2.076  0.00  0.00    +0.000 N 
ATOM     11  C   UNL     1       6.568   4.932   1.585  0.00  0.00    +0.000 A 
ATOM     12  O   UNL     1       5.376   5.202   1.665  0.00  0.00    +0.000 OA
ATOM     13  C   UNL     1       7.120   3.695   1.059  0.00  0.00    +0.000 A 
ATOM     14  H   UNL     1       7.173   6.677   2.436  0.00  0.00    +0.000 HD
ENDBRANCH   2   4
BRANCH   1  15
ATOM     15  C   UNL     1       2.951   1.483  -0.581  0.00  0.00    +0.000 C 
BRANCH  15  16
ATOM     16  C   UNL     1       2.843   1.708  -2.107  0.00  0.00    +0.000 C 
BRANCH  16  17
ATOM     17  N   UNL     1       1.468   1.990  -2.548  0.00  0.00    +0.000 NA
ATOM     18  H   UNL     1       1.449   2.014  -3.567  0.00  0.00    +0.000 HD
ATOM     19  H   UNL     1       1.225   2.940  -2.259  0.00  0.00    +0.000 HD
ENDBRANCH  16  17
ENDBRANCH  15  16
ENDBRANCH   1  15
BRANCH   1  20
ATOM     20  C   UNL     1       4.925   0.150   0.402  0.00  0.00    +0.000 C 
BRANCH  20  21
ATOM     21  C   UNL     1       4.053  -1.049   0.652  0.00  0.00    +0.000 A 
ATOM     22  C   UNL     1       3.986  -2.077  -0.301  0.00  0.00    +0.000 A 
ATOM     23  C   UNL     1       3.142  -3.170  -0.108  0.00  0.00    +0.000 A 
ATOM     24  C   UNL     1       2.342  -3.249   1.038  0.00  0.00    +0.000 A 
ATOM     25  C   UNL     1       2.491  -2.279   2.038  0.00  0.00    +0.000 A 
ATOM     26  C   UNL     1       3.342  -1.188   1.849  0.00  0.00    +0.000 A 
BRANCH  24  27
ATOM     27  C   UNL     1       1.262  -4.298   1.144  0.00  0.00    +0.000 C 
BRANCH  27  28
ATOM     28  N   UNL     1       1.806  -5.653   1.114  0.00  0.00    +0.000 NA
ATOM     29  H   UNL     1       2.414  -5.763   1.926  0.00  0.00    +0.000 HD
BRANCH  28  30
ATOM     30  C   UNL     1       0.719  -6.628   1.218  0.00  0.00    +0.000 C 
BRANCH  30  31
ATOM     31  C   UNL     1       1.282  -7.995   1.168  0.00  0.00    +0.000 A 
ATOM     32  C   UNL     1       0.886  -9.190   1.727  0.00  0.00    +0.000 A 
ATOM     33  N   UNL     1       1.750 -10.199   1.386  0.00  0.00    +0.000 NA
ATOM     34  C   UNL     1       2.660  -9.636   0.625  0.00  0.00    +0.000 A 
ATOM     35  N   UNL     1       2.412  -8.307   0.453  0.00  0.00    +0.000 N 
ATOM     36  H   UNL     1       2.967  -7.641  -0.068  0.00  0.00    +0.000 HD
ENDBRANCH  30  31
ENDBRANCH  28  30
ENDBRANCH  27  28
ENDBRANCH  24  27
ENDBRANCH  20  21
ENDBRANCH   1  20
TORSDOF 10
