REMARK  Name = 
REMARK  8 active torsions:
REMARK  status: ('A' for Active; 'I' for Inactive)
REMARK    1  A    between atoms: C_1  and  O_2
REMARK    2  A    between atoms: O_2  and  C_3
REMARK    3  A    between atoms: C_10  and  C_11
REMARK    4  A    between atoms: N_13  and  C_14
REMARK    5  A    between atoms: C_14  and  C_15
REMARK    6  A    between atoms: C_18  and  N_19
REMARK    7  A    between atoms: N_19  and  C_20
REMARK    8  A    between atoms: C_20  and  C_21
REMARK                            x       y       z     vdW  Elec       q    Type
REMARK                         _______ _______ _______ _____ _____    ______ ____
ROOT
ATOM      1  C   UNL     1       2.987   0.294   3.300  0.00  0.00    +0.000 C 
ENDROOT
BRANCH   1   2
ATOM      2  C   UNL     1       1.905   1.322   3.088  0.00  0.00    +0.000 A 
ATOM      3  C   UNL     1       0.563   0.942   2.963  0.00  0.00    +0.000 A 
ATOM      4  C   UNL     1      -0.441   1.908   2.804  0.00  0.00    +0.000 A 
ATOM      5  C   UNL     1      -0.129   3.270   2.778  0.00  0.00    +0.000 A 
ATOM      6  C   UNL     1       1.222   3.633   2.806  0.00  0.00    +0.000 A 
ATOM      7  C   UNL     1       2.228   2.677   2.973  0.00  0.00    +0.000 A 
BRANCH   5   8
ATOM      8  N   UNL     1      -1.074   4.292   2.646  0.00  0.00    +0.000 N 
ATOM      9  H   UNL     1      -1.120   4.622   1.684  0.00  0.00    +0.000 HD
BRANCH   8  10
ATOM     10  C   UNL     1      -2.404   4.082   3.209  0.00  0.00    +0.000 C 
BRANCH  10  11
ATOM     11  C   UNL     1      -3.054   5.400   3.589  0.00  0.00    +0.000 A 
ATOM     12  C   UNL     1      -4.457   5.500   3.611  0.00  0.00    +0.000 A 
ATOM     13  C   UNL     1      -5.080   6.671   4.051  0.00  0.00    +0.000 A 
ATOM     14  C   UNL     1      -4.307   7.743   4.477  0.00  0.00    +0.000 A 
ATOM     15  F   UNL     1      -4.908   8.859   4.911  0.00  0.00    +0.000 F 
ATOM     16  C   UNL     1      -2.921   7.669   4.471  0.00  0.00    +0.000 A 
ATOM     17  C   UNL     1      -2.296   6.497   4.036  0.00  0.00    +0.000 A 
ENDBRANCH  10  11
ENDBRANCH   8  10
ENDBRANCH   5   8
ENDBRANCH   1   2
BRANCH   1  20
ATOM     18  C   UNL     1       4.484  -1.134   1.980  0.00  0.00    +0.000 C 
ATOM     19  O   UNL     1       4.935  -1.655   2.998  0.00  0.00    +0.000 OA
ATOM     20  N   UNL     1       3.523  -0.165   2.046  0.00  0.00    +0.000 N 
ATOM     21  H   UNL     1       3.210   0.301   1.206  0.00  0.00    +0.000 HD
BRANCH  18  29
ATOM     22  C   UNL     1       3.553  -0.261  -1.219  0.00  0.00    +0.000 A 
ATOM     23  N   UNL     1       3.398  -0.103  -2.549  0.00  0.00    +0.000 NA
ATOM     24  C   UNL     1       4.191  -0.807  -3.361  0.00  0.00    +0.000 A 
ATOM     25  N   UNL     1       5.139  -1.668  -3.005  0.00  0.00    +0.000 NA
ATOM     26  C   UNL     1       5.267  -1.789  -1.673  0.00  0.00    +0.000 A 
ATOM     27  S   UNL     1       6.430  -2.849  -1.038  0.00  0.00    +0.000 S 
ATOM     28  C   UNL     1       5.986  -2.462   0.555  0.00  0.00    +0.000 A 
ATOM     29  C   UNL     1       4.958  -1.529   0.643  0.00  0.00    +0.000 A 
ATOM     30  C   UNL     1       4.529  -1.127  -0.696  0.00  0.00    +0.000 A 
BRANCH  22  32
ATOM     31  C   UNL     1       1.520   0.872  -0.983  0.00  0.00    +0.000 C 
ATOM     32  O   UNL     1       2.756   0.492  -0.381  0.00  0.00    +0.000 OA
ENDBRANCH  22  32
ENDBRANCH  18  29
ENDBRANCH   1  20
TORSDOF 7
