REMARK  Name = 
REMARK  5 active torsions:
REMARK  status: ('A' for Active; 'I' for Inactive)
REMARK    1  A    between atoms: N_1  and  C_2
REMARK    2  A    between atoms: C_2  and  C_3
REMARK    3  A    between atoms: C_6  and  C_7
REMARK    4  A    between atoms: C_7  and  N_8
REMARK    5  A    between atoms: C_12  and  C_13
REMARK                            x       y       z     vdW  Elec       q    Type
REMARK                         _______ _______ _______ _____ _____    ______ ____
ROOT
ATOM      1  N   UNL     1       3.695   5.792   2.818  0.00  0.00    +0.000 N 
ATOM      2  C   UNL     1       3.908   6.896   3.660  0.00  0.00    +0.000 A 
ATOM      3  C   UNL     1       3.914   8.197   3.134  0.00  0.00    +0.000 A 
ATOM      4  N   UNL     1       4.085   9.327   3.877  0.00  0.00    +0.000 NA
ATOM      5  C   UNL     1       4.266   9.096   5.206  0.00  0.00    +0.000 A 
ATOM      6  C   UNL     1       4.283   7.818   5.739  0.00  0.00    +0.000 A 
ATOM      7  N   UNL     1       4.113   6.706   4.980  0.00  0.00    +0.000 NA
ATOM      8  H   UNL     1       2.803   5.900   2.343  0.00  0.00    +0.000 HD
ENDROOT
BRANCH   5   9
ATOM      9  C   UNL     1       4.438  10.261   6.116  0.00  0.00    +0.000 C 
ATOM     10  N   UNL     1       4.413  11.502   5.542  0.00  0.00    +0.000 N 
ATOM     11  O   UNL     1       4.593  10.124   7.326  0.00  0.00    +0.000 OA
ATOM     12  H   UNL     1       4.294  11.607   4.541  0.00  0.00    +0.000 HD
ATOM     13  H   UNL     1       4.536  12.313   6.130  0.00  0.00    +0.000 HD
ENDBRANCH   5   9
BRANCH   1  14
ATOM     14  C   UNL     1       3.752   4.508   3.522  0.00  0.00    +0.000 C 
BRANCH  14  18
ATOM     15  C   UNL     1       2.867   1.173   0.885  0.00  0.00    +0.000 A 
ATOM     16  C   UNL     1       3.531   2.305   0.394  0.00  0.00    +0.000 A 
ATOM     17  C   UNL     1       3.835   3.377   1.236  0.00  0.00    +0.000 A 
ATOM     18  C   UNL     1       3.455   3.356   2.584  0.00  0.00    +0.000 A 
ATOM     19  C   UNL     1       2.830   2.202   3.084  0.00  0.00    +0.000 A 
ATOM     20  C   UNL     1       2.534   1.125   2.243  0.00  0.00    +0.000 A 
BRANCH  15  21
ATOM     21  C   UNL     1       2.493   0.047  -0.045  0.00  0.00    +0.000 C 
BRANCH  21  22
ATOM     22  N   UNL     1       3.660  -0.505  -0.721  0.00  0.00    +0.000 NA
ATOM     23  H   UNL     1       3.387  -1.345  -1.226  0.00  0.00    +0.000 HD
ATOM     24  H   UNL     1       4.338  -0.795  -0.018  0.00  0.00    +0.000 HD
ENDBRANCH  21  22
ENDBRANCH  15  21
ENDBRANCH  14  18
ENDBRANCH   1  14
TORSDOF 5
