REMARK  Name = 
REMARK  4 active torsions:
REMARK  status: ('A' for Active; 'I' for Inactive)
REMARK    1  A    between atoms: C_2  and  C_4
REMARK    2  A    between atoms: N_8  and  C_9
REMARK    3  A    between atoms: C_9  and  C_10
REMARK    4  A    between atoms: C_14  and  C_15
REMARK                            x       y       z     vdW  Elec       q    Type
REMARK                         _______ _______ _______ _____ _____    ______ ____
ROOT
ATOM      1  C   UNL     1       7.799  -0.987   0.572  0.00  0.00    +0.000 A 
ATOM      2  C   UNL     1       7.375  -2.225   0.094  0.00  0.00    +0.000 A 
ATOM      3  C   UNL     1       6.627  -3.058   0.928  0.00  0.00    +0.000 A 
ATOM      4  C   UNL     1       6.323  -2.652   2.222  0.00  0.00    +0.000 A 
ATOM      5  N   UNL     1       5.539  -3.374   3.089  0.00  0.00    +0.000 N 
ATOM      6  N   UNL     1       6.736  -1.458   2.696  0.00  0.00    +0.000 NA
ATOM      7  C   UNL     1       7.466  -0.658   1.875  0.00  0.00    +0.000 A 
ATOM      8  H   UNL     1       5.519  -2.906   3.990  0.00  0.00    +0.000 HD
ENDROOT
BRANCH   1  10
ATOM      9  N   UNL     1       8.454  -0.102  -1.595  0.00  0.00    +0.000 N 
ATOM     10  C   UNL     1       8.584  -0.034  -0.235  0.00  0.00    +0.000 C 
ATOM     11  O   UNL     1       9.301   0.807   0.289  0.00  0.00    +0.000 OA
ATOM     12  H   UNL     1       8.920   0.623  -2.127  0.00  0.00    +0.000 HD
ATOM     13  H   UNL     1       7.697  -0.595  -2.047  0.00  0.00    +0.000 HD
ENDBRANCH   1  10
BRANCH   5  14
ATOM     14  C   UNL     1       5.536  -4.822   3.142  0.00  0.00    +0.000 C 
BRANCH  14  15
ATOM     15  C   UNL     1       6.584  -5.444   4.043  0.00  0.00    +0.000 A 
ATOM     16  C   UNL     1       7.568  -4.715   4.718  0.00  0.00    +0.000 A 
ATOM     17  C   UNL     1       8.479  -5.364   5.550  0.00  0.00    +0.000 A 
ATOM     18  C   UNL     1       8.414  -6.748   5.726  0.00  0.00    +0.000 A 
ATOM     19  C   UNL     1       7.430  -7.521   5.088  0.00  0.00    +0.000 A 
ATOM     20  C   UNL     1       6.540  -6.844   4.232  0.00  0.00    +0.000 A 
BRANCH  19  21
ATOM     21  C   UNL     1       7.303  -8.973   5.353  0.00  0.00    +0.000 A 
ATOM     22  C   UNL     1       7.544  -9.493   6.635  0.00  0.00    +0.000 A 
ATOM     23  C   UNL     1       7.397 -10.853   6.864  0.00  0.00    +0.000 A 
ATOM     24  N   UNL     1       7.019 -11.736   5.919  0.00  0.00    +0.000 NA
ATOM     25  C   UNL     1       6.785 -11.232   4.691  0.00  0.00    +0.000 A 
ATOM     26  C   UNL     1       6.915  -9.888   4.365  0.00  0.00    +0.000 A 
ENDBRANCH  19  21
ENDBRANCH  14  15
ENDBRANCH   5  14
TORSDOF 4
