REMARK  Name = 
REMARK  9 active torsions:
REMARK  status: ('A' for Active; 'I' for Inactive)
REMARK    1  A    between atoms: C_1  and  C_2
REMARK    2  A    between atoms: C_2  and  N_3
REMARK    3  A    between atoms: C_2  and  C_19
REMARK    4  A    between atoms: N_3  and  C_4
REMARK    5  A    between atoms: C_4  and  C_5
REMARK    6  A    between atoms: C_8  and  C_9
REMARK    7  A    between atoms: C_9  and  N_10
REMARK    8  A    between atoms: N_10  and  C_11
REMARK    9  A    between atoms: C_11  and  C_12
REMARK                            x       y       z     vdW  Elec       q    Type
REMARK                         _______ _______ _______ _____ _____    ______ ____
ROOT
ATOM      1  C   UNL     1       2.658   0.857  -2.230  0.00  0.00    +0.000 C 
ENDROOT
BRANCH   1   2
ATOM      2  C   UNL     1       3.085   2.098  -2.989  0.00  0.00    +0.000 A 
ATOM      3  C   UNL     1       2.477   3.337  -2.733  0.00  0.00    +0.000 A 
ATOM      4  C   UNL     1       2.820   4.468  -3.478  0.00  0.00    +0.000 A 
ATOM      5  C   UNL     1       3.799   4.396  -4.478  0.00  0.00    +0.000 A 
ATOM      6  C   UNL     1       4.433   3.169  -4.710  0.00  0.00    +0.000 A 
ATOM      7  C   UNL     1       4.076   2.031  -3.978  0.00  0.00    +0.000 A 
BRANCH   5   8
ATOM      8  C   UNL     1       4.140   5.613  -5.307  0.00  0.00    +0.000 C 
BRANCH   8   9
ATOM      9  N   UNL     1       4.629   6.700  -4.459  0.00  0.00    +0.000 NA
ATOM     10  H   UNL     1       5.471   6.368  -3.987  0.00  0.00    +0.000 HD
BRANCH   9  11
ATOM     11  C   UNL     1       4.980   7.872  -5.257  0.00  0.00    +0.000 C 
BRANCH  11  12
ATOM     12  C   UNL     1       5.459   8.948  -4.355  0.00  0.00    +0.000 A 
ATOM     13  C   UNL     1       6.357   9.979  -4.523  0.00  0.00    +0.000 A 
ATOM     14  N   UNL     1       6.470  10.723  -3.375  0.00  0.00    +0.000 NA
ATOM     15  C   UNL     1       5.651  10.161  -2.515  0.00  0.00    +0.000 A 
ATOM     16  N   UNL     1       5.008   9.094  -3.065  0.00  0.00    +0.000 N 
ATOM     17  H   UNL     1       4.344   8.478  -2.614  0.00  0.00    +0.000 HD
ENDBRANCH  11  12
ENDBRANCH   9  11
ENDBRANCH   8   9
ENDBRANCH   5   8
ENDBRANCH   1   2
BRANCH   1  18
ATOM     18  N   UNL     1       1.252   0.564  -2.495  0.00  0.00    +0.000 NA
ATOM     19  H   UNL     1       0.705   1.391  -2.262  0.00  0.00    +0.000 HD
BRANCH  18  21
ATOM     20  C   UNL     1       1.360  -1.896  -2.098  0.00  0.00    +0.000 C 
ATOM     21  C   UNL     1       0.695  -0.564  -1.737  0.00  0.00    +0.000 C 
BRANCH  21  22
ATOM     22  C   UNL     1      -0.794  -0.609  -2.065  0.00  0.00    +0.000 A 
ATOM     23  C   UNL     1      -1.327  -0.312  -3.313  0.00  0.00    +0.000 A 
ATOM     24  S   UNL     1      -3.025  -0.438  -3.380  0.00  0.00    +0.000 S 
ATOM     25  C   UNL     1      -3.110  -0.934  -1.755  0.00  0.00    +0.000 A 
ATOM     26  N   UNL     1      -4.303  -1.234  -1.176  0.00  0.00    +0.000 NA
ATOM     27  C   UNL     1      -4.211  -1.626   0.053  0.00  0.00    +0.000 A 
ATOM     28  N   UNL     1      -3.037  -1.734   0.755  0.00  0.00    +0.000 N 
ATOM     29  C   UNL     1      -1.810  -1.397   0.228  0.00  0.00    +0.000 A 
ATOM     30  O   UNL     1      -0.784  -1.448   0.900  0.00  0.00    +0.000 OA
ATOM     31  C   UNL     1      -1.859  -0.982  -1.163  0.00  0.00    +0.000 A 
ATOM     32  H   UNL     1      -3.042  -2.039   1.717  0.00  0.00    +0.000 HD
ENDBRANCH  21  22
ENDBRANCH  18  21
ENDBRANCH   1  18
TORSDOF 8
