REMARK  Name = 
REMARK  8 active torsions:
REMARK  status: ('A' for Active; 'I' for Inactive)
REMARK    1  A    between atoms: C_2  and  C_21
REMARK    2  A    between atoms: N_3  and  C_4
REMARK    3  A    between atoms: C_4  and  C_5
REMARK    4  A    between atoms: C_8  and  C_9
REMARK    5  A    between atoms: C_9  and  C_10
REMARK    6  A    between atoms: C_10  and  N_11
REMARK    7  A    between atoms: N_11  and  C_12
REMARK    8  A    between atoms: C_12  and  C_13
REMARK                            x       y       z     vdW  Elec       q    Type
REMARK                         _______ _______ _______ _____ _____    ______ ____
ROOT
ATOM      1  C   UNL     1       3.269  -3.613   0.522  0.00  0.00    +0.000 A 
ATOM      2  C   UNL     1       4.598  -3.368   0.889  0.00  0.00    +0.000 A 
ATOM      3  C   UNL     1       5.493  -4.426   1.063  0.00  0.00    +0.000 A 
ATOM      4  C   UNL     1       5.081  -5.750   0.872  0.00  0.00    +0.000 A 
ATOM      5  C   UNL     1       3.759  -5.993   0.476  0.00  0.00    +0.000 A 
ATOM      6  C   UNL     1       2.863  -4.935   0.296  0.00  0.00    +0.000 A 
ENDROOT
BRANCH   1   7
ATOM      7  C   UNL     1       2.310  -2.465   0.348  0.00  0.00    +0.000 C 
BRANCH   7  10
ATOM      8  O   UNL     1       3.749  -0.213  -0.575  0.00  0.00    +0.000 OA
ATOM      9  C   UNL     1       3.100  -0.881  -1.375  0.00  0.00    +0.000 C 
ATOM     10  N   UNL     1       2.338  -1.954  -0.998  0.00  0.00    +0.000 N 
ATOM     11  H   UNL     1       1.963  -2.571  -1.710  0.00  0.00    +0.000 HD
BRANCH   9  12
ATOM     12  C   UNL     1       3.058  -0.532  -2.804  0.00  0.00    +0.000 A 
ATOM     13  C   UNL     1       3.372   0.758  -3.211  0.00  0.00    +0.000 A 
ATOM     14  S   UNL     1       3.263   0.989  -4.898  0.00  0.00    +0.000 S 
ATOM     15  C   UNL     1       2.838  -0.640  -5.150  0.00  0.00    +0.000 A 
ATOM     16  N   UNL     1       2.630  -1.125  -6.404  0.00  0.00    +0.000 NA
ATOM     17  C   UNL     1       2.357  -2.386  -6.452  0.00  0.00    +0.000 A 
ATOM     18  N   UNL     1       2.253  -3.202  -5.358  0.00  0.00    +0.000 N 
ATOM     19  C   UNL     1       2.368  -2.739  -4.071  0.00  0.00    +0.000 A 
ATOM     20  O   UNL     1       2.118  -3.466  -3.114  0.00  0.00    +0.000 OA
ATOM     21  C   UNL     1       2.741  -1.340  -3.961  0.00  0.00    +0.000 A 
ATOM     22  H   UNL     1       1.996  -4.173  -5.459  0.00  0.00    +0.000 HD
ENDBRANCH   9  12
ENDBRANCH   7  10
ENDBRANCH   1   7
BRANCH   4  23
ATOM     23  C   UNL     1       6.045  -6.898   1.067  0.00  0.00    +0.000 C 
BRANCH  23  24
ATOM     24  C   UNL     1       6.655  -6.997   2.476  0.00  0.00    +0.000 C 
BRANCH  24  25
ATOM     25  N   UNL     1       5.636  -7.218   3.504  0.00  0.00    +0.000 NA
ATOM     26  H   UNL     1       5.114  -8.072   3.310  0.00  0.00    +0.000 HD
BRANCH  25  27
ATOM     27  C   UNL     1       6.224  -7.288   4.837  0.00  0.00    +0.000 C 
BRANCH  27  28
ATOM     28  C   UNL     1       5.166  -7.471   5.890  0.00  0.00    +0.000 A 
ATOM     29  C   UNL     1       4.155  -6.525   6.082  0.00  0.00    +0.000 A 
ATOM     30  C   UNL     1       3.207  -6.718   7.082  0.00  0.00    +0.000 A 
ATOM     31  C   UNL     1       3.300  -7.858   7.862  0.00  0.00    +0.000 A 
ATOM     32  N   UNL     1       4.260  -8.796   7.709  0.00  0.00    +0.000 NA
ATOM     33  C   UNL     1       5.168  -8.580   6.730  0.00  0.00    +0.000 A 
ENDBRANCH  27  28
ENDBRANCH  25  27
ENDBRANCH  24  25
ENDBRANCH  23  24
ENDBRANCH   4  23
TORSDOF 8
