REMARK  Name = 
REMARK  10 active torsions:
REMARK  status: ('A' for Active; 'I' for Inactive)
REMARK    1  A    between atoms: C_1  and  C_2
REMARK    2  A    between atoms: C_2  and  C_3
REMARK    3  A    between atoms: C_2  and  C_4
REMARK    4  A    between atoms: C_2  and  C_23
REMARK    5  A    between atoms: C_4  and  N_5
REMARK    6  A    between atoms: C_10  and  C_11
REMARK    7  A    between atoms: C_14  and  N_15
REMARK    8  A    between atoms: N_15  and  S_16
REMARK    9  A    between atoms: S_16  and  C_17
REMARK   10  A    between atoms: C_26  and  C_27
REMARK                            x       y       z     vdW  Elec       q    Type
REMARK                         _______ _______ _______ _____ _____    ______ ____
ROOT
ATOM      1  N   UNL     1       2.617   0.746   2.412  0.00  0.00    +0.000 N 
ATOM      2  C   UNL     1       2.903   0.416   3.732  0.00  0.00    +0.000 A 
ATOM      3  N   UNL     1       2.968  -0.871   4.099  0.00  0.00    +0.000 NA
ATOM      4  C   UNL     1       3.211  -1.125   5.392  0.00  0.00    +0.000 A 
ATOM      5  C   UNL     1       3.416  -0.145   6.328  0.00  0.00    +0.000 A 
ATOM      6  C   UNL     1       3.334   1.158   5.876  0.00  0.00    +0.000 A 
ATOM      7  N   UNL     1       3.055   1.435   4.583  0.00  0.00    +0.000 NA
ATOM      8  H   UNL     1       1.625   0.972   2.406  0.00  0.00    +0.000 HD
ENDROOT
BRANCH   6   9
ATOM      9  C   UNL     1       3.578   2.329   6.748  0.00  0.00    +0.000 A 
ATOM     10  C   UNL     1       4.125   3.515   6.220  0.00  0.00    +0.000 A 
ATOM     11  C   UNL     1       4.421   4.614   7.035  0.00  0.00    +0.000 A 
ATOM     12  C   UNL     1       4.195   4.540   8.403  0.00  0.00    +0.000 A 
ATOM     13  C   UNL     1       3.602   3.406   8.950  0.00  0.00    +0.000 A 
ATOM     14  C   UNL     1       3.297   2.311   8.127  0.00  0.00    +0.000 A 
BRANCH  12  15
ATOM     15  N   UNL     1       4.676   5.585   9.239  0.00  0.00    +0.000 N 
ATOM     16  H   UNL     1       5.272   5.301  10.015  0.00  0.00    +0.000 HD
BRANCH  15  17
ATOM     17  S   UNL     1       3.667   6.856   9.671  0.00  0.00    +0.000 S 
ATOM     18  C   UNL     1       4.155   8.086   8.479  0.00  0.00    +0.000 C 
ATOM     19  O   UNL     1       2.284   6.504   9.467  0.00  0.00    +0.000 OA
ATOM     20  O   UNL     1       4.149   7.301  10.967  0.00  0.00    +0.000 OA
ENDBRANCH  15  17
ENDBRANCH  12  15
ENDBRANCH   6   9
BRANCH   1  21
ATOM     21  C   UNL     1       2.952  -0.302   1.451  0.00  0.00    +0.000 C 
BRANCH  21  23
ATOM     22  C   UNL     1       3.294   1.375  -0.414  0.00  0.00    +0.000 C 
ATOM     23  C   UNL     1       2.532   0.091  -0.000  0.00  0.00    +0.000 C 
ATOM     24  C   UNL     1       3.014  -1.034  -0.947  0.00  0.00    +0.000 C 
BRANCH  23  25
ATOM     25  C   UNL     1       0.995   0.246  -0.096  0.00  0.00    +0.000 A 
ATOM     26  C   UNL     1       0.395   1.453  -0.477  0.00  0.00    +0.000 A 
ATOM     27  C   UNL     1      -0.994   1.613  -0.472  0.00  0.00    +0.000 A 
ATOM     28  C   UNL     1      -1.825   0.559  -0.094  0.00  0.00    +0.000 A 
ATOM     29  C   UNL     1      -1.254  -0.663   0.271  0.00  0.00    +0.000 A 
ATOM     30  C   UNL     1       0.141  -0.817   0.266  0.00  0.00    +0.000 A 
BRANCH  28  31
ATOM     31  C   UNL     1      -3.288   0.811  -0.046  0.00  0.00    +0.000 C 
ATOM     32  N   UNL     1      -4.121  -0.261  -0.203  0.00  0.00    +0.000 N 
ATOM     33  O   UNL     1      -3.741   1.940   0.096  0.00  0.00    +0.000 OA
ATOM     34  H   UNL     1      -3.805  -1.174  -0.495  0.00  0.00    +0.000 HD
ATOM     35  H   UNL     1      -5.111  -0.057  -0.252  0.00  0.00    +0.000 HD
ENDBRANCH  28  31
ENDBRANCH  23  25
ENDBRANCH  21  23
ENDBRANCH   1  21
TORSDOF 7
