REMARK  Name = 
REMARK  8 active torsions:
REMARK  status: ('A' for Active; 'I' for Inactive)
REMARK    1  A    between atoms: C_1  and  O_2
REMARK    2  A    between atoms: O_2  and  C_3
REMARK    3  A    between atoms: C_8  and  C_9
REMARK    4  A    between atoms: N_11  and  C_12
REMARK    5  A    between atoms: C_12  and  C_13
REMARK    6  A    between atoms: C_16  and  C_17
REMARK    7  A    between atoms: C_17  and  N_18
REMARK    8  A    between atoms: C_19  and  C_21
REMARK                            x       y       z     vdW  Elec       q    Type
REMARK                         _______ _______ _______ _____ _____    ______ ____
ROOT
ATOM      1  C   UNL     1       2.869   2.995   3.009  0.00  0.00    +0.000 A 
ATOM      2  C   UNL     1       1.526   2.631   2.899  0.00  0.00    +0.000 A 
ATOM      3  C   UNL     1       0.559   3.628   2.786  0.00  0.00    +0.000 A 
ATOM      4  C   UNL     1       0.945   4.969   2.764  0.00  0.00    +0.000 A 
ATOM      5  C   UNL     1       2.302   5.240   2.894  0.00  0.00    +0.000 A 
ATOM      6  N   UNL     1       3.264   4.293   3.000  0.00  0.00    +0.000 NA
ENDROOT
BRANCH   1   7
ATOM      7  C   UNL     1       3.944   1.934   3.068  0.00  0.00    +0.000 C 
BRANCH   7  10
ATOM      8  C   UNL     1       4.885   0.302   1.464  0.00  0.00    +0.000 C 
ATOM      9  O   UNL     1       4.998  -0.563   2.329  0.00  0.00    +0.000 OA
ATOM     10  N   UNL     1       4.367   1.542   1.741  0.00  0.00    +0.000 N 
ATOM     11  H   UNL     1       4.428   2.264   1.030  0.00  0.00    +0.000 HD
BRANCH   8  17
ATOM     12  C   UNL     1       5.214   0.932  -1.024  0.00  0.00    +0.000 A 
ATOM     13  C   UNL     1       5.513   0.494  -2.325  0.00  0.00    +0.000 A 
ATOM     14  C   UNL     1       5.897  -0.827  -2.570  0.00  0.00    +0.000 A 
ATOM     15  C   UNL     1       6.000  -1.727  -1.518  0.00  0.00    +0.000 A 
ATOM     16  C   UNL     1       5.692  -1.312  -0.223  0.00  0.00    +0.000 A 
ATOM     17  C   UNL     1       5.277   0.008   0.041  0.00  0.00    +0.000 A 
BRANCH  12  19
ATOM     18  C   UNL     1       4.895   3.178  -1.793  0.00  0.00    +0.000 C 
ATOM     19  O   UNL     1       4.855   2.226  -0.735  0.00  0.00    +0.000 OA
ENDBRANCH  12  19
ENDBRANCH   8  17
ENDBRANCH   7  10
ENDBRANCH   1   7
BRANCH   4  20
ATOM     20  C   UNL     1      -0.052   6.084   2.636  0.00  0.00    +0.000 C 
BRANCH  20  21
ATOM     21  N   UNL     1      -0.520   6.526   3.925  0.00  0.00    +0.000 N 
ATOM     22  C   UNL     1      -1.498   7.483   4.037  0.00  0.00    +0.000 C 
ATOM     23  O   UNL     1      -2.055   7.961   3.052  0.00  0.00    +0.000 OA
ATOM     24  H   UNL     1       0.067   6.324   4.728  0.00  0.00    +0.000 HD
BRANCH  22  25
ATOM     25  C   UNL     1      -1.893   7.859   5.401  0.00  0.00    +0.000 A 
ATOM     26  C   UNL     1      -3.144   8.417   5.627  0.00  0.00    +0.000 A 
ATOM     27  S   UNL     1      -3.463   8.741   7.270  0.00  0.00    +0.000 S 
ATOM     28  C   UNL     1      -1.918   8.198   7.734  0.00  0.00    +0.000 A 
ATOM     29  N   UNL     1      -1.527   8.228   9.036  0.00  0.00    +0.000 NA
ATOM     30  C   UNL     1      -0.321   7.817   9.242  0.00  0.00    +0.000 A 
ATOM     31  N   UNL     1       0.529   7.375   8.261  0.00  0.00    +0.000 N 
ATOM     32  C   UNL     1       0.169   7.299   6.937  0.00  0.00    +0.000 A 
ATOM     33  O   UNL     1       0.938   6.859   6.089  0.00  0.00    +0.000 OA
ATOM     34  C   UNL     1      -1.177   7.760   6.652  0.00  0.00    +0.000 A 
ATOM     35  H   UNL     1       1.462   7.058   8.490  0.00  0.00    +0.000 HD
ENDBRANCH  22  25
ENDBRANCH  20  21
ENDBRANCH   4  20
TORSDOF 7
