REMARK  Name = 
REMARK  7 active torsions:
REMARK  status: ('A' for Active; 'I' for Inactive)
REMARK    1  A    between atoms: C_1  and  C_2
REMARK    2  A    between atoms: C_2  and  C_3
REMARK    3  A    between atoms: C_3  and  C_4
REMARK    4  A    between atoms: C_4  and  N_5
REMARK    5  A    between atoms: C_4  and  C_15
REMARK    6  A    between atoms: N_5  and  C_6
REMARK    7  A    between atoms: C_9  and  C_10
REMARK                            x       y       z     vdW  Elec       q    Type
REMARK                         _______ _______ _______ _____ _____    ______ ____
ROOT
ATOM      1  N   UNL     1       4.719   1.244  -1.004  0.00  0.00    +0.000 N 
ATOM      2  H   UNL     1       4.119   1.818  -1.596  0.00  0.00    +0.000 HD
ENDROOT
BRANCH   1   3
ATOM      3  C   UNL     1       6.047   1.245  -1.447  0.00  0.00    +0.000 A 
ATOM      4  C   UNL     1       7.138   0.778  -0.729  0.00  0.00    +0.000 A 
ATOM      5  N   UNL     1       8.425   0.810  -1.154  0.00  0.00    +0.000 NA
ATOM      6  C   UNL     1       8.618   1.298  -2.401  0.00  0.00    +0.000 A 
ATOM      7  N   UNL     1       7.642   1.708  -3.231  0.00  0.00    +0.000 NA
ATOM      8  C   UNL     1       6.386   1.647  -2.733  0.00  0.00    +0.000 A 
BRANCH   6   9
ATOM      9  C   UNL     1      10.052   1.425  -2.863  0.00  0.00    +0.000 C 
ATOM     10  N   UNL     1      11.006   1.026  -1.954  0.00  0.00    +0.000 N 
ATOM     11  O   UNL     1      10.386   1.859  -3.960  0.00  0.00    +0.000 OA
ATOM     12  H   UNL     1      10.726   0.668  -1.049  0.00  0.00    +0.000 HD
ATOM     13  H   UNL     1      11.983   1.091  -2.204  0.00  0.00    +0.000 HD
ENDBRANCH   6   9
ENDBRANCH   1   3
BRANCH   1  14
ATOM     14  C   UNL     1       4.405   1.420   0.433  0.00  0.00    +0.000 C 
BRANCH  14  15
ATOM     15  C   UNL     1       4.968   2.790   0.960  0.00  0.00    +0.000 C 
ATOM     16  C   UNL     1       4.735   2.975   2.475  0.00  0.00    +0.000 C 
ATOM     17  C   UNL     1       5.228   4.328   2.986  0.00  0.00    +0.000 C 
ATOM     18  C   UNL     1       4.609   5.473   2.192  0.00  0.00    +0.000 C 
ATOM     19  C   UNL     1       4.934   5.335   0.711  0.00  0.00    +0.000 C 
ATOM     20  C   UNL     1       4.439   4.002   0.161  0.00  0.00    +0.000 C 
ENDBRANCH  14  15
BRANCH  14  21
ATOM     21  C   UNL     1       2.871   1.322   0.656  0.00  0.00    +0.000 C 
BRANCH  21  23
ATOM     22  C   UNL     1       0.691   0.097   0.512  0.00  0.00    +0.000 C 
ATOM     23  C   UNL     1       2.185   0.041   0.180  0.00  0.00    +0.000 C 
ENDBRANCH  21  23
ENDBRANCH  14  21
ENDBRANCH   1  14
TORSDOF 6
