REMARK  Name = 
REMARK  5 active torsions:
REMARK  status: ('A' for Active; 'I' for Inactive)
REMARK    1  A    between atoms: C_2  and  C_4
REMARK    2  A    between atoms: C_7  and  O_8
REMARK    3  A    between atoms: O_8  and  C_9
REMARK    4  A    between atoms: C_9  and  C_10
REMARK    5  A    between atoms: C_13  and  C_14
REMARK                            x       y       z     vdW  Elec       q    Type
REMARK                         _______ _______ _______ _____ _____    ______ ____
ROOT
ATOM      1  C   UNL     1       4.890   1.415  -5.840  0.00  0.00    +0.000 C 
ENDROOT
BRANCH   1   2
ATOM      2  C   UNL     1       5.766   1.197  -7.042  0.00  0.00    +0.000 A 
ATOM      3  C   UNL     1       6.071  -0.078  -7.493  0.00  0.00    +0.000 A 
ATOM      4  C   UNL     1       6.900  -0.217  -8.601  0.00  0.00    +0.000 A 
ATOM      5  C   UNL     1       7.396   0.922  -9.223  0.00  0.00    +0.000 A 
ATOM      6  N   UNL     1       7.083   2.146  -8.748  0.00  0.00    +0.000 NA
ATOM      7  N   UNL     1       6.264   2.288  -7.659  0.00  0.00    +0.000 NA
BRANCH   5   8
ATOM      8  C   UNL     1       8.346   0.825 -10.405  0.00  0.00    +0.000 C 
ATOM      9  C   UNL     1       8.830   2.190 -10.933  0.00  0.00    +0.000 C 
ATOM     10  C   UNL     1       7.752   2.914 -11.744  0.00  0.00    +0.000 C 
ATOM     11  N   UNL     1       7.246   2.092 -12.844  0.00  0.00    +0.000 NA
ATOM     12  C   UNL     1       6.718   0.818 -12.360  0.00  0.00    +0.000 C 
ATOM     13  C   UNL     1       7.767   0.023 -11.585  0.00  0.00    +0.000 C 
ATOM     14  H   UNL     1       8.002   1.919 -13.507  0.00  0.00    +0.000 HD
ENDBRANCH   5   8
ENDBRANCH   1   2
BRANCH   1  15
ATOM     15  O   UNL     1       5.687   1.307  -4.659  0.00  0.00    +0.000 OA
BRANCH  15  19
ATOM     16  C   UNL     1       3.978   1.881  -0.898  0.00  0.00    +0.000 A 
ATOM     17  C   UNL     1       3.143   1.902  -2.021  0.00  0.00    +0.000 A 
ATOM     18  C   UNL     1       3.678   1.719  -3.301  0.00  0.00    +0.000 A 
ATOM     19  C   UNL     1       5.050   1.516  -3.467  0.00  0.00    +0.000 A 
ATOM     20  C   UNL     1       5.884   1.514  -2.346  0.00  0.00    +0.000 A 
ATOM     21  C   UNL     1       5.355   1.702  -1.066  0.00  0.00    +0.000 A 
BRANCH  16  23
ATOM     22  N   UNL     1       2.146   1.699   0.695  0.00  0.00    +0.000 N 
ATOM     23  C   UNL     1       3.445   2.066   0.475  0.00  0.00    +0.000 C 
ATOM     24  O   UNL     1       4.142   2.491   1.387  0.00  0.00    +0.000 OA
ATOM     25  H   UNL     1       1.832   1.728   1.657  0.00  0.00    +0.000 HD
ATOM     26  H   UNL     1       1.631   1.113   0.053  0.00  0.00    +0.000 HD
ENDBRANCH  16  23
ENDBRANCH  15  19
ENDBRANCH   1  15
TORSDOF 5
