REMARK  Name = 
REMARK  8 active torsions:
REMARK  status: ('A' for Active; 'I' for Inactive)
REMARK    1  A    between atoms: C_1  and  C_2
REMARK    2  A    between atoms: C_2  and  N_3
REMARK    3  A    between atoms: C_2  and  C_17
REMARK    4  A    between atoms: C_4  and  C_6
REMARK    5  A    between atoms: N_12  and  C_13
REMARK    6  A    between atoms: C_20  and  O_21
REMARK    7  A    between atoms: O_21  and  C_22
REMARK    8  A    between atoms: C_22  and  C_23
REMARK                            x       y       z     vdW  Elec       q    Type
REMARK                         _______ _______ _______ _____ _____    ______ ____
ROOT
ATOM      1  C   UNL     1       3.262  -0.191   1.379  0.00  0.00    +0.000 C 
ATOM      2  C   UNL     1       2.587  -0.019   0.011  0.00  0.00    +0.000 C 
ENDROOT
BRANCH   2   3
ATOM      3  C   UNL     1       2.978  -1.097  -0.987  0.00  0.00    +0.000 A 
ATOM      4  C   UNL     1       3.117  -0.775  -2.346  0.00  0.00    +0.000 A 
ATOM      5  C   UNL     1       3.491  -1.750  -3.276  0.00  0.00    +0.000 A 
ATOM      6  C   UNL     1       3.729  -3.060  -2.864  0.00  0.00    +0.000 A 
ATOM      7  C   UNL     1       3.491  -3.412  -1.537  0.00  0.00    +0.000 A 
ATOM      8  C   UNL     1       3.120  -2.440  -0.608  0.00  0.00    +0.000 A 
BRANCH   6   9
ATOM      9  O   UNL     1       4.192  -3.921  -3.822  0.00  0.00    +0.000 OA
BRANCH   9  10
ATOM     10  C   UNL     1       4.913  -5.046  -3.303  0.00  0.00    +0.000 C 
BRANCH  10  11
ATOM     11  C   UNL     1       5.844  -5.618  -4.343  0.00  0.00    +0.000 A 
ATOM     12  C   UNL     1       6.792  -4.800  -4.956  0.00  0.00    +0.000 A 
ATOM     13  C   UNL     1       7.701  -5.372  -5.839  0.00  0.00    +0.000 A 
ATOM     14  C   UNL     1       7.643  -6.738  -6.085  0.00  0.00    +0.000 A 
ATOM     15  C   UNL     1       6.673  -7.480  -5.434  0.00  0.00    +0.000 A 
ATOM     16  N   UNL     1       5.780  -6.955  -4.567  0.00  0.00    +0.000 NA
ENDBRANCH  10  11
ENDBRANCH   9  10
ENDBRANCH   6   9
ENDBRANCH   2   3
BRANCH   2  17
ATOM     17  N   UNL     1       1.150  -0.040   0.139  0.00  0.00    +0.000 N 
ATOM     18  C   UNL     1       0.379   1.034   0.489  0.00  0.00    +0.000 C 
ATOM     19  O   UNL     1       0.836   2.163   0.637  0.00  0.00    +0.000 OA
ATOM     20  H   UNL     1       0.747  -0.966   0.204  0.00  0.00    +0.000 HD
BRANCH  18  21
ATOM     21  C   UNL     1      -1.058   0.753   0.596  0.00  0.00    +0.000 A 
ATOM     22  C   UNL     1      -1.995   1.755   0.386  0.00  0.00    +0.000 A 
ATOM     23  S   UNL     1      -3.607   1.194   0.436  0.00  0.00    +0.000 S 
ATOM     24  C   UNL     1      -3.106  -0.394   0.791  0.00  0.00    +0.000 A 
ATOM     25  N   UNL     1      -4.003  -1.402   0.938  0.00  0.00    +0.000 NA
ATOM     26  C   UNL     1      -3.480  -2.555   1.206  0.00  0.00    +0.000 A 
ATOM     27  N   UNL     1      -2.132  -2.803   1.367  0.00  0.00    +0.000 N 
ATOM     28  C   UNL     1      -1.644  -4.133   1.661  0.00  0.00    +0.000 C 
ATOM     29  C   UNL     1      -1.192  -1.790   1.242  0.00  0.00    +0.000 A 
ATOM     30  O   UNL     1       0.012  -1.988   1.394  0.00  0.00    +0.000 OA
ATOM     31  C   UNL     1      -1.734  -0.490   0.889  0.00  0.00    +0.000 A 
ENDBRANCH  18  21
ENDBRANCH   2  17
TORSDOF 6
