REMARK  Name = 
REMARK  4 active torsions:
REMARK  status: ('A' for Active; 'I' for Inactive)
REMARK    1  A    between atoms: C_2  and  C_4
REMARK    2  A    between atoms: N_8  and  C_9
REMARK    3  A    between atoms: C_9  and  C_10
REMARK    4  A    between atoms: C_10  and  C_13
REMARK                            x       y       z     vdW  Elec       q    Type
REMARK                         _______ _______ _______ _____ _____    ______ ____
ROOT
ATOM      1  C   UNL     1       2.938  -0.995   1.131  0.00  0.00    +0.000 A 
ATOM      2  C   UNL     1       3.583  -0.220   2.089  0.00  0.00    +0.000 A 
ATOM      3  C   UNL     1       4.458  -0.841   2.982  0.00  0.00    +0.000 A 
ATOM      4  C   UNL     1       4.642  -2.222   2.931  0.00  0.00    +0.000 A 
ATOM      5  N   UNL     1       5.502  -2.793   3.869  0.00  0.00    +0.000 N 
ATOM      6  N   UNL     1       4.008  -2.985   2.021  0.00  0.00    +0.000 NA
ATOM      7  C   UNL     1       3.180  -2.361   1.140  0.00  0.00    +0.000 A 
ATOM      8  H   UNL     1       6.454  -2.464   3.721  0.00  0.00    +0.000 HD
ENDROOT
BRANCH   1  10
ATOM      9  N   UNL     1       2.112   0.890  -0.169  0.00  0.00    +0.000 N 
ATOM     10  C   UNL     1       1.993  -0.437   0.141  0.00  0.00    +0.000 C 
ATOM     11  O   UNL     1       1.151  -1.138  -0.405  0.00  0.00    +0.000 OA
ATOM     12  H   UNL     1       1.515   1.236  -0.910  0.00  0.00    +0.000 HD
ATOM     13  H   UNL     1       2.919   1.444   0.078  0.00  0.00    +0.000 HD
ENDBRANCH   1  10
BRANCH   5  14
ATOM     14  C   UNL     1       5.426  -4.259   4.032  0.00  0.00    +0.000 C 
BRANCH  14  15
ATOM     15  C   UNL     1       6.559  -4.791   4.953  0.00  0.00    +0.000 C 
ATOM     16  F   UNL     1       7.747  -4.598   4.294  0.00  0.00    +0.000 F 
ATOM     17  F   UNL     1       6.643  -3.985   6.057  0.00  0.00    +0.000 F 
BRANCH  15  18
ATOM     18  C   UNL     1       6.351  -6.240   5.338  0.00  0.00    +0.000 A 
ATOM     19  C   UNL     1       6.867  -7.280   4.551  0.00  0.00    +0.000 A 
ATOM     20  C   UNL     1       6.690  -8.612   4.931  0.00  0.00    +0.000 A 
ATOM     21  C   UNL     1       5.996  -8.919   6.101  0.00  0.00    +0.000 A 
ATOM     22  C   UNL     1       5.476  -7.896   6.891  0.00  0.00    +0.000 A 
ATOM     23  C   UNL     1       5.649  -6.564   6.513  0.00  0.00    +0.000 A 
ENDBRANCH  15  18
ENDBRANCH  14  15
ENDBRANCH   5  14
TORSDOF 4
