REMARK  Name = 
REMARK  6 active torsions:
REMARK  status: ('A' for Active; 'I' for Inactive)
REMARK    1  A    between atoms: C_2  and  C_3
REMARK    2  A    between atoms: C_6  and  C_7
REMARK    3  A    between atoms: C_9  and  C_10
REMARK    4  A    between atoms: C_10  and  N_11
REMARK    5  A    between atoms: N_11  and  C_12
REMARK    6  A    between atoms: C_15  and  C_16
REMARK                            x       y       z     vdW  Elec       q    Type
REMARK                         _______ _______ _______ _____ _____    ______ ____
ROOT
ATOM      1  C   UNL     1       6.834  -1.302  -1.701  0.00  0.00    +0.000 C 
ATOM      2  C   UNL     1       6.934  -0.914  -3.161  0.00  0.00    +0.000 C 
ATOM      3  C   UNL     1       6.261  -2.192  -2.805  0.00  0.00    +0.000 C 
ENDROOT
BRANCH   1   6
ATOM      4  C   UNL     1       5.108   1.515   0.245  0.00  0.00    +0.000 A 
ATOM      5  C   UNL     1       6.065   0.806  -0.485  0.00  0.00    +0.000 A 
ATOM      6  C   UNL     1       5.837  -0.529  -0.842  0.00  0.00    +0.000 A 
ATOM      7  C   UNL     1       4.656  -1.117  -0.376  0.00  0.00    +0.000 A 
ATOM      8  C   UNL     1       3.748  -0.355   0.332  0.00  0.00    +0.000 A 
ATOM      9  N   UNL     1       3.947   0.938   0.645  0.00  0.00    +0.000 NA
BRANCH   4  13
ATOM     10  C   UNL     1       5.591   5.626   1.428  0.00  0.00    +0.000 A 
ATOM     11  C   UNL     1       6.208   5.158   0.265  0.00  0.00    +0.000 A 
ATOM     12  C   UNL     1       6.049   3.826  -0.124  0.00  0.00    +0.000 A 
ATOM     13  C   UNL     1       5.281   2.926   0.637  0.00  0.00    +0.000 A 
ATOM     14  C   UNL     1       4.663   3.426   1.801  0.00  0.00    +0.000 A 
ATOM     15  C   UNL     1       4.816   4.756   2.196  0.00  0.00    +0.000 A 
BRANCH  10  17
ATOM     16  N   UNL     1       5.889   8.097   2.144  0.00  0.00    +0.000 NA
ATOM     17  C   UNL     1       5.753   6.991   1.826  0.00  0.00    +0.000 C 
ENDBRANCH  10  17
ENDBRANCH   4  13
ENDBRANCH   1   6
BRANCH   1  18
ATOM     18  N   UNL     1       7.861  -1.961  -0.896  0.00  0.00    +0.000 N 
ATOM     19  H   UNL     1       7.513  -2.563  -0.157  0.00  0.00    +0.000 HD
BRANCH  18  20
ATOM     20  C   UNL     1       9.253  -1.792  -0.870  0.00  0.00    +0.000 A 
ATOM     21  C   UNL     1       9.986  -0.961  -1.717  0.00  0.00    +0.000 A 
ATOM     22  C   UNL     1      11.392  -0.959  -1.678  0.00  0.00    +0.000 A 
ATOM     23  C   UNL     1      12.082  -1.765  -0.765  0.00  0.00    +0.000 A 
ATOM     24  C   UNL     1      11.361  -2.570   0.113  0.00  0.00    +0.000 A 
ATOM     25  C   UNL     1       9.966  -2.583   0.050  0.00  0.00    +0.000 A 
BRANCH  23  26
ATOM     26  C   UNL     1      13.567  -1.792  -0.794  0.00  0.00    +0.000 C 
ATOM     27  N   UNL     1      14.215  -2.110   0.368  0.00  0.00    +0.000 N 
ATOM     28  O   UNL     1      14.192  -1.534  -1.814  0.00  0.00    +0.000 OA
ATOM     29  H   UNL     1      13.758  -2.212   1.261  0.00  0.00    +0.000 HD
ATOM     30  H   UNL     1      15.227  -2.098   0.348  0.00  0.00    +0.000 HD
ENDBRANCH  23  26
ENDBRANCH  18  20
ENDBRANCH   1  18
TORSDOF 6
