REMARK  Name = 
REMARK  5 active torsions:
REMARK  status: ('A' for Active; 'I' for Inactive)
REMARK    1  A    between atoms: N_1  and  C_2
REMARK    2  A    between atoms: C_2  and  C_3
REMARK    3  A    between atoms: C_6  and  S_7
REMARK    4  A    between atoms: S_7  and  C_8
REMARK    5  A    between atoms: C_8  and  C_9
REMARK                            x       y       z     vdW  Elec       q    Type
REMARK                         _______ _______ _______ _____ _____    ______ ____
ROOT
ATOM      1  C   UNL     1       2.886   0.536   1.219  0.00  0.00    +0.000 A 
ATOM      2  C   UNL     1       2.881   1.917   1.459  0.00  0.00    +0.000 A 
ATOM      3  C   UNL     1       3.175   2.429   2.730  0.00  0.00    +0.000 A 
ATOM      4  C   UNL     1       3.465   1.568   3.791  0.00  0.00    +0.000 A 
ATOM      5  C   UNL     1       3.492   0.189   3.549  0.00  0.00    +0.000 A 
ATOM      6  C   UNL     1       3.203  -0.323   2.278  0.00  0.00    +0.000 A 
ENDROOT
BRANCH   1   7
ATOM      7  C   UNL     1       2.526  -0.014  -0.139  0.00  0.00    +0.000 C 
BRANCH   7   8
ATOM      8  N   UNL     1       3.388   0.513  -1.191  0.00  0.00    +0.000 NA
ATOM      9  H   UNL     1       3.164   0.044  -2.068  0.00  0.00    +0.000 HD
ATOM     10  H   UNL     1       4.353   0.270  -0.976  0.00  0.00    +0.000 HD
ENDBRANCH   7   8
ENDBRANCH   1   7
BRANCH   4  11
ATOM     11  S   UNL     1       3.868   2.138   5.437  0.00  0.00    +0.000 S 
BRANCH  11  12
ATOM     12  C   UNL     1       2.702   3.530   5.656  0.00  0.00    +0.000 C 
BRANCH  12  13
ATOM     13  C   UNL     1       2.764   4.122   7.042  0.00  0.00    +0.000 A 
ATOM     14  C   UNL     1       2.335   3.402   8.155  0.00  0.00    +0.000 A 
ATOM     15  N   UNL     1       2.351   3.906   9.414  0.00  0.00    +0.000 NA
ATOM     16  C   UNL     1       2.824   5.166   9.525  0.00  0.00    +0.000 A 
ATOM     17  C   UNL     1       3.252   5.894   8.429  0.00  0.00    +0.000 A 
ATOM     18  N   UNL     1       3.226   5.395   7.171  0.00  0.00    +0.000 NA
ENDBRANCH  12  13
ENDBRANCH  11  12
ENDBRANCH   4  11
TORSDOF 5
