REMARK  Name = 
REMARK  4 active torsions:
REMARK  status: ('A' for Active; 'I' for Inactive)
REMARK    1  A    between atoms: C_2  and  C_4
REMARK    2  A    between atoms: C_7  and  O_8
REMARK    3  A    between atoms: O_8  and  C_9
REMARK    4  A    between atoms: C_9  and  C_10
REMARK                            x       y       z     vdW  Elec       q    Type
REMARK                         _______ _______ _______ _____ _____    ______ ____
ROOT
ATOM      1  O   UNL     1       5.490   3.730  -2.604  0.00  0.00    +0.000 OA
ENDROOT
BRANCH   1   5
ATOM      2  C   UNL     1       3.244   0.629  -1.283  0.00  0.00    +0.000 A 
ATOM      3  C   UNL     1       3.941   1.444  -0.424  0.00  0.00    +0.000 A 
ATOM      4  N   UNL     1       4.673   2.501  -0.848  0.00  0.00    +0.000 NA
ATOM      5  C   UNL     1       4.665   2.711  -2.177  0.00  0.00    +0.000 A 
ATOM      6  N   UNL     1       3.980   1.951  -3.068  0.00  0.00    +0.000 NA
ATOM      7  N   UNL     1       3.251   0.878  -2.613  0.00  0.00    +0.000 NA
BRANCH   2   9
ATOM      8  N   UNL     1       1.950  -1.384  -1.709  0.00  0.00    +0.000 N 
ATOM      9  C   UNL     1       2.521  -0.563  -0.777  0.00  0.00    +0.000 C 
ATOM     10  O   UNL     1       2.449  -0.810   0.423  0.00  0.00    +0.000 OA
ATOM     11  H   UNL     1       1.494  -2.233  -1.397  0.00  0.00    +0.000 HD
ATOM     12  H   UNL     1       2.036  -1.203  -2.704  0.00  0.00    +0.000 HD
ENDBRANCH   2   9
ENDBRANCH   1   5
BRANCH   1  13
ATOM     13  C   UNL     1       5.117   4.435  -3.811  0.00  0.00    +0.000 C 
ATOM     14  C   UNL     1       4.814   5.903  -3.508  0.00  0.00    +0.000 C 
ATOM     15  C   UNL     1       3.715   4.997  -3.951  0.00  0.00    +0.000 C 
BRANCH  13  16
ATOM     16  C   UNL     1       5.926   4.131  -5.065  0.00  0.00    +0.000 A 
ATOM     17  C   UNL     1       5.564   3.090  -5.936  0.00  0.00    +0.000 A 
ATOM     18  C   UNL     1       6.250   2.867  -7.137  0.00  0.00    +0.000 A 
ATOM     19  C   UNL     1       7.320   3.685  -7.498  0.00  0.00    +0.000 A 
ATOM     20 CL   UNL     1       8.081   3.399  -9.022  0.00  0.00    +0.000 Cl
ATOM     21  C   UNL     1       7.727   4.703  -6.635  0.00  0.00    +0.000 A 
ATOM     22 CL   UNL     1       9.042   5.763  -7.004  0.00  0.00    +0.000 Cl
ATOM     23  C   UNL     1       7.044   4.907  -5.429  0.00  0.00    +0.000 A 
ENDBRANCH  13  16
ENDBRANCH   1  13
TORSDOF 4
