REMARK  Name = 
REMARK  6 active torsions:
REMARK  status: ('A' for Active; 'I' for Inactive)
REMARK    1  A    between atoms: C_2  and  C_25
REMARK    2  A    between atoms: N_3  and  C_4
REMARK    3  A    between atoms: C_4  and  C_5
REMARK    4  A    between atoms: C_8  and  C_9
REMARK    5  A    between atoms: C_9  and  N_10
REMARK    6  A    between atoms: C_11  and  C_13
REMARK                            x       y       z     vdW  Elec       q    Type
REMARK                         _______ _______ _______ _____ _____    ______ ____
ROOT
ATOM      1  C   UNL     1       3.320  -0.701   3.685  0.00  0.00    +0.000 A 
ATOM      2  C   UNL     1       3.909   0.412   4.301  0.00  0.00    +0.000 A 
ATOM      3  C   UNL     1       4.779   0.246   5.380  0.00  0.00    +0.000 A 
ATOM      4  C   UNL     1       5.095  -1.035   5.848  0.00  0.00    +0.000 A 
ATOM      5  C   UNL     1       4.504  -2.147   5.232  0.00  0.00    +0.000 A 
ATOM      6  C   UNL     1       3.633  -1.982   4.153  0.00  0.00    +0.000 A 
ENDROOT
BRANCH   1   7
ATOM      7  C   UNL     1       2.345  -0.517   2.557  0.00  0.00    +0.000 C 
BRANCH   7  10
ATOM      8  O   UNL     1       1.039   0.154   0.243  0.00  0.00    +0.000 OA
ATOM      9  C   UNL     1       2.208  -0.219   0.170  0.00  0.00    +0.000 C 
ATOM     10  N   UNL     1       2.977  -0.512   1.262  0.00  0.00    +0.000 N 
ATOM     11  H   UNL     1       3.961  -0.727   1.174  0.00  0.00    +0.000 HD
BRANCH   9  12
ATOM     12  C   UNL     1       2.845  -0.369  -1.180  0.00  0.00    +0.000 C 
ATOM     13  C   UNL     1       3.640  -1.544  -1.530  0.00  0.00    +0.000 C 
ATOM     14  C   UNL     1       3.511  -2.095  -2.754  0.00  0.00    +0.000 C 
ATOM     15  C   UNL     1       2.589  -1.521  -3.722  0.00  0.00    +0.000 C 
ATOM     16  C   UNL     1       1.994  -0.352  -3.430  0.00  0.00    +0.000 C 
ATOM     17  N   UNL     1       2.199   0.293  -2.228  0.00  0.00    +0.000 N 
ATOM     18  H   UNL     1       1.415   0.861  -1.900  0.00  0.00    +0.000 HD
ENDBRANCH   9  12
ENDBRANCH   7  10
ENDBRANCH   1   7
BRANCH   4  19
ATOM     19  C   UNL     1       6.009  -1.222   7.030  0.00  0.00    +0.000 C 
BRANCH  19  20
ATOM     20  N   UNL     1       5.262  -1.244   8.262  0.00  0.00    +0.000 N 
ATOM     21  C   UNL     1       5.896  -1.321   9.476  0.00  0.00    +0.000 C 
ATOM     22  O   UNL     1       7.119  -1.317   9.570  0.00  0.00    +0.000 OA
ATOM     23  H   UNL     1       4.274  -1.468   8.198  0.00  0.00    +0.000 HD
BRANCH  21  24
ATOM     24  C   UNL     1       5.034  -1.345  10.664  0.00  0.00    +0.000 A 
ATOM     25  C   UNL     1       5.548  -0.949  11.891  0.00  0.00    +0.000 A 
ATOM     26  S   UNL     1       4.404  -0.981  13.155  0.00  0.00    +0.000 S 
ATOM     27  C   UNL     1       3.194  -1.576  12.118  0.00  0.00    +0.000 A 
ATOM     28  N   UNL     1       1.945  -1.847  12.585  0.00  0.00    +0.000 NA
ATOM     29  C   UNL     1       1.136  -2.322  11.699  0.00  0.00    +0.000 A 
ATOM     30  N   UNL     1       1.460  -2.547  10.386  0.00  0.00    +0.000 N 
ATOM     31  C   UNL     1       2.697  -2.261   9.863  0.00  0.00    +0.000 A 
ATOM     32  O   UNL     1       2.945  -2.434   8.672  0.00  0.00    +0.000 OA
ATOM     33  C   UNL     1       3.651  -1.733  10.822  0.00  0.00    +0.000 A 
ATOM     34  H   UNL     1       0.776  -2.911   9.740  0.00  0.00    +0.000 HD
ENDBRANCH  21  24
ENDBRANCH  19  20
ENDBRANCH   4  19
TORSDOF 6
