REMARK  Name = 
REMARK  10 active torsions:
REMARK  status: ('A' for Active; 'I' for Inactive)
REMARK    1  A    between atoms: C_2  and  C_4
REMARK    2  A    between atoms: C_4  and  C_5
REMARK    3  A    between atoms: C_5  and  N_6
REMARK    4  A    between atoms: N_6  and  C_7
REMARK    5  A    between atoms: C_7  and  C_8
REMARK    6  A    between atoms: C_7  and  C_20
REMARK    7  A    between atoms: C_8  and  C_10
REMARK    8  A    between atoms: C_23  and  C_24
REMARK    9  A    between atoms: C_24  and  N_25
REMARK   10  A    between atoms: C_28  and  N_29
REMARK                            x       y       z     vdW  Elec       q    Type
REMARK                         _______ _______ _______ _____ _____    ______ ____
ROOT
ATOM      1  C   UNL     1       6.787  -2.004  -0.013  0.00  0.00    +0.000 C 
ENDROOT
BRANCH   1   2
ATOM      2  C   UNL     1       7.597  -3.287  -0.136  0.00  0.00    +0.000 A 
ATOM      3  C   UNL     1       8.214  -3.600  -1.355  0.00  0.00    +0.000 A 
ATOM      4  C   UNL     1       8.968  -4.766  -1.492  0.00  0.00    +0.000 A 
ATOM      5  C   UNL     1       9.136  -5.644  -0.416  0.00  0.00    +0.000 A 
ATOM      6  C   UNL     1       8.501  -5.347   0.798  0.00  0.00    +0.000 A 
ATOM      7  C   UNL     1       7.720  -4.196   0.929  0.00  0.00    +0.000 A 
BRANCH   5   8
ATOM      8  C   UNL     1       9.974  -6.901  -0.559  0.00  0.00    +0.000 C 
BRANCH   8   9
ATOM      9  N   UNL     1      11.376  -6.748  -0.157  0.00  0.00    +0.000 NA
ATOM     10  C   UNL     1      12.133  -5.815  -0.998  0.00  0.00    +0.000 C 
ATOM     11  C   UNL     1      13.456  -6.480  -1.360  0.00  0.00    +0.000 C 
ATOM     12  C   UNL     1      13.541  -7.740  -0.513  0.00  0.00    +0.000 C 
ATOM     13  C   UNL     1      12.071  -8.051  -0.206  0.00  0.00    +0.000 C 
BRANCH  12  14
ATOM     14  N   UNL     1      14.334  -7.526   0.700  0.00  0.00    +0.000 NA
ATOM     15  H   UNL     1      13.854  -6.844   1.285  0.00  0.00    +0.000 HD
ATOM     16  H   UNL     1      15.233  -7.119   0.453  0.00  0.00    +0.000 HD
ENDBRANCH  12  14
ENDBRANCH   8   9
ENDBRANCH   5   8
ENDBRANCH   1   2
BRANCH   1  17
ATOM     17  N   UNL     1       5.376  -2.280  -0.355  0.00  0.00    +0.000 NA
ATOM     18  H   UNL     1       5.345  -2.816  -1.223  0.00  0.00    +0.000 HD
BRANCH  17  19
ATOM     19  C   UNL     1       4.548  -1.082  -0.482  0.00  0.00    +0.000 C 
BRANCH  19  20
ATOM     20  C   UNL     1       3.117  -1.460  -0.861  0.00  0.00    +0.000 C 
BRANCH  20  22
ATOM     21  N   UNL     1       2.352  -1.977   1.405  0.00  0.00    +0.000 N 
ATOM     22  C   UNL     1       2.462  -2.411   0.116  0.00  0.00    +0.000 C 
ATOM     23  O   UNL     1       1.979  -3.486  -0.227  0.00  0.00    +0.000 OA
ATOM     24  H   UNL     1       2.029  -2.681   2.057  0.00  0.00    +0.000 HD
ATOM     25  H   UNL     1       3.030  -1.325   1.779  0.00  0.00    +0.000 HD
ENDBRANCH  20  22
ENDBRANCH  19  20
ENDBRANCH  17  19
ENDBRANCH   1  17
BRANCH   1  26
ATOM     26  C   UNL     1       6.958  -1.363   1.397  0.00  0.00    +0.000 C 
ATOM     27  O   UNL     1       6.039  -1.300   2.215  0.00  0.00    +0.000 OA
BRANCH  26  28
ATOM     28  C   UNL     1       8.261  -0.757   1.723  0.00  0.00    +0.000 A 
ATOM     29  C   UNL     1       9.084  -0.132   0.801  0.00  0.00    +0.000 A 
ATOM     30  S   UNL     1      10.421   0.653   1.525  0.00  0.00    +0.000 S 
ATOM     31  C   UNL     1       9.951   0.143   3.080  0.00  0.00    +0.000 A 
ATOM     32  N   UNL     1      10.634   0.527   4.190  0.00  0.00    +0.000 NA
ATOM     33  C   UNL     1      10.154   0.053   5.294  0.00  0.00    +0.000 A 
ATOM     34  N   UNL     1       9.079  -0.795   5.384  0.00  0.00    +0.000 N 
ATOM     35  C   UNL     1       8.432  -1.299   4.280  0.00  0.00    +0.000 A 
ATOM     36  O   UNL     1       7.658  -2.246   4.368  0.00  0.00    +0.000 OA
ATOM     37  C   UNL     1       8.842  -0.680   3.034  0.00  0.00    +0.000 A 
ATOM     38  H   UNL     1       8.822  -1.210   6.268  0.00  0.00    +0.000 HD
ENDBRANCH  26  28
ENDBRANCH   1  26
TORSDOF 10
