REMARK  Name = 
REMARK  6 active torsions:
REMARK  status: ('A' for Active; 'I' for Inactive)
REMARK    1  A    between atoms: C_1  and  O_2
REMARK    2  A    between atoms: O_2  and  C_3
REMARK    3  A    between atoms: C_6  and  C_7
REMARK    4  A    between atoms: C_7  and  N_8
REMARK    5  A    between atoms: N_8  and  C_9
REMARK    6  A    between atoms: C_12  and  C_13
REMARK                            x       y       z     vdW  Elec       q    Type
REMARK                         _______ _______ _______ _____ _____    ______ ____
ROOT
ATOM      1  C   UNL     1       5.468   1.731   7.027  0.00  0.00    +0.000 A 
ATOM      2  C   UNL     1       6.641   2.486   7.147  0.00  0.00    +0.000 A 
ATOM      3  C   UNL     1       7.163   2.828   8.404  0.00  0.00    +0.000 A 
ATOM      4  C   UNL     1       6.540   2.387   9.576  0.00  0.00    +0.000 A 
ATOM      5  C   UNL     1       5.401   1.595   9.462  0.00  0.00    +0.000 A 
ATOM      6  F   UNL     1       4.775   1.116  10.549  0.00  0.00    +0.000 F 
ATOM      7  C   UNL     1       4.877   1.266   8.209  0.00  0.00    +0.000 A 
ENDROOT
BRANCH   4   8
ATOM      8  C   UNL     1       7.131   2.780  10.882  0.00  0.00    +0.000 C 
ATOM      9  N   UNL     1       6.534   2.332  12.025  0.00  0.00    +0.000 N 
ATOM     10  O   UNL     1       8.128   3.491  10.942  0.00  0.00    +0.000 OA
ATOM     11  H   UNL     1       5.715   1.736  12.024  0.00  0.00    +0.000 HD
ATOM     12  H   UNL     1       6.941   2.600  12.910  0.00  0.00    +0.000 HD
ENDBRANCH   4   8
BRANCH   1  13
ATOM     13  N   UNL     1       4.932   1.311   5.810  0.00  0.00    +0.000 N 
ATOM     14  H   UNL     1       3.916   1.241   5.830  0.00  0.00    +0.000 HD
BRANCH  13  15
ATOM     15  C   UNL     1       5.436   1.835   4.548  0.00  0.00    +0.000 C 
BRANCH  15  19
ATOM     16  C   UNL     1       3.193   0.267   1.186  0.00  0.00    +0.000 A 
ATOM     17  C   UNL     1       3.221   1.639   1.436  0.00  0.00    +0.000 A 
ATOM     18  C   UNL     1       3.932   2.142   2.532  0.00  0.00    +0.000 A 
ATOM     19  C   UNL     1       4.631   1.283   3.393  0.00  0.00    +0.000 A 
ATOM     20  C   UNL     1       4.596  -0.093   3.138  0.00  0.00    +0.000 A 
ATOM     21  C   UNL     1       3.881  -0.594   2.044  0.00  0.00    +0.000 A 
BRANCH  16  23
ATOM     22  C   UNL     1       1.832   0.484  -0.754  0.00  0.00    +0.000 C 
ATOM     23  O   UNL     1       2.541  -0.350   0.154  0.00  0.00    +0.000 OA
ENDBRANCH  16  23
ENDBRANCH  15  19
ENDBRANCH  13  15
ENDBRANCH   1  13
TORSDOF 5
