REMARK  Name = 
REMARK  7 active torsions:
REMARK  status: ('A' for Active; 'I' for Inactive)
REMARK    1  A    between atoms: C_1  and  C_2
REMARK    2  A    between atoms: C_2  and  N_3
REMARK    3  A    between atoms: C_2  and  C_16
REMARK    4  A    between atoms: C_4  and  C_6
REMARK    5  A    between atoms: C_19  and  C_20
REMARK    6  A    between atoms: C_20  and  N_21
REMARK    7  A    between atoms: C_22  and  C_24
REMARK                            x       y       z     vdW  Elec       q    Type
REMARK                         _______ _______ _______ _____ _____    ______ ____
ROOT
ATOM      1  C   UNL     1       1.180  -0.654  -0.516  0.00  0.00    +0.000 C 
ATOM      2  C   UNL     1       2.516  -0.099   0.001  0.00  0.00    +0.000 C 
ENDROOT
BRANCH   2   3
ATOM      3  C   UNL     1       3.081   0.877  -1.031  0.00  0.00    +0.000 A 
ATOM      4  C   UNL     1       2.700   2.229  -0.966  0.00  0.00    +0.000 A 
ATOM      5  C   UNL     1       3.070   3.139  -1.964  0.00  0.00    +0.000 A 
ATOM      6  C   UNL     1       3.829   2.725  -3.064  0.00  0.00    +0.000 A 
ATOM      7  C   UNL     1       4.267   1.394  -3.105  0.00  0.00    +0.000 A 
ATOM      8  C   UNL     1       3.885   0.477  -2.110  0.00  0.00    +0.000 A 
BRANCH   6   9
ATOM      9  C   UNL     1       4.129   3.681  -4.192  0.00  0.00    +0.000 C 
BRANCH   9  10
ATOM     10  N   UNL     1       5.333   4.441  -3.974  0.00  0.00    +0.000 N 
ATOM     11  C   UNL     1       5.806   5.312  -4.932  0.00  0.00    +0.000 C 
ATOM     12  O   UNL     1       5.249   5.468  -6.012  0.00  0.00    +0.000 OA
ATOM     13  H   UNL     1       5.751   4.432  -3.056  0.00  0.00    +0.000 HD
BRANCH  11  14
ATOM     14  C   UNL     1       7.010   6.034  -4.569  0.00  0.00    +0.000 A 
ATOM     15  C   UNL     1       7.814   5.992  -3.442  0.00  0.00    +0.000 A 
ATOM     16  C   UNL     1       8.883   6.903  -3.621  0.00  0.00    +0.000 A 
ATOM     17  C   UNL     1       8.717   7.488  -4.853  0.00  0.00    +0.000 A 
ATOM     18  N   UNL     1       7.586   6.960  -5.419  0.00  0.00    +0.000 N 
ATOM     19  H   UNL     1       7.212   7.195  -6.332  0.00  0.00    +0.000 HD
ENDBRANCH  11  14
ENDBRANCH   9  10
ENDBRANCH   6   9
ENDBRANCH   2   3
BRANCH   2  20
ATOM     20  N   UNL     1       3.442  -1.167   0.345  0.00  0.00    +0.000 N 
ATOM     21  C   UNL     1       3.162  -2.073   1.347  0.00  0.00    +0.000 C 
ATOM     22  O   UNL     1       2.111  -2.061   1.978  0.00  0.00    +0.000 OA
ATOM     23  H   UNL     1       4.420  -1.005   0.124  0.00  0.00    +0.000 HD
BRANCH  21  24
ATOM     24  C   UNL     1       4.167  -3.111   1.589  0.00  0.00    +0.000 A 
ATOM     25  C   UNL     1       3.776  -4.349   2.084  0.00  0.00    +0.000 A 
ATOM     26  S   UNL     1       5.072  -5.435   2.306  0.00  0.00    +0.000 S 
ATOM     27  C   UNL     1       6.203  -4.273   1.788  0.00  0.00    +0.000 A 
ATOM     28  N   UNL     1       7.534  -4.548   1.773  0.00  0.00    +0.000 NA
ATOM     29  C   UNL     1       8.276  -3.563   1.389  0.00  0.00    +0.000 A 
ATOM     30  N   UNL     1       7.809  -2.332   1.009  0.00  0.00    +0.000 N 
ATOM     31  C   UNL     1       6.470  -2.025   0.965  0.00  0.00    +0.000 A 
ATOM     32  O   UNL     1       6.074  -0.942   0.546  0.00  0.00    +0.000 OA
ATOM     33  C   UNL     1       5.596  -3.087   1.420  0.00  0.00    +0.000 A 
ATOM     34  H   UNL     1       8.441  -1.610   0.699  0.00  0.00    +0.000 HD
ENDBRANCH  21  24
ENDBRANCH   2  20
TORSDOF 6
