REMARK  Name = 
REMARK  6 active torsions:
REMARK  status: ('A' for Active; 'I' for Inactive)
REMARK    1  A    between atoms: C_1  and  C_2
REMARK    2  A    between atoms: C_6  and  C_7
REMARK    3  A    between atoms: C_7  and  C_8
REMARK    4  A    between atoms: C_11  and  C_12
REMARK    5  A    between atoms: C_12  and  N_13
REMARK    6  A    between atoms: C_14  and  C_16
REMARK                            x       y       z     vdW  Elec       q    Type
REMARK                         _______ _______ _______ _____ _____    ______ ____
ROOT
ATOM      1  C   UNL     1       7.578   1.491  -0.251  0.00  0.00    +0.000 C 
ENDROOT
BRANCH   1   5
ATOM      2  C   UNL     1       3.319   2.251  -0.031  0.00  0.00    +0.000 A 
ATOM      3  C   UNL     1       3.862   1.558  -1.121  0.00  0.00    +0.000 A 
ATOM      4  C   UNL     1       5.240   1.334  -1.207  0.00  0.00    +0.000 A 
ATOM      5  C   UNL     1       6.100   1.777  -0.193  0.00  0.00    +0.000 A 
ATOM      6  C   UNL     1       5.562   2.509   0.873  0.00  0.00    +0.000 A 
ATOM      7  C   UNL     1       4.187   2.742   0.954  0.00  0.00    +0.000 A 
BRANCH   2   8
ATOM      8  C   UNL     1       1.820   2.429   0.096  0.00  0.00    +0.000 C 
BRANCH   8  14
ATOM      9  C   UNL     1       1.009  -0.322   4.237  0.00  0.00    +0.000 C 
ATOM     10  C   UNL     1       0.704  -0.006   2.806  0.00  0.00    +0.000 A 
ATOM     11  C   UNL     1      -0.259  -0.715   2.093  0.00  0.00    +0.000 A 
ATOM     12  C   UNL     1      -0.489  -0.373   0.770  0.00  0.00    +0.000 A 
ATOM     13  N   UNL     1       0.169   0.617   0.119  0.00  0.00    +0.000 NA
ATOM     14  C   UNL     1       1.110   1.303   0.816  0.00  0.00    +0.000 A 
ATOM     15  C   UNL     1       1.391   1.025   2.154  0.00  0.00    +0.000 A 
ENDBRANCH   8  14
ENDBRANCH   2   8
ENDBRANCH   1   5
BRANCH   1  16
ATOM     16  N   UNL     1       8.287   2.524  -0.958  0.00  0.00    +0.000 N 
ATOM     17  C   UNL     1       9.644   2.449  -1.153  0.00  0.00    +0.000 C 
ATOM     18  O   UNL     1      10.307   1.488  -0.778  0.00  0.00    +0.000 OA
ATOM     19  H   UNL     1       7.814   3.415  -1.066  0.00  0.00    +0.000 HD
BRANCH  17  20
ATOM     20  C   UNL     1      10.251   3.558  -1.900  0.00  0.00    +0.000 A 
ATOM     21  C   UNL     1      11.432   3.354  -2.601  0.00  0.00    +0.000 A 
ATOM     22  S   UNL     1      11.949   4.724  -3.475  0.00  0.00    +0.000 S 
ATOM     23  C   UNL     1      10.644   5.652  -2.902  0.00  0.00    +0.000 A 
ATOM     24  N   UNL     1      10.496   6.956  -3.265  0.00  0.00    +0.000 NA
ATOM     25  C   UNL     1       9.479   7.546  -2.731  0.00  0.00    +0.000 A 
ATOM     26  N   UNL     1       8.600   6.953  -1.862  0.00  0.00    +0.000 N 
ATOM     27  C   UNL     1       8.697   5.637  -1.486  0.00  0.00    +0.000 A 
ATOM     28  O   UNL     1       7.872   5.128  -0.733  0.00  0.00    +0.000 OA
ATOM     29  C   UNL     1       9.821   4.926  -2.060  0.00  0.00    +0.000 A 
ATOM     30  H   UNL     1       7.822   7.471  -1.479  0.00  0.00    +0.000 HD
ENDBRANCH  17  20
ENDBRANCH   1  16
TORSDOF 5
