REMARK  Name = 
REMARK  7 active torsions:
REMARK  status: ('A' for Active; 'I' for Inactive)
REMARK    1  A    between atoms: C_2  and  C_4
REMARK    2  A    between atoms: N_8  and  C_9
REMARK    3  A    between atoms: C_9  and  C_10
REMARK    4  A    between atoms: C_10  and  C_13
REMARK    5  A    between atoms: C_17  and  N_18
REMARK    6  A    between atoms: N_18  and  C_19
REMARK    7  A    between atoms: N_21  and  C_22
REMARK                            x       y       z     vdW  Elec       q    Type
REMARK                         _______ _______ _______ _____ _____    ______ ____
ROOT
ATOM      1  C   UNL     1       6.642  -5.214   4.547  0.00  0.00    +0.000 C 
ATOM      2  F   UNL     1       5.927  -4.755   3.465  0.00  0.00    +0.000 F 
ATOM      3  F   UNL     1       7.947  -4.931   4.244  0.00  0.00    +0.000 F 
ENDROOT
BRANCH   1   4
ATOM      4  C   UNL     1       6.447  -6.709   4.735  0.00  0.00    +0.000 A 
ATOM      5  C   UNL     1       6.804  -7.580   3.696  0.00  0.00    +0.000 A 
ATOM      6  C   UNL     1       6.652  -8.960   3.848  0.00  0.00    +0.000 A 
ATOM      7  C   UNL     1       6.133  -9.490   5.035  0.00  0.00    +0.000 A 
ATOM      8  C   UNL     1       5.766  -8.645   6.079  0.00  0.00    +0.000 A 
ATOM      9  C   UNL     1       5.936  -7.266   5.920  0.00  0.00    +0.000 A 
BRANCH   8  10
ATOM     10  N   UNL     1       5.281  -9.090   7.326  0.00  0.00    +0.000 N 
ATOM     11  H   UNL     1       5.984  -8.907   8.045  0.00  0.00    +0.000 HD
BRANCH  10  12
ATOM     12  C   UNL     1       4.537 -10.295   7.559  0.00  0.00    +0.000 C 
ATOM     13  C   UNL     1       4.211 -10.504   9.057  0.00  0.00    +0.000 C 
ATOM     14  N   UNL     1       4.729 -11.887   8.977  0.00  0.00    +0.000 NA
ATOM     15  C   UNL     1       5.378 -11.572   7.689  0.00  0.00    +0.000 C 
BRANCH  14  16
ATOM     16  C   UNL     1       3.648 -12.849   8.819  0.00  0.00    +0.000 C 
ATOM     17  F   UNL     1       2.428 -12.282   8.686  0.00  0.00    +0.000 F 
ATOM     18  F   UNL     1       3.828 -13.662   7.752  0.00  0.00    +0.000 F 
ATOM     19  F   UNL     1       3.603 -13.644   9.914  0.00  0.00    +0.000 F 
ENDBRANCH  14  16
ENDBRANCH  10  12
ENDBRANCH   8  10
ENDBRANCH   1   4
BRANCH   1  20
ATOM     20  C   UNL     1       6.225  -4.354   5.765  0.00  0.00    +0.000 C 
BRANCH  20  25
ATOM     21  C   UNL     1       5.211  -0.503   8.734  0.00  0.00    +0.000 A 
ATOM     22  C   UNL     1       5.816   0.076   7.617  0.00  0.00    +0.000 A 
ATOM     23  C   UNL     1       6.235  -0.747   6.574  0.00  0.00    +0.000 A 
ATOM     24  C   UNL     1       6.040  -2.123   6.654  0.00  0.00    +0.000 A 
ATOM     25  N   UNL     1       6.534  -2.922   5.612  0.00  0.00    +0.000 N 
ATOM     26  N   UNL     1       5.468  -2.693   7.738  0.00  0.00    +0.000 NA
ATOM     27  C   UNL     1       5.073  -1.879   8.752  0.00  0.00    +0.000 A 
ATOM     28  H   UNL     1       6.251  -2.561   4.703  0.00  0.00    +0.000 HD
BRANCH  21  30
ATOM     29  N   UNL     1       4.380   1.580   9.664  0.00  0.00    +0.000 N 
ATOM     30  C   UNL     1       4.747   0.283   9.893  0.00  0.00    +0.000 C 
ATOM     31  O   UNL     1       4.659  -0.214  11.008  0.00  0.00    +0.000 OA
ATOM     32  H   UNL     1       3.969   2.076  10.445  0.00  0.00    +0.000 HD
ATOM     33  H   UNL     1       4.205   1.942   8.737  0.00  0.00    +0.000 HD
ENDBRANCH  21  30
ENDBRANCH  20  25
ENDBRANCH   1  20
TORSDOF 7
