REMARK  Name = 
REMARK  6 active torsions:
REMARK  status: ('A' for Active; 'I' for Inactive)
REMARK    1  A    between atoms: C_1  and  C_2
REMARK    2  A    between atoms: C_2  and  N_3
REMARK    3  A    between atoms: C_2  and  C_16
REMARK    4  A    between atoms: C_4  and  C_6
REMARK    5  A    between atoms: C_19  and  C_20
REMARK    6  A    between atoms: C_20  and  C_21
REMARK                            x       y       z     vdW  Elec       q    Type
REMARK                         _______ _______ _______ _____ _____    ______ ____
ROOT
ATOM      1  C   UNL     1       3.010   1.334   0.311  0.00  0.00    +0.000 C 
ATOM      2  C   UNL     1       2.588  -0.066  -0.153  0.00  0.00    +0.000 C 
ENDROOT
BRANCH   2   3
ATOM      3  C   UNL     1       3.108  -1.188   0.729  0.00  0.00    +0.000 A 
ATOM      4  C   UNL     1       3.395  -2.437   0.154  0.00  0.00    +0.000 A 
ATOM      5  C   UNL     1       3.922  -3.479   0.925  0.00  0.00    +0.000 A 
ATOM      6  C   UNL     1       4.159  -3.302   2.293  0.00  0.00    +0.000 A 
ATOM      7  C   UNL     1       3.834  -2.073   2.879  0.00  0.00    +0.000 A 
ATOM      8  C   UNL     1       3.300  -1.035   2.110  0.00  0.00    +0.000 A 
BRANCH   6   9
ATOM      9  C   UNL     1       4.753  -4.411   3.130  0.00  0.00    +0.000 C 
BRANCH   9  10
ATOM     10  C   UNL     1       6.259  -4.402   3.233  0.00  0.00    +0.000 A 
ATOM     11  N   UNL     1       6.826  -3.613   4.174  0.00  0.00    +0.000 NA
ATOM     12  C   UNL     1       8.160  -3.710   4.317  0.00  0.00    +0.000 A 
ATOM     13  C   UNL     1       8.946  -4.555   3.571  0.00  0.00    +0.000 A 
ATOM     14  C   UNL     1       8.279  -5.305   2.632  0.00  0.00    +0.000 A 
ATOM     15  N   UNL     1       6.948  -5.252   2.442  0.00  0.00    +0.000 NA
ENDBRANCH   9  10
ENDBRANCH   6   9
ENDBRANCH   2   3
BRANCH   2  16
ATOM     16  N   UNL     1       1.145  -0.150  -0.246  0.00  0.00    +0.000 N 
ATOM     17  C   UNL     1       0.451   0.334  -1.324  0.00  0.00    +0.000 C 
ATOM     18  O   UNL     1       1.006   0.723  -2.348  0.00  0.00    +0.000 OA
ATOM     19  H   UNL     1       0.653  -0.316   0.625  0.00  0.00    +0.000 HD
BRANCH  17  20
ATOM     20  C   UNL     1      -1.011   0.334  -1.206  0.00  0.00    +0.000 A 
ATOM     21  C   UNL     1      -1.799   0.243  -2.345  0.00  0.00    +0.000 A 
ATOM     22  S   UNL     1      -3.473   0.288  -2.021  0.00  0.00    +0.000 S 
ATOM     23  C   UNL     1      -3.201   0.485  -0.352  0.00  0.00    +0.000 A 
ATOM     24  N   UNL     1      -4.237   0.649   0.513  0.00  0.00    +0.000 NA
ATOM     25  C   UNL     1      -3.885   0.828   1.741  0.00  0.00    +0.000 A 
ATOM     26  N   UNL     1      -2.589   0.837   2.188  0.00  0.00    +0.000 N 
ATOM     27  C   UNL     1      -1.512   0.612   1.362  0.00  0.00    +0.000 A 
ATOM     28  O   UNL     1      -0.374   0.519   1.811  0.00  0.00    +0.000 OA
ATOM     29  C   UNL     1      -1.853   0.462  -0.040  0.00  0.00    +0.000 A 
ATOM     30  H   UNL     1      -2.381   0.948   3.170  0.00  0.00    +0.000 HD
ENDBRANCH  17  20
ENDBRANCH   2  16
TORSDOF 5
