REMARK  Name = 
REMARK  8 active torsions:
REMARK  status: ('A' for Active; 'I' for Inactive)
REMARK    1  A    between atoms: N_1  and  C_2
REMARK    2  A    between atoms: C_2  and  N_3
REMARK    3  A    between atoms: C_2  and  C_16
REMARK    4  A    between atoms: C_4  and  C_6
REMARK    5  A    between atoms: C_19  and  C_20
REMARK    6  A    between atoms: C_20  and  N_21
REMARK    7  A    between atoms: C_22  and  C_24
REMARK    8  A    between atoms: C_28  and  O_29
REMARK                            x       y       z     vdW  Elec       q    Type
REMARK                         _______ _______ _______ _____ _____    ______ ____
ROOT
ATOM      1  C   UNL     1       2.456  -0.182   0.034  0.00  0.00    +0.000 C 
ENDROOT
BRANCH   1   2
ATOM      2  C   UNL     1       3.004   0.778  -1.008  0.00  0.00    +0.000 A 
ATOM      3  C   UNL     1       2.600   2.124  -0.962  0.00  0.00    +0.000 A 
ATOM      4  C   UNL     1       2.975   3.030  -1.959  0.00  0.00    +0.000 A 
ATOM      5  C   UNL     1       3.754   2.613  -3.044  0.00  0.00    +0.000 A 
ATOM      6  C   UNL     1       4.189   1.281  -3.084  0.00  0.00    +0.000 A 
ATOM      7  C   UNL     1       3.808   0.372  -2.086  0.00  0.00    +0.000 A 
BRANCH   5   8
ATOM      8  C   UNL     1       4.046   3.556  -4.180  0.00  0.00    +0.000 C 
BRANCH   8   9
ATOM      9  N   UNL     1       5.256   4.314  -4.013  0.00  0.00    +0.000 N 
ATOM     10  C   UNL     1       5.664   5.180  -5.009  0.00  0.00    +0.000 C 
ATOM     11  O   UNL     1       5.044   5.308  -6.061  0.00  0.00    +0.000 OA
ATOM     12  H   UNL     1       5.776   4.317  -3.142  0.00  0.00    +0.000 HD
BRANCH  10  13
ATOM     13  C   UNL     1       6.889   5.915  -4.690  0.00  0.00    +0.000 A 
ATOM     14  N   UNL     1       7.616   5.712  -3.518  0.00  0.00    +0.000 NA
ATOM     15  C   UNL     1       8.646   6.521  -3.602  0.00  0.00    +0.000 A 
ATOM     16  N   UNL     1       8.624   7.251  -4.758  0.00  0.00    +0.000 N 
ATOM     17  C   UNL     1       7.508   6.887  -5.465  0.00  0.00    +0.000 A 
ATOM     18  H   UNL     1       9.319   7.928  -5.033  0.00  0.00    +0.000 HD
BRANCH  17  19
ATOM     19  O   UNL     1       7.199   7.423  -6.639  0.00  0.00    +0.000 OA
ATOM     20  H   UNL     1       7.838   8.109  -6.892  0.00  0.00    +0.000 HD
ENDBRANCH  17  19
ENDBRANCH  10  13
ENDBRANCH   8   9
ENDBRANCH   5   8
ENDBRANCH   1   2
BRANCH   1  21
ATOM     21  N   UNL     1       3.298  -1.317   0.286  0.00  0.00    +0.000 N 
ATOM     22  C   UNL     1       2.991  -2.241   1.260  0.00  0.00    +0.000 C 
ATOM     23  O   UNL     1       1.935  -2.204   1.888  0.00  0.00    +0.000 OA
ATOM     24  H   UNL     1       4.287  -1.161   0.116  0.00  0.00    +0.000 HD
BRANCH  22  25
ATOM     25  C   UNL     1       3.930  -3.354   1.431  0.00  0.00    +0.000 A 
ATOM     26  C   UNL     1       3.462  -4.578   1.890  0.00  0.00    +0.000 A 
ATOM     27  S   UNL     1       4.672  -5.775   1.996  0.00  0.00    +0.000 S 
ATOM     28  C   UNL     1       5.871  -4.685   1.475  0.00  0.00    +0.000 A 
ATOM     29  N   UNL     1       7.170  -5.068   1.376  0.00  0.00    +0.000 NA
ATOM     30  C   UNL     1       7.974  -4.130   0.995  0.00  0.00    +0.000 A 
ATOM     31  N   UNL     1       7.593  -2.847   0.694  0.00  0.00    +0.000 N 
ATOM     32  C   UNL     1       6.285  -2.424   0.754  0.00  0.00    +0.000 A 
ATOM     33  O   UNL     1       5.960  -1.285   0.438  0.00  0.00    +0.000 OA
ATOM     34  C   UNL     1       5.347  -3.434   1.198  0.00  0.00    +0.000 A 
ATOM     35  H   UNL     1       8.272  -2.165   0.392  0.00  0.00    +0.000 HD
ENDBRANCH  22  25
ENDBRANCH   1  21
BRANCH   1  36
ATOM     36  N   UNL     1       1.194  -0.718  -0.432  0.00  0.00    +0.000 NA
ATOM     37  H   UNL     1       0.834  -1.301   0.327  0.00  0.00    +0.000 HD
ATOM     38  H   UNL     1       1.400  -1.360  -1.192  0.00  0.00    +0.000 HD
ENDBRANCH   1  36
TORSDOF 8
