REMARK  Name = 
REMARK  7 active torsions:
REMARK  status: ('A' for Active; 'I' for Inactive)
REMARK    1  A    between atoms: C_2  and  C_19
REMARK    2  A    between atoms: N_3  and  C_4
REMARK    3  A    between atoms: C_4  and  C_5
REMARK    4  A    between atoms: C_8  and  C_9
REMARK    5  A    between atoms: C_9  and  O_10
REMARK    6  A    between atoms: O_10  and  C_11
REMARK    7  A    between atoms: C_11  and  C_12
REMARK                            x       y       z     vdW  Elec       q    Type
REMARK                         _______ _______ _______ _____ _____    ______ ____
ROOT
ATOM      1  C   UNL     1       2.369   1.758   1.708  0.00  0.00    +0.000 C 
ENDROOT
BRANCH   1   2
ATOM      2  C   UNL     1       3.297   2.621   2.512  0.00  0.00    +0.000 A 
ATOM      3  C   UNL     1       3.160   4.010   2.526  0.00  0.00    +0.000 A 
ATOM      4  C   UNL     1       3.979   4.784   3.345  0.00  0.00    +0.000 A 
ATOM      5  C   UNL     1       4.937   4.153   4.134  0.00  0.00    +0.000 A 
ATOM      6  N   UNL     1       5.117   2.807   4.109  0.00  0.00    +0.000 NA
ATOM      7  C   UNL     1       4.302   2.080   3.305  0.00  0.00    +0.000 A 
BRANCH   5   8
ATOM      8  C   UNL     1       5.831   4.963   5.047  0.00  0.00    +0.000 C 
BRANCH   8   9
ATOM      9  O   UNL     1       5.051   5.690   6.006  0.00  0.00    +0.000 OA
BRANCH   9  10
ATOM     10  C   UNL     1       5.903   6.435   6.885  0.00  0.00    +0.000 C 
BRANCH  10  11
ATOM     11  C   UNL     1       5.053   7.150   7.878  0.00  0.00    +0.000 A 
ATOM     12  N   UNL     1       5.468   7.955   8.838  0.00  0.00    +0.000 NA
ATOM     13  C   UNL     1       4.339   8.356   9.505  0.00  0.00    +0.000 A 
ATOM     14  C   UNL     1       3.218   7.794   8.944  0.00  0.00    +0.000 A 
ATOM     15  N   UNL     1       3.684   7.036   7.906  0.00  0.00    +0.000 N 
ATOM     16  H   UNL     1       3.146   6.473   7.260  0.00  0.00    +0.000 HD
ENDBRANCH  10  11
ENDBRANCH   9  10
ENDBRANCH   8   9
ENDBRANCH   5   8
ENDBRANCH   1   2
BRANCH   1  19
ATOM     17  O   UNL     1       1.637   3.355  -0.481  0.00  0.00    +0.000 OA
ATOM     18  C   UNL     1       2.403   2.411  -0.665  0.00  0.00    +0.000 C 
ATOM     19  N   UNL     1       2.796   1.576   0.345  0.00  0.00    +0.000 N 
ATOM     20  H   UNL     1       3.554   0.917   0.184  0.00  0.00    +0.000 HD
BRANCH  18  21
ATOM     21  C   UNL     1       2.903   2.089  -2.002  0.00  0.00    +0.000 A 
ATOM     22  C   UNL     1       2.162   2.403  -3.133  0.00  0.00    +0.000 A 
ATOM     23  S   UNL     1       2.941   1.975  -4.592  0.00  0.00    +0.000 S 
ATOM     24  C   UNL     1       4.298   1.377  -3.755  0.00  0.00    +0.000 A 
ATOM     25  N   UNL     1       5.372   0.876  -4.420  0.00  0.00    +0.000 NA
ATOM     26  C   UNL     1       6.342   0.498  -3.653  0.00  0.00    +0.000 A 
ATOM     27  N   UNL     1       6.332   0.560  -2.286  0.00  0.00    +0.000 N 
ATOM     28  C   UNL     1       5.241   0.989  -1.570  0.00  0.00    +0.000 A 
ATOM     29  O   UNL     1       5.211   0.897  -0.347  0.00  0.00    +0.000 OA
ATOM     30  C   UNL     1       4.146   1.476  -2.385  0.00  0.00    +0.000 A 
ATOM     31  H   UNL     1       7.108   0.216  -1.741  0.00  0.00    +0.000 HD
ENDBRANCH  18  21
ENDBRANCH   1  19
TORSDOF 7
