REMARK  Name = 
REMARK  6 active torsions:
REMARK  status: ('A' for Active; 'I' for Inactive)
REMARK    1  A    between atoms: N_1  and  C_2
REMARK    2  A    between atoms: C_2  and  C_3
REMARK    3  A    between atoms: C_6  and  O_7
REMARK    4  A    between atoms: O_7  and  C_8
REMARK    5  A    between atoms: C_8  and  C_9
REMARK    6  A    between atoms: C_12  and  N_13
REMARK                            x       y       z     vdW  Elec       q    Type
REMARK                         _______ _______ _______ _____ _____    ______ ____
ROOT
ATOM      1  C   UNL     1       3.416   0.177   1.310  0.00  0.00    +0.000 A 
ATOM      2  C   UNL     1       4.429  -0.213   2.196  0.00  0.00    +0.000 A 
ATOM      3  C   UNL     1       4.665   0.495   3.376  0.00  0.00    +0.000 A 
ATOM      4  C   UNL     1       3.875   1.598   3.702  0.00  0.00    +0.000 A 
ATOM      5  C   UNL     1       2.886   2.008   2.804  0.00  0.00    +0.000 A 
ATOM      6  F   UNL     1       2.124   3.077   3.080  0.00  0.00    +0.000 F 
ATOM      7  C   UNL     1       2.650   1.309   1.620  0.00  0.00    +0.000 A 
ENDROOT
BRANCH   1   8
ATOM      8  C   UNL     1       3.182  -0.604   0.045  0.00  0.00    +0.000 C 
BRANCH   8   9
ATOM      9  N   UNL     1       2.862  -1.996   0.336  0.00  0.00    +0.000 NA
ATOM     10  H   UNL     1       2.661  -2.483  -0.535  0.00  0.00    +0.000 HD
ATOM     11  H   UNL     1       2.007  -2.030   0.890  0.00  0.00    +0.000 HD
ENDBRANCH   8   9
ENDBRANCH   1   8
BRANCH   4  12
ATOM     12  O   UNL     1       4.006   2.327   4.853  0.00  0.00    +0.000 OA
BRANCH  12  13
ATOM     13  C   UNL     1       4.595   1.624   5.950  0.00  0.00    +0.000 C 
BRANCH  13  14
ATOM     14  C   UNL     1       4.256   2.283   7.264  0.00  0.00    +0.000 A 
ATOM     15  C   UNL     1       3.064   2.997   7.439  0.00  0.00    +0.000 A 
ATOM     16  C   UNL     1       2.744   3.545   8.683  0.00  0.00    +0.000 A 
ATOM     17  C   UNL     1       3.572   3.344   9.788  0.00  0.00    +0.000 A 
ATOM     18  C   UNL     1       4.782   2.672   9.604  0.00  0.00    +0.000 A 
ATOM     19  C   UNL     1       5.111   2.123   8.362  0.00  0.00    +0.000 A 
BRANCH  17  20
ATOM     20  N   UNL     1       3.305   3.997  10.997  0.00  0.00    +0.000 N 
ATOM     21  H   UNL     1       2.318   4.182  11.146  0.00  0.00    +0.000 HD
ATOM     22  H   UNL     1       3.741   3.557  11.801  0.00  0.00    +0.000 HD
ENDBRANCH  17  20
ENDBRANCH  13  14
ENDBRANCH  12  13
ENDBRANCH   4  12
TORSDOF 6
