REMARK  Name = 
REMARK  5 active torsions:
REMARK  status: ('A' for Active; 'I' for Inactive)
REMARK    1  A    between atoms: C_2  and  C_4
REMARK    2  A    between atoms: C_7  and  N_8
REMARK    3  A    between atoms: N_8  and  C_9
REMARK    4  A    between atoms: C_9  and  C_10
REMARK    5  A    between atoms: C_14  and  C_15
REMARK                            x       y       z     vdW  Elec       q    Type
REMARK                         _______ _______ _______ _____ _____    ______ ____
ROOT
ATOM      1  C   UNL     1       5.014   3.242   5.056  0.00  0.00    +0.000 C 
ENDROOT
BRANCH   1   2
ATOM      2  C   UNL     1       5.944   4.172   5.783  0.00  0.00    +0.000 A 
ATOM      3  C   UNL     1       6.951   3.692   6.619  0.00  0.00    +0.000 A 
ATOM      4  C   UNL     1       7.736   4.607   7.300  0.00  0.00    +0.000 A 
ATOM      5  N   UNL     1       7.579   5.944   7.212  0.00  0.00    +0.000 NA
ATOM      6  C   UNL     1       6.599   6.409   6.400  0.00  0.00    +0.000 A 
ATOM      7  C   UNL     1       5.789   5.554   5.657  0.00  0.00    +0.000 A 
BRANCH   6   8
ATOM      8  C   UNL     1       6.397   7.865   6.391  0.00  0.00    +0.000 A 
ATOM      9  C   UNL     1       5.908   8.522   5.244  0.00  0.00    +0.000 A 
ATOM     10  C   UNL     1       5.702   9.900   5.236  0.00  0.00    +0.000 A 
ATOM     11  C   UNL     1       5.976  10.637   6.380  0.00  0.00    +0.000 A 
ATOM     12  F   UNL     1       5.773  11.960   6.373  0.00  0.00    +0.000 F 
ATOM     13  C   UNL     1       6.449  10.020   7.531  0.00  0.00    +0.000 A 
ATOM     14  C   UNL     1       6.657   8.640   7.536  0.00  0.00    +0.000 A 
ENDBRANCH   6   8
ENDBRANCH   1   2
BRANCH   1  15
ATOM     15  N   UNL     1       5.548   2.883   3.756  0.00  0.00    +0.000 N 
ATOM     16  H   UNL     1       5.994   3.645   3.248  0.00  0.00    +0.000 HD
BRANCH  15  20
ATOM     17  C   UNL     1       3.532   0.074   1.329  0.00  0.00    +0.000 A 
ATOM     18  C   UNL     1       2.934   0.523   2.505  0.00  0.00    +0.000 A 
ATOM     19  C   UNL     1       3.585   1.471   3.300  0.00  0.00    +0.000 A 
ATOM     20  C   UNL     1       4.822   2.017   2.932  0.00  0.00    +0.000 A 
ATOM     21  C   UNL     1       5.406   1.557   1.743  0.00  0.00    +0.000 A 
ATOM     22  C   UNL     1       4.772   0.590   0.948  0.00  0.00    +0.000 A 
BRANCH  17  24
ATOM     23  N   UNL     1       1.552  -1.116   0.558  0.00  0.00    +0.000 N 
ATOM     24  C   UNL     1       2.918  -1.011   0.519  0.00  0.00    +0.000 C 
ATOM     25  O   UNL     1       3.592  -1.768  -0.155  0.00  0.00    +0.000 OA
ATOM     26  H   UNL     1       1.138  -1.824  -0.035  0.00  0.00    +0.000 HD
ATOM     27  H   UNL     1       0.956  -0.384   0.911  0.00  0.00    +0.000 HD
ENDBRANCH  17  24
ENDBRANCH  15  20
ENDBRANCH   1  15
TORSDOF 5
