REMARK  Name = 
REMARK  5 active torsions:
REMARK  status: ('A' for Active; 'I' for Inactive)
REMARK    1  A    between atoms: C_2  and  C_4
REMARK    2  A    between atoms: N_8  and  C_9
REMARK    3  A    between atoms: C_9  and  C_10
REMARK    4  A    between atoms: C_10  and  O_11
REMARK    5  A    between atoms: C_10  and  C_12
REMARK                            x       y       z     vdW  Elec       q    Type
REMARK                         _______ _______ _______ _____ _____    ______ ____
ROOT
ATOM      1  C   UNL     1       2.898   0.699   1.363  0.00  0.00    +0.000 A 
ATOM      2  C   UNL     1       3.993   1.463   0.980  0.00  0.00    +0.000 A 
ATOM      3  C   UNL     1       4.832   1.990   1.969  0.00  0.00    +0.000 A 
ATOM      4  C   UNL     1       4.566   1.748   3.323  0.00  0.00    +0.000 A 
ATOM      5  N   UNL     1       5.346   2.389   4.285  0.00  0.00    +0.000 N 
ATOM      6  N   UNL     1       3.510   1.004   3.698  0.00  0.00    +0.000 NA
ATOM      7  C   UNL     1       2.685   0.509   2.721  0.00  0.00    +0.000 A 
ATOM      8  H   UNL     1       6.322   2.499   4.032  0.00  0.00    +0.000 HD
ENDROOT
BRANCH   1  10
ATOM      9  N   UNL     1       2.438  -0.196  -0.845  0.00  0.00    +0.000 N 
ATOM     10  C   UNL     1       1.950   0.111   0.402  0.00  0.00    +0.000 C 
ATOM     11  O   UNL     1       0.788  -0.116   0.698  0.00  0.00    +0.000 OA
ATOM     12  H   UNL     1       1.809  -0.683  -1.473  0.00  0.00    +0.000 HD
ATOM     13  H   UNL     1       3.428  -0.247  -1.041  0.00  0.00    +0.000 HD
ENDBRANCH   1  10
BRANCH   5  14
ATOM     14  C   UNL     1       5.094   2.016   5.686  0.00  0.00    +0.000 C 
BRANCH  14  15
ATOM     15  C   UNL     1       6.151   2.646   6.634  0.00  0.00    +0.000 C 
BRANCH  15  16
ATOM     16  C   UNL     1       5.886   2.312   8.091  0.00  0.00    +0.000 A 
ATOM     17  C   UNL     1       6.446   1.158   8.661  0.00  0.00    +0.000 A 
ATOM     18  C   UNL     1       6.189   0.822   9.994  0.00  0.00    +0.000 A 
ATOM     19  C   UNL     1       5.368   1.633  10.781  0.00  0.00    +0.000 A 
ATOM     20 CL   UNL     1       5.099   1.159  12.421  0.00  0.00    +0.000 Cl
ATOM     21  C   UNL     1       4.800   2.784  10.229  0.00  0.00    +0.000 A 
ATOM     22 CL   UNL     1       3.766   3.833  11.134  0.00  0.00    +0.000 Cl
ATOM     23  C   UNL     1       5.056   3.117   8.894  0.00  0.00    +0.000 A 
ENDBRANCH  15  16
BRANCH  15  24
ATOM     24  O   UNL     1       6.209   4.069   6.483  0.00  0.00    +0.000 OA
ATOM     25  H   UNL     1       5.321   4.361   6.209  0.00  0.00    +0.000 HD
ENDBRANCH  15  24
ENDBRANCH  14  15
ENDBRANCH   5  14
TORSDOF 5
