REMARK  Name = 
REMARK  9 active torsions:
REMARK  status: ('A' for Active; 'I' for Inactive)
REMARK    1  A    between atoms: C_1  and  O_2
REMARK    2  A    between atoms: O_2  and  C_3
REMARK    3  A    between atoms: C_10  and  C_11
REMARK    4  A    between atoms: N_13  and  C_14
REMARK    5  A    between atoms: C_14  and  C_15
REMARK    6  A    between atoms: C_18  and  C_19
REMARK    7  A    between atoms: C_19  and  N_20
REMARK    8  A    between atoms: C_19  and  C_21
REMARK    9  A    between atoms: C_21  and  C_22
REMARK                            x       y       z     vdW  Elec       q    Type
REMARK                         _______ _______ _______ _____ _____    ______ ____
ROOT
ATOM      1  C   UNL     1       2.063  -3.469   0.119  0.00  0.00    +0.000 A 
ATOM      2  C   UNL     1       1.556  -4.741   0.426  0.00  0.00    +0.000 A 
ATOM      3  C   UNL     1       0.521  -4.892   1.361  0.00  0.00    +0.000 A 
ATOM      4  C   UNL     1      -0.037  -3.775   1.997  0.00  0.00    +0.000 A 
ATOM      5  C   UNL     1       0.499  -2.508   1.703  0.00  0.00    +0.000 A 
ATOM      6  C   UNL     1       1.531  -2.356   0.777  0.00  0.00    +0.000 A 
ENDROOT
BRANCH   1   7
ATOM      7  C   UNL     1       3.122  -3.273  -0.932  0.00  0.00    +0.000 C 
BRANCH   7  10
ATOM      8  C   UNL     1       3.332  -2.780  -3.318  0.00  0.00    +0.000 C 
ATOM      9  O   UNL     1       4.557  -2.846  -3.240  0.00  0.00    +0.000 OA
ATOM     10  N   UNL     1       2.535  -3.004  -2.227  0.00  0.00    +0.000 N 
ATOM     11  H   UNL     1       1.537  -2.847  -2.284  0.00  0.00    +0.000 HD
BRANCH   8  19
ATOM     12  C   UNL     1       0.244  -1.531  -4.154  0.00  0.00    +0.000 A 
ATOM     13  N   UNL     1      -0.850  -1.024  -4.762  0.00  0.00    +0.000 NA
ATOM     14  C   UNL     1      -0.859  -0.951  -6.096  0.00  0.00    +0.000 A 
ATOM     15  N   UNL     1       0.104  -1.344  -6.923  0.00  0.00    +0.000 NA
ATOM     16  C   UNL     1       1.178  -1.835  -6.282  0.00  0.00    +0.000 A 
ATOM     17  S   UNL     1       2.511  -2.376  -7.183  0.00  0.00    +0.000 S 
ATOM     18  C   UNL     1       3.373  -2.755  -5.770  0.00  0.00    +0.000 A 
ATOM     19  C   UNL     1       2.668  -2.506  -4.599  0.00  0.00    +0.000 A 
ATOM     20  C   UNL     1       1.349  -1.966  -4.906  0.00  0.00    +0.000 A 
BRANCH  12  22
ATOM     21  C   UNL     1      -0.968  -1.169  -2.182  0.00  0.00    +0.000 C 
ATOM     22  O   UNL     1       0.251  -1.621  -2.774  0.00  0.00    +0.000 OA
ENDBRANCH  12  22
ENDBRANCH   8  19
ENDBRANCH   7  10
ENDBRANCH   1   7
BRANCH   4  23
ATOM     23  C   UNL     1      -1.212  -3.916   2.959  0.00  0.00    +0.000 C 
BRANCH  23  24
ATOM     24  N   UNL     1      -0.829  -3.446   4.297  0.00  0.00    +0.000 NA
ATOM     25  H   UNL     1      -0.556  -2.468   4.255  0.00  0.00    +0.000 HD
ATOM     26  H   UNL     1      -0.003  -3.959   4.604  0.00  0.00    +0.000 HD
ENDBRANCH  23  24
BRANCH  23  27
ATOM     27  C   UNL     1      -2.450  -3.174   2.389  0.00  0.00    +0.000 C 
BRANCH  27  28
ATOM     28  C   UNL     1      -3.697  -3.231   3.241  0.00  0.00    +0.000 A 
ATOM     29  C   UNL     1      -4.619  -4.278   3.099  0.00  0.00    +0.000 A 
ATOM     30  C   UNL     1      -5.783  -4.310   3.873  0.00  0.00    +0.000 A 
ATOM     31  C   UNL     1      -6.035  -3.298   4.798  0.00  0.00    +0.000 A 
ATOM     32  C   UNL     1      -5.118  -2.265   4.945  0.00  0.00    +0.000 A 
ATOM     33  F   UNL     1      -5.360  -1.290   5.832  0.00  0.00    +0.000 F 
ATOM     34  C   UNL     1      -3.958  -2.222   4.179  0.00  0.00    +0.000 A 
ENDBRANCH  27  28
ENDBRANCH  23  27
ENDBRANCH   4  23
TORSDOF 8
