REMARK  Name = 
REMARK  5 active torsions:
REMARK  status: ('A' for Active; 'I' for Inactive)
REMARK    1  A    between atoms: C_2  and  C_4
REMARK    2  A    between atoms: C_7  and  N_8
REMARK    3  A    between atoms: N_8  and  C_9
REMARK    4  A    between atoms: C_9  and  C_10
REMARK    5  A    between atoms: C_12  and  N_13
REMARK                            x       y       z     vdW  Elec       q    Type
REMARK                         _______ _______ _______ _____ _____    ______ ____
ROOT
ATOM      1  C   UNL     1       4.899   4.861   3.834  0.00  0.00    +0.000 C 
ENDROOT
BRANCH   1   2
ATOM      2  C   UNL     1       5.819   5.993   4.207  0.00  0.00    +0.000 A 
ATOM      3  C   UNL     1       5.419   7.331   4.055  0.00  0.00    +0.000 A 
ATOM      4  C   UNL     1       6.229   8.402   4.447  0.00  0.00    +0.000 A 
ATOM      5  C   UNL     1       7.451   8.052   5.013  0.00  0.00    +0.000 A 
ATOM      6  N   UNL     1       7.890   6.782   5.193  0.00  0.00    +0.000 NA
ATOM      7  C   UNL     1       7.063   5.793   4.789  0.00  0.00    +0.000 A 
ATOM      8 CL   UNL     1       7.720   4.229   5.084  0.00  0.00    +0.000 Cl
BRANCH   4   9
ATOM      9  N   UNL     1       5.750   9.694   4.309  0.00  0.00    +0.000 N 
ATOM     10  C   UNL     1       6.220  10.759   5.207  0.00  0.00    +0.000 C 
ATOM     11  C   UNL     1       5.180  11.893   5.184  0.00  0.00    +0.000 C 
ATOM     12  O   UNL     1       4.978  12.396   3.850  0.00  0.00    +0.000 OA
ATOM     13  C   UNL     1       4.535  11.343   2.973  0.00  0.00    +0.000 C 
ATOM     14  C   UNL     1       5.545  10.184   2.928  0.00  0.00    +0.000 C 
ENDBRANCH   4   9
ENDBRANCH   1   2
BRANCH   1  15
ATOM     15  N   UNL     1       4.042   5.218   2.708  0.00  0.00    +0.000 N 
ATOM     16  H   UNL     1       3.045   5.228   2.892  0.00  0.00    +0.000 HD
BRANCH  15  20
ATOM     17  C   UNL     1       5.187   4.961  -1.338  0.00  0.00    +0.000 A 
ATOM     18  C   UNL     1       6.039   4.475  -0.347  0.00  0.00    +0.000 A 
ATOM     19  C   UNL     1       5.662   4.550   0.996  0.00  0.00    +0.000 A 
ATOM     20  C   UNL     1       4.422   5.069   1.383  0.00  0.00    +0.000 A 
ATOM     21  C   UNL     1       3.590   5.579   0.376  0.00  0.00    +0.000 A 
ATOM     22  C   UNL     1       3.968   5.531  -0.974  0.00  0.00    +0.000 A 
BRANCH  17  24
ATOM     23  N   UNL     1       6.417   3.926  -3.162  0.00  0.00    +0.000 N 
ATOM     24  C   UNL     1       5.574   4.929  -2.769  0.00  0.00    +0.000 C 
ATOM     25  O   UNL     1       5.142   5.746  -3.572  0.00  0.00    +0.000 OA
ATOM     26  H   UNL     1       6.613   3.861  -4.150  0.00  0.00    +0.000 HD
ATOM     27  H   UNL     1       6.601   3.116  -2.591  0.00  0.00    +0.000 HD
ENDBRANCH  17  24
ENDBRANCH  15  20
ENDBRANCH   1  15
TORSDOF 5
