REMARK  Name = 
REMARK  9 active torsions:
REMARK  status: ('A' for Active; 'I' for Inactive)
REMARK    1  A    between atoms: C_1  and  O_2
REMARK    2  A    between atoms: O_2  and  C_3
REMARK    3  A    between atoms: C_7  and  C_8
REMARK    4  A    between atoms: N_10  and  C_11
REMARK    5  A    between atoms: C_11  and  C_12
REMARK    6  A    between atoms: C_15  and  C_16
REMARK    7  A    between atoms: C_16  and  C_17
REMARK    8  A    between atoms: C_16  and  N_18
REMARK    9  A    between atoms: C_19  and  C_21
REMARK                            x       y       z     vdW  Elec       q    Type
REMARK                         _______ _______ _______ _____ _____    ______ ____
ROOT
ATOM      1  C   UNL     1       8.556   3.476   4.798  0.00  0.00    +0.000 A 
ATOM      2  C   UNL     1       8.740   4.752   5.337  0.00  0.00    +0.000 A 
ATOM      3  C   UNL     1       9.248   4.916   6.631  0.00  0.00    +0.000 A 
ATOM      4  C   UNL     1       9.600   3.812   7.425  0.00  0.00    +0.000 A 
ATOM      5  C   UNL     1       9.404   2.533   6.878  0.00  0.00    +0.000 A 
ATOM      6  C   UNL     1       8.894   2.367   5.583  0.00  0.00    +0.000 A 
ENDROOT
BRANCH   4   7
ATOM      7  C   UNL     1      10.233   3.950   8.812  0.00  0.00    +0.000 C 
ATOM      8  C   UNL     1      10.420   5.406   9.259  0.00  0.00    +0.000 C 
BRANCH   7   9
ATOM      9  N   UNL     1       9.467   3.215   9.810  0.00  0.00    +0.000 N 
ATOM     10  C   UNL     1      10.013   2.748  10.981  0.00  0.00    +0.000 C 
ATOM     11  O   UNL     1      11.200   2.898  11.256  0.00  0.00    +0.000 OA
ATOM     12  H   UNL     1       8.526   2.937   9.551  0.00  0.00    +0.000 HD
BRANCH  10  13
ATOM     13  C   UNL     1       9.092   2.092  11.924  0.00  0.00    +0.000 A 
ATOM     14  C   UNL     1       9.399   2.044  13.276  0.00  0.00    +0.000 A 
ATOM     15  S   UNL     1       8.221   1.247  14.220  0.00  0.00    +0.000 S 
ATOM     16  C   UNL     1       7.279   0.899  12.847  0.00  0.00    +0.000 A 
ATOM     17  N   UNL     1       6.127   0.182  12.949  0.00  0.00    +0.000 NA
ATOM     18  C   UNL     1       5.530  -0.031  11.823  0.00  0.00    +0.000 A 
ATOM     19  N   UNL     1       5.973   0.419  10.607  0.00  0.00    +0.000 N 
ATOM     20  C   UNL     1       7.102   1.182  10.463  0.00  0.00    +0.000 A 
ATOM     21  O   UNL     1       7.422   1.641   9.370  0.00  0.00    +0.000 OA
ATOM     22  C   UNL     1       7.838   1.420  11.691  0.00  0.00    +0.000 A 
ATOM     23  H   UNL     1       5.444   0.246   9.767  0.00  0.00    +0.000 HD
ENDBRANCH  10  13
ENDBRANCH   7   9
ENDBRANCH   4   7
BRANCH   1  24
ATOM     24  C   UNL     1       8.029   3.310   3.397  0.00  0.00    +0.000 C 
BRANCH  24  27
ATOM     25  C   UNL     1       8.819   3.195   1.064  0.00  0.00    +0.000 C 
ATOM     26  O   UNL     1       7.688   3.108   0.593  0.00  0.00    +0.000 OA
ATOM     27  N   UNL     1       9.082   3.306   2.415  0.00  0.00    +0.000 N 
ATOM     28  H   UNL     1      10.057   3.361   2.699  0.00  0.00    +0.000 HD
BRANCH  25  33
ATOM     29  C   UNL     1      12.329   3.250   0.064  0.00  0.00    +0.000 A 
ATOM     30  C   UNL     1      12.313   3.131  -1.315  0.00  0.00    +0.000 A 
ATOM     31  C   UNL     1      11.080   3.042  -1.959  0.00  0.00    +0.000 A 
ATOM     32  C   UNL     1       9.913   3.065  -1.198  0.00  0.00    +0.000 A 
ATOM     33  C   UNL     1      10.031   3.186   0.182  0.00  0.00    +0.000 A 
ATOM     34  N   UNL     1      11.219   3.285   0.829  0.00  0.00    +0.000 NA
BRANCH  29  36
ATOM     35  C   UNL     1      13.446   3.449   2.097  0.00  0.00    +0.000 C 
ATOM     36  O   UNL     1      13.561   3.316   0.680  0.00  0.00    +0.000 OA
ENDBRANCH  29  36
ENDBRANCH  25  33
ENDBRANCH  24  27
ENDBRANCH   1  24
TORSDOF 7
