REMARK  Name = 
REMARK  6 active torsions:
REMARK  status: ('A' for Active; 'I' for Inactive)
REMARK    1  A    between atoms: C_1  and  C_2
REMARK    2  A    between atoms: C_2  and  C_3
REMARK    3  A    between atoms: C_2  and  C_16
REMARK    4  A    between atoms: C_3  and  N_4
REMARK    5  A    between atoms: C_9  and  O_10
REMARK    6  A    between atoms: O_10  and  C_11
REMARK                            x       y       z     vdW  Elec       q    Type
REMARK                         _______ _______ _______ _____ _____    ______ ____
ROOT
ATOM      1  N   UNL     1       2.780  -0.510   2.406  0.00  0.00    +0.000 N 
ATOM      2  C   UNL     1       3.032  -1.525   3.320  0.00  0.00    +0.000 A 
ATOM      3  N   UNL     1       2.234  -1.565   4.395  0.00  0.00    +0.000 NA
ATOM      4  C   UNL     1       2.448  -2.565   5.271  0.00  0.00    +0.000 A 
ATOM      5  C   UNL     1       3.411  -3.527   5.105  0.00  0.00    +0.000 A 
ATOM      6  C   UNL     1       4.160  -3.397   3.965  0.00  0.00    +0.000 A 
ATOM      7  N   UNL     1       3.996  -2.414   3.072  0.00  0.00    +0.000 NA
ATOM      8  H   UNL     1       1.816  -0.235   2.569  0.00  0.00    +0.000 HD
ENDROOT
BRANCH   1   9
ATOM      9  C   UNL     1       3.098  -0.880   1.032  0.00  0.00    +0.000 C 
BRANCH   9  11
ATOM     10  C   UNL     1       3.702   1.475   0.292  0.00  0.00    +0.000 C 
ATOM     11  C   UNL     1       2.796   0.262   0.040  0.00  0.00    +0.000 C 
BRANCH  11  12
ATOM     12  C   UNL     1       1.314   0.603  -0.005  0.00  0.00    +0.000 A 
ATOM     13  C   UNL     1       0.449  -0.144  -0.824  0.00  0.00    +0.000 A 
ATOM     14  C   UNL     1      -0.914   0.153  -0.871  0.00  0.00    +0.000 A 
ATOM     15  C   UNL     1      -1.429   1.193  -0.100  0.00  0.00    +0.000 A 
ATOM     16 CL   UNL     1      -3.104   1.569  -0.165  0.00  0.00    +0.000 Cl
ATOM     17  C   UNL     1      -0.589   1.933   0.729  0.00  0.00    +0.000 A 
ATOM     18  C   UNL     1       0.769   1.634   0.780  0.00  0.00    +0.000 A 
ENDBRANCH  11  12
ENDBRANCH   9  11
ENDBRANCH   1   9
BRANCH   6  19
ATOM     19  O   UNL     1       5.132  -4.348   3.717  0.00  0.00    +0.000 OA
BRANCH  19  20
ATOM     20  C   UNL     1       5.588  -4.412   2.339  0.00  0.00    +0.000 C 
ATOM     21  C   UNL     1       4.626  -5.061   1.325  0.00  0.00    +0.000 C 
ATOM     22  N   UNL     1       5.678  -5.988   0.889  0.00  0.00    +0.000 NA
ATOM     23  C   UNL     1       6.550  -5.564   1.995  0.00  0.00    +0.000 C 
ATOM     24  H   UNL     1       6.052  -5.785  -0.037  0.00  0.00    +0.000 HD
ENDBRANCH  19  20
ENDBRANCH   6  19
TORSDOF 5
