REMARK  Name = 
REMARK  4 active torsions:
REMARK  status: ('A' for Active; 'I' for Inactive)
REMARK    1  A    between atoms: N_1  and  C_2
REMARK    2  A    between atoms: C_2  and  C_3
REMARK    3  A    between atoms: C_7  and  C_8
REMARK    4  A    between atoms: C_8  and  N_9
REMARK                            x       y       z     vdW  Elec       q    Type
REMARK                         _______ _______ _______ _____ _____    ______ ____
ROOT
ATOM      1  C   UNL     1       3.678  -1.698   0.084  0.00  0.00    +0.000 A 
ATOM      2  C   UNL     1       2.403  -2.251   0.218  0.00  0.00    +0.000 A 
ATOM      3  C   UNL     1       2.069  -2.868   1.412  0.00  0.00    +0.000 A 
ATOM      4  N   UNL     1       2.900  -2.956   2.475  0.00  0.00    +0.000 NA
ATOM      5  C   UNL     1       4.139  -2.415   2.346  0.00  0.00    +0.000 A 
ATOM      6  C   UNL     1       4.567  -1.819   1.156  0.00  0.00    +0.000 A 
ENDROOT
BRANCH   1   7
ATOM      7  C   UNL     1       4.066  -0.943  -1.160  0.00  0.00    +0.000 C 
BRANCH   7   8
ATOM      8  N   UNL     1       3.213   0.226  -1.342  0.00  0.00    +0.000 NA
ATOM      9  H   UNL     1       3.570   0.779  -2.124  0.00  0.00    +0.000 HD
ATOM     10  H   UNL     1       3.288   0.820  -0.518  0.00  0.00    +0.000 HD
ENDBRANCH   7   8
ENDBRANCH   1   7
BRANCH   5  11
ATOM     11  C   UNL     1       5.037  -2.466   3.557  0.00  0.00    +0.000 C 
BRANCH  11  12
ATOM     12  N   UNL     1       5.462  -1.131   3.955  0.00  0.00    +0.000 N 
ATOM     13  N   UNL     1       6.652  -0.655   3.507  0.00  0.00    +0.000 NA
ATOM     14  C   UNL     1       6.677   0.601   3.956  0.00  0.00    +0.000 A 
ATOM     15  C   UNL     1       5.534   0.934   4.717  0.00  0.00    +0.000 A 
ATOM     16  C   UNL     1       5.067   2.084   5.380  0.00  0.00    +0.000 A 
ATOM     17  C   UNL     1       3.837   2.025   6.044  0.00  0.00    +0.000 A 
ATOM     18  C   UNL     1       3.092   0.849   6.063  0.00  0.00    +0.000 A 
ATOM     19  C   UNL     1       3.541  -0.304   5.407  0.00  0.00    +0.000 A 
ATOM     20  C   UNL     1       4.768  -0.227   4.729  0.00  0.00    +0.000 A 
ENDBRANCH  11  12
ENDBRANCH   5  11
TORSDOF 4
