REMARK  Name = 
REMARK  6 active torsions:
REMARK  status: ('A' for Active; 'I' for Inactive)
REMARK    1  A    between atoms: C_2  and  C_25
REMARK    2  A    between atoms: N_3  and  C_4
REMARK    3  A    between atoms: C_4  and  C_5
REMARK    4  A    between atoms: C_8  and  C_9
REMARK    5  A    between atoms: C_9  and  N_10
REMARK    6  A    between atoms: C_11  and  C_13
REMARK                            x       y       z     vdW  Elec       q    Type
REMARK                         _______ _______ _______ _____ _____    ______ ____
ROOT
ATOM      1  C   UNL     1       3.269   3.553   1.093  0.00  0.00    +0.000 A 
ATOM      2  C   UNL     1       2.879   4.870   0.810  0.00  0.00    +0.000 A 
ATOM      3  C   UNL     1       3.707   5.949   1.143  0.00  0.00    +0.000 A 
ATOM      4  C   UNL     1       4.954   5.734   1.746  0.00  0.00    +0.000 A 
ATOM      5  C   UNL     1       5.343   4.418   2.029  0.00  0.00    +0.000 A 
ATOM      6  C   UNL     1       4.516   3.339   1.695  0.00  0.00    +0.000 A 
ENDROOT
BRANCH   1   7
ATOM      7  C   UNL     1       2.350   2.400   0.780  0.00  0.00    +0.000 C 
BRANCH   7  10
ATOM      8  O   UNL     1       0.957   0.259  -0.283  0.00  0.00    +0.000 OA
ATOM      9  C   UNL     1       1.744   0.855  -1.015  0.00  0.00    +0.000 C 
ATOM     10  N   UNL     1       2.496   1.921  -0.574  0.00  0.00    +0.000 N 
ATOM     11  H   UNL     1       3.000   2.488  -1.240  0.00  0.00    +0.000 HD
BRANCH   9  12
ATOM     12  C   UNL     1       1.927   0.492  -2.394  0.00  0.00    +0.000 A 
ATOM     13  C   UNL     1       2.822   0.888  -3.369  0.00  0.00    +0.000 A 
ATOM     14  C   UNL     1       2.480   0.139  -4.512  0.00  0.00    +0.000 A 
ATOM     15  N   UNL     1       1.444  -0.673  -4.294  0.00  0.00    +0.000 NA
ATOM     16  N   UNL     1       1.138  -0.450  -3.003  0.00  0.00    +0.000 N 
ATOM     17  H   UNL     1       0.373  -0.970  -2.577  0.00  0.00    +0.000 HD
ENDBRANCH   9  12
ENDBRANCH   7  10
ENDBRANCH   1   7
BRANCH   4  18
ATOM     18  C   UNL     1       5.854   6.891   2.103  0.00  0.00    +0.000 C 
BRANCH  18  19
ATOM     19  N   UNL     1       5.608   7.376   3.437  0.00  0.00    +0.000 N 
ATOM     20  C   UNL     1       6.286   8.466   3.925  0.00  0.00    +0.000 C 
ATOM     21  O   UNL     1       7.091   9.089   3.237  0.00  0.00    +0.000 OA
ATOM     22  H   UNL     1       5.138   6.748   4.084  0.00  0.00    +0.000 HD
BRANCH  20  23
ATOM     23  C   UNL     1       5.958   8.896   5.291  0.00  0.00    +0.000 A 
ATOM     24  C   UNL     1       6.195  10.210   5.674  0.00  0.00    +0.000 A 
ATOM     25  S   UNL     1       5.711  10.556   7.272  0.00  0.00    +0.000 S 
ATOM     26  C   UNL     1       5.219   8.949   7.528  0.00  0.00    +0.000 A 
ATOM     27  N   UNL     1       4.719   8.554   8.731  0.00  0.00    +0.000 NA
ATOM     28  C   UNL     1       4.418   7.300   8.797  0.00  0.00    +0.000 A 
ATOM     29  N   UNL     1       4.564   6.407   7.767  0.00  0.00    +0.000 N 
ATOM     30  C   UNL     1       5.034   6.766   6.527  0.00  0.00    +0.000 A 
ATOM     31  O   UNL     1       5.111   5.952   5.612  0.00  0.00    +0.000 OA
ATOM     32  C   UNL     1       5.402   8.163   6.403  0.00  0.00    +0.000 A 
ATOM     33  H   UNL     1       4.302   5.439   7.882  0.00  0.00    +0.000 HD
ENDBRANCH  20  23
ENDBRANCH  18  19
ENDBRANCH   4  18
TORSDOF 6
