REMARK  Name = 
REMARK  5 active torsions:
REMARK  status: ('A' for Active; 'I' for Inactive)
REMARK    1  A    between atoms: C_2  and  C_18
REMARK    2  A    between atoms: N_3  and  C_4
REMARK    3  A    between atoms: C_4  and  C_5
REMARK    4  A    between atoms: C_8  and  O_9
REMARK    5  A    between atoms: O_9  and  C_10
REMARK                            x       y       z     vdW  Elec       q    Type
REMARK                         _______ _______ _______ _____ _____    ______ ____
ROOT
ATOM      1  O   UNL     1       1.716   3.065  -0.053  0.00  0.00    +0.000 OA
ATOM      2  C   UNL     1       2.478   2.111  -0.182  0.00  0.00    +0.000 C 
ATOM      3  N   UNL     1       2.722   1.226   0.835  0.00  0.00    +0.000 N 
ATOM      4  H   UNL     1       3.481   0.559   0.741  0.00  0.00    +0.000 HD
ENDROOT
BRANCH   2   5
ATOM      5  C   UNL     1       3.140   1.829  -1.460  0.00  0.00    +0.000 A 
ATOM      6  C   UNL     1       2.592   2.318  -2.638  0.00  0.00    +0.000 A 
ATOM      7  S   UNL     1       3.487   1.908  -4.029  0.00  0.00    +0.000 S 
ATOM      8  C   UNL     1       4.662   1.099  -3.101  0.00  0.00    +0.000 A 
ATOM      9  N   UNL     1       5.754   0.542  -3.689  0.00  0.00    +0.000 NA
ATOM     10  C   UNL     1       6.587   0.002  -2.862  0.00  0.00    +0.000 A 
ATOM     11  N   UNL     1       6.415  -0.051  -1.503  0.00  0.00    +0.000 N 
ATOM     12  C   UNL     1       5.286   0.417  -0.878  0.00  0.00    +0.000 A 
ATOM     13  O   UNL     1       5.087   0.219   0.318  0.00  0.00    +0.000 OA
ATOM     14  C   UNL     1       4.352   1.102  -1.753  0.00  0.00    +0.000 A 
ATOM     15  H   UNL     1       7.088  -0.523  -0.917  0.00  0.00    +0.000 HD
ENDBRANCH   2   5
BRANCH   3  16
ATOM     16  C   UNL     1       2.177   1.406   2.153  0.00  0.00    +0.000 C 
BRANCH  16  17
ATOM     17  C   UNL     1       3.151   2.099   3.057  0.00  0.00    +0.000 A 
ATOM     18  C   UNL     1       3.188   3.493   3.176  0.00  0.00    +0.000 A 
ATOM     19  C   UNL     1       4.069   4.085   4.076  0.00  0.00    +0.000 A 
ATOM     20  C   UNL     1       4.889   3.256   4.826  0.00  0.00    +0.000 A 
ATOM     21  N   UNL     1       4.941   1.915   4.672  0.00  0.00    +0.000 NA
ATOM     22  C   UNL     1       4.068   1.367   3.801  0.00  0.00    +0.000 A 
BRANCH  20  23
ATOM     23  O   UNL     1       5.675   3.854   5.805  0.00  0.00    +0.000 OA
BRANCH  23  24
ATOM     24  C   UNL     1       5.893   3.123   6.956  0.00  0.00    +0.000 A 
ATOM     25  C   UNL     1       7.151   3.229   7.550  0.00  0.00    +0.000 A 
ATOM     26  C   UNL     1       7.441   2.493   8.702  0.00  0.00    +0.000 A 
ATOM     27  C   UNL     1       6.472   1.659   9.263  0.00  0.00    +0.000 A 
ATOM     28  C   UNL     1       5.202   1.585   8.696  0.00  0.00    +0.000 A 
ATOM     29  C   UNL     1       4.906   2.334   7.558  0.00  0.00    +0.000 A 
ENDBRANCH  23  24
ENDBRANCH  20  23
ENDBRANCH  16  17
ENDBRANCH   3  16
TORSDOF 5
