REMARK  Name = 
REMARK  6 active torsions:
REMARK  status: ('A' for Active; 'I' for Inactive)
REMARK    1  A    between atoms: C_1  and  C_2
REMARK    2  A    between atoms: C_5  and  C_6
REMARK    3  A    between atoms: C_6  and  C_7
REMARK    4  A    between atoms: C_6  and  N_8
REMARK    5  A    between atoms: N_8  and  C_9
REMARK    6  A    between atoms: C_12  and  C_13
REMARK                            x       y       z     vdW  Elec       q    Type
REMARK                         _______ _______ _______ _____ _____    ______ ____
ROOT
ATOM      1  C   UNL     1      -4.607   1.775  -1.161  0.00  0.00    +0.000 A 
ATOM      2  N   UNL     1      -4.650   3.131  -1.063  0.00  0.00    +0.000 NA
ATOM      3  C   UNL     1      -5.291   3.849  -2.026  0.00  0.00    +0.000 A 
ATOM      4  C   UNL     1      -5.913   3.287  -3.122  0.00  0.00    +0.000 A 
ATOM      5  C   UNL     1      -5.852   1.901  -3.232  0.00  0.00    +0.000 A 
ATOM      6  C   UNL     1      -5.198   1.133  -2.259  0.00  0.00    +0.000 A 
ATOM      7 CL   UNL     1      -5.249  -0.573  -2.512  0.00  0.00    +0.000 Cl
ENDROOT
BRANCH   4   8
ATOM      8  C   UNL     1      -6.650   4.056  -4.153  0.00  0.00    +0.000 C 
ATOM      9  N   UNL     1      -6.579   5.419  -4.148  0.00  0.00    +0.000 N 
ATOM     10  O   UNL     1      -7.309   3.483  -5.012  0.00  0.00    +0.000 OA
ATOM     11  H   UNL     1      -5.990   5.979  -3.549  0.00  0.00    +0.000 HD
ATOM     12  H   UNL     1      -7.070   5.898  -4.892  0.00  0.00    +0.000 HD
ENDBRANCH   4   8
BRANCH   1  13
ATOM     13  N   UNL     1      -4.034   1.212  -0.054  0.00  0.00    +0.000 N 
ATOM     14  H   UNL     1      -3.707   1.962   0.549  0.00  0.00    +0.000 HD
BRANCH  13  15
ATOM     15  C   UNL     1      -3.265  -0.018   0.053  0.00  0.00    +0.000 C 
ATOM     16  C   UNL     1      -1.772   0.261  -0.117  0.00  0.00    +0.000 C 
BRANCH  15  21
ATOM     17  C   UNL     1      -4.911  -2.419   5.121  0.00  0.00    +0.000 C 
ATOM     18  C   UNL     1      -4.375  -1.855   3.839  0.00  0.00    +0.000 A 
ATOM     19  C   UNL     1      -4.538  -2.541   2.632  0.00  0.00    +0.000 A 
ATOM     20  C   UNL     1      -4.143  -1.956   1.425  0.00  0.00    +0.000 A 
ATOM     21  C   UNL     1      -3.578  -0.671   1.394  0.00  0.00    +0.000 A 
ATOM     22  C   UNL     1      -3.373  -0.009   2.616  0.00  0.00    +0.000 A 
ATOM     23  C   UNL     1      -3.772  -0.593   3.823  0.00  0.00    +0.000 A 
ENDBRANCH  15  21
ENDBRANCH  13  15
ENDBRANCH   1  13
TORSDOF 4
