REMARK  Name = 
REMARK  2 active torsions:
REMARK  status: ('A' for Active; 'I' for Inactive)
REMARK    1  A    between atoms: C_11  and  C_12
REMARK    2  A    between atoms: C_13  and  C_14
REMARK                            x       y       z     vdW  Elec       q    Type
REMARK                         _______ _______ _______ _____ _____    ______ ____
ROOT
ATOM      1  F   UNL     1       1.062  -0.086   0.070  0.00  0.00    +0.000 F 
ATOM      2  C   UNL     1       1.567   0.817  -0.813  0.00  0.00    +0.000 C 
ATOM      3  F   UNL     1       1.193   2.040  -0.350  0.00  0.00    +0.000 F 
ATOM      4  C   UNL     1       0.939   0.586  -2.177  0.00  0.00    +0.000 C 
ATOM      5  C   UNL     1       1.462  -0.708  -2.795  0.00  0.00    +0.000 C 
ATOM      6  N   UNL     1       2.918  -0.637  -2.754  0.00  0.00    +0.000 N 
ATOM      7  C   UNL     1       3.668  -0.998  -3.856  0.00  0.00    +0.000 A 
ATOM      8  C   UNL     1       4.957  -0.477  -4.014  0.00  0.00    +0.000 A 
ATOM      9  C   UNL     1       5.717  -0.790  -5.137  0.00  0.00    +0.000 A 
ATOM     10  C   UNL     1       5.175  -1.625  -6.095  0.00  0.00    +0.000 A 
ATOM     11  C   UNL     1       3.887  -2.091  -5.889  0.00  0.00    +0.000 A 
ATOM     12  N   UNL     1       3.129  -1.789  -4.808  0.00  0.00    +0.000 NA
ATOM     13  C   UNL     1       3.505  -0.589  -1.420  0.00  0.00    +0.000 C 
ATOM     14  C   UNL     1       3.082   0.727  -0.795  0.00  0.00    +0.000 C 
ENDROOT
BRANCH  11  15
ATOM     15  C   UNL     1       3.266  -2.924  -6.868  0.00  0.00    +0.000 C 
ATOM     16  C   UNL     1       2.778  -3.604  -7.732  0.00  0.00    +0.000 C 
BRANCH  16  17
ATOM     17  C   UNL     1       2.199  -4.389  -8.778  0.00  0.00    +0.000 A 
ATOM     18  C   UNL     1       2.084  -3.863 -10.068  0.00  0.00    +0.000 A 
ATOM     19  C   UNL     1       1.487  -4.616 -11.081  0.00  0.00    +0.000 A 
ATOM     20  C   UNL     1       1.008  -5.897 -10.807  0.00  0.00    +0.000 A 
ATOM     21  C   UNL     1       1.137  -6.431  -9.524  0.00  0.00    +0.000 A 
ATOM     22  C   UNL     1       1.733  -5.678  -8.510  0.00  0.00    +0.000 A 
ENDBRANCH  16  17
ENDBRANCH  11  15
TORSDOF 2
