REMARK  Name = 
REMARK  8 active torsions:
REMARK  status: ('A' for Active; 'I' for Inactive)
REMARK    1  A    between atoms: C_1  and  C_2
REMARK    2  A    between atoms: C_2  and  C_3
REMARK    3  A    between atoms: C_2  and  C_4
REMARK    4  A    between atoms: C_2  and  C_5
REMARK    5  A    between atoms: C_9  and  C_10
REMARK    6  A    between atoms: N_16  and  C_17
REMARK    7  A    between atoms: C_17  and  C_18
REMARK    8  A    between atoms: C_22  and  C_23
REMARK                            x       y       z     vdW  Elec       q    Type
REMARK                         _______ _______ _______ _____ _____    ______ ____
ROOT
ATOM      1  C   UNL     1       2.852   0.796   1.218  0.00  0.00    +0.000 A 
ATOM      2  N   UNL     1       2.680   2.108   1.335  0.00  0.00    +0.000 NA
ATOM      3  C   UNL     1       3.142   2.462   2.568  0.00  0.00    +0.000 A 
ATOM      4  C   UNL     1       3.162   3.702   3.213  0.00  0.00    +0.000 A 
ATOM      5  C   UNL     1       3.680   3.738   4.513  0.00  0.00    +0.000 A 
ATOM      6  C   UNL     1       4.163   2.550   5.069  0.00  0.00    +0.000 A 
ATOM      7  N   UNL     1       4.174   1.324   4.471  0.00  0.00    +0.000 NA
ATOM      8  C   UNL     1       3.642   1.356   3.234  0.00  0.00    +0.000 A 
ATOM      9  N   UNL     1       3.426   0.294   2.379  0.00  0.00    +0.000 N 
ENDROOT
BRANCH   5  10
ATOM     10  C   UNL     1       3.730   4.969   5.342  0.00  0.00    +0.000 C 
ATOM     11  N   UNL     1       3.244   6.136   4.821  0.00  0.00    +0.000 N 
ATOM     12  O   UNL     1       4.187   4.948   6.478  0.00  0.00    +0.000 OA
ATOM     13  H   UNL     1       2.829   6.246   3.909  0.00  0.00    +0.000 HD
ATOM     14  H   UNL     1       3.273   6.949   5.423  0.00  0.00    +0.000 HD
ENDBRANCH   5  10
BRANCH   1  16
ATOM     15  C   UNL     1       1.770   1.019  -1.023  0.00  0.00    +0.000 C 
ATOM     16  C   UNL     1       2.456   0.030  -0.045  0.00  0.00    +0.000 C 
ATOM     17  C   UNL     1       1.437  -1.084   0.233  0.00  0.00    +0.000 C 
ATOM     18  C   UNL     1       3.685  -0.545  -0.767  0.00  0.00    +0.000 C 
ENDBRANCH   1  16
BRANCH   9  19
ATOM     19  C   UNL     1       3.801  -1.069   2.718  0.00  0.00    +0.000 C 
BRANCH  19  20
ATOM     20  C   UNL     1       2.710  -1.874   3.390  0.00  0.00    +0.000 A 
ATOM     21  C   UNL     1       2.624  -3.257   3.144  0.00  0.00    +0.000 A 
ATOM     22  C   UNL     1       1.702  -4.052   3.826  0.00  0.00    +0.000 A 
ATOM     23  C   UNL     1       0.856  -3.481   4.774  0.00  0.00    +0.000 A 
ATOM     24  C   UNL     1       0.913  -2.108   5.022  0.00  0.00    +0.000 A 
ATOM     25  C   UNL     1       1.834  -1.313   4.333  0.00  0.00    +0.000 A 
BRANCH  24  26
ATOM     26  C   UNL     1       0.046  -1.517   5.991  0.00  0.00    +0.000 C 
ATOM     27  N   UNL     1      -0.658  -1.031   6.779  0.00  0.00    +0.000 NA
ENDBRANCH  24  26
ENDBRANCH  19  20
ENDBRANCH   9  19
TORSDOF 5
