REMARK  Name = 
REMARK  8 active torsions:
REMARK  status: ('A' for Active; 'I' for Inactive)
REMARK    1  A    between atoms: C_1  and  C_2
REMARK    2  A    between atoms: C_2  and  O_3
REMARK    3  A    between atoms: O_3  and  C_4
REMARK    4  A    between atoms: C_8  and  C_9
REMARK    5  A    between atoms: C_9  and  C_10
REMARK    6  A    between atoms: C_13  and  C_14
REMARK    7  A    between atoms: C_14  and  N_15
REMARK    8  A    between atoms: C_16  and  C_18
REMARK                            x       y       z     vdW  Elec       q    Type
REMARK                         _______ _______ _______ _____ _____    ______ ____
ROOT
ATOM      1  C   UNL     1       8.250   2.806  -3.173  0.00  0.00    +0.000 A 
ATOM      2  C   UNL     1       8.764   1.797  -4.000  0.00  0.00    +0.000 A 
ATOM      3  C   UNL     1      10.141   1.681  -4.206  0.00  0.00    +0.000 A 
ATOM      4  C   UNL     1      11.028   2.572  -3.591  0.00  0.00    +0.000 A 
ATOM      5  C   UNL     1      10.510   3.625  -2.826  0.00  0.00    +0.000 A 
ATOM      6  C   UNL     1       9.134   3.733  -2.607  0.00  0.00    +0.000 A 
ENDROOT
BRANCH   1   7
ATOM      7  C   UNL     1       6.773   2.866  -2.862  0.00  0.00    +0.000 C 
BRANCH   7  12
ATOM      8  C   UNL     1       5.327   2.198   0.463  0.00  0.00    +0.000 A 
ATOM      9  C   UNL     1       5.409   0.828   0.627  0.00  0.00    +0.000 A 
ATOM     10  C   UNL     1       6.038   0.088  -0.366  0.00  0.00    +0.000 A 
ATOM     11  C   UNL     1       6.521   0.740  -1.499  0.00  0.00    +0.000 A 
ATOM     12  C   UNL     1       6.362   2.121  -1.608  0.00  0.00    +0.000 A 
ATOM     13  N   UNL     1       5.775   2.854  -0.631  0.00  0.00    +0.000 NA
BRANCH   8  14
ATOM     14  O   UNL     1       4.702   2.912   1.465  0.00  0.00    +0.000 OA
BRANCH  14  16
ATOM     15  C   UNL     1       4.408   4.993   2.608  0.00  0.00    +0.000 C 
ATOM     16  C   UNL     1       5.172   4.261   1.522  0.00  0.00    +0.000 C 
ENDBRANCH  14  16
ENDBRANCH   8  14
ENDBRANCH   7  12
ENDBRANCH   1   7
BRANCH   4  17
ATOM     17  C   UNL     1      12.516   2.410  -3.756  0.00  0.00    +0.000 C 
BRANCH  17  18
ATOM     18  N   UNL     1      12.997   3.109  -4.917  0.00  0.00    +0.000 N 
ATOM     19  C   UNL     1      14.313   3.027  -5.294  0.00  0.00    +0.000 C 
ATOM     20  O   UNL     1      15.119   2.322  -4.693  0.00  0.00    +0.000 OA
ATOM     21  H   UNL     1      12.420   3.866  -5.270  0.00  0.00    +0.000 HD
BRANCH  19  22
ATOM     22  C   UNL     1      14.697   3.776  -6.496  0.00  0.00    +0.000 A 
ATOM     23  C   UNL     1      15.823   3.392  -7.213  0.00  0.00    +0.000 A 
ATOM     24  S   UNL     1      16.084   4.318  -8.621  0.00  0.00    +0.000 S 
ATOM     25  C   UNL     1      14.738   5.304  -8.288  0.00  0.00    +0.000 A 
ATOM     26  N   UNL     1      14.405   6.333  -9.112  0.00  0.00    +0.000 NA
ATOM     27  C   UNL     1      13.384   7.020  -8.722  0.00  0.00    +0.000 A 
ATOM     28  N   UNL     1      12.662   6.770  -7.585  0.00  0.00    +0.000 N 
ATOM     29  C   UNL     1      12.945   5.725  -6.737  0.00  0.00    +0.000 A 
ATOM     30  O   UNL     1      12.255   5.504  -5.746  0.00  0.00    +0.000 OA
ATOM     31  C   UNL     1      14.090   4.924  -7.127  0.00  0.00    +0.000 A 
ATOM     32  H   UNL     1      11.869   7.343  -7.338  0.00  0.00    +0.000 HD
ENDBRANCH  19  22
ENDBRANCH  17  18
ENDBRANCH   4  17
TORSDOF 7
