REMARK  Name = 
REMARK  8 active torsions:
REMARK  status: ('A' for Active; 'I' for Inactive)
REMARK    1  A    between atoms: N_1  and  C_2
REMARK    2  A    between atoms: C_2  and  C_3
REMARK    3  A    between atoms: C_10  and  C_11
REMARK    4  A    between atoms: C_11  and  C_12
REMARK    5  A    between atoms: C_15  and  C_16
REMARK    6  A    between atoms: C_16  and  N_17
REMARK    7  A    between atoms: N_20  and  C_21
REMARK    8  A    between atoms: C_21  and  C_22
REMARK                            x       y       z     vdW  Elec       q    Type
REMARK                         _______ _______ _______ _____ _____    ______ ____
ROOT
ATOM      1  C   UNL     1       2.885   0.938  -0.939  0.00  0.00    +0.000 A 
ATOM      2  C   UNL     1       2.534   2.256  -0.621  0.00  0.00    +0.000 A 
ATOM      3  N   UNL     1       2.787   3.358  -1.372  0.00  0.00    +0.000 NA
ATOM      4  C   UNL     1       3.425   3.049  -2.515  0.00  0.00    +0.000 A 
ATOM      5  C   UNL     1       3.852   1.806  -2.948  0.00  0.00    +0.000 A 
ATOM      6  C   UNL     1       3.586   0.702  -2.133  0.00  0.00    +0.000 A 
ATOM      7  N   UNL     1       4.485   1.910  -4.157  0.00  0.00    +0.000 NA
ATOM      8  C   UNL     1       4.468   3.196  -4.471  0.00  0.00    +0.000 A 
ATOM      9  N   UNL     1       3.776   3.913  -3.514  0.00  0.00    +0.000 N 
ENDROOT
BRANCH   1  10
ATOM     10  C   UNL     1       2.498  -0.192  -0.031  0.00  0.00    +0.000 C 
BRANCH  10  11
ATOM     11  N   UNL     1       1.049  -0.299   0.073  0.00  0.00    +0.000 NA
ATOM     12  H   UNL     1       0.809  -1.144   0.591  0.00  0.00    +0.000 HD
ATOM     13  H   UNL     1       0.656  -0.415  -0.861  0.00  0.00    +0.000 HD
ENDBRANCH  10  11
ENDBRANCH   1  10
BRANCH   8  14
ATOM     14  C   UNL     1       5.115   3.821  -5.677  0.00  0.00    +0.000 C 
BRANCH  14  15
ATOM     15  C   UNL     1       5.932   2.919  -6.583  0.00  0.00    +0.000 C 
ATOM     16  C   UNL     1       5.623   2.734  -7.882  0.00  0.00    +0.000 C 
ATOM     17  C   UNL     1       6.436   1.897  -8.833  0.00  0.00    +0.000 C 
ATOM     18  C   UNL     1       7.552   1.062  -8.172  0.00  0.00    +0.000 C 
ATOM     19  C   UNL     1       8.193   1.878  -7.036  0.00  0.00    +0.000 C 
ATOM     20  C   UNL     1       7.164   2.284  -5.976  0.00  0.00    +0.000 C 
BRANCH  18  21
ATOM     21  C   UNL     1       7.016  -0.305  -7.704  0.00  0.00    +0.000 C 
BRANCH  21  22
ATOM     22  N   UNL     1       8.070  -1.120  -7.100  0.00  0.00    +0.000 NA
ATOM     23  H   UNL     1       8.772  -1.349  -7.801  0.00  0.00    +0.000 HD
ATOM     24  H   UNL     1       7.673  -2.004  -6.784  0.00  0.00    +0.000 HD
ENDBRANCH  21  22
ENDBRANCH  18  21
ENDBRANCH  14  15
ENDBRANCH   8  14
BRANCH   9  25
ATOM     25  C   UNL     1       3.510   5.331  -3.452  0.00  0.00    +0.000 C 
BRANCH  25  26
ATOM     26  C   UNL     1       2.038   5.705  -3.525  0.00  0.00    +0.000 C 
ATOM     27  F   UNL     1       1.189   4.661  -3.563  0.00  0.00    +0.000 F 
ATOM     28  F   UNL     1       1.686   6.493  -2.482  0.00  0.00    +0.000 F 
ATOM     29  F   UNL     1       1.809   6.432  -4.651  0.00  0.00    +0.000 F 
ENDBRANCH  25  26
ENDBRANCH   9  25
TORSDOF 8
