REMARK  Name = 
REMARK  5 active torsions:
REMARK  status: ('A' for Active; 'I' for Inactive)
REMARK    1  A    between atoms: C_2  and  C_4
REMARK    2  A    between atoms: C_7  and  O_8
REMARK    3  A    between atoms: O_8  and  C_9
REMARK    4  A    between atoms: C_9  and  C_10
REMARK    5  A    between atoms: C_14  and  C_15
REMARK                            x       y       z     vdW  Elec       q    Type
REMARK                         _______ _______ _______ _____ _____    ______ ____
ROOT
ATOM      1  C   UNL     1       5.295  -5.710   1.040  0.00  0.00    +0.000 C 
ENDROOT
BRANCH   1   2
ATOM      2  C   UNL     1       6.268  -6.701   1.641  0.00  0.00    +0.000 A 
ATOM      3  C   UNL     1       7.409  -6.283   2.330  0.00  0.00    +0.000 A 
ATOM      4  C   UNL     1       8.248  -7.220   2.927  0.00  0.00    +0.000 A 
ATOM      5  C   UNL     1       7.937  -8.581   2.868  0.00  0.00    +0.000 A 
ATOM      6  C   UNL     1       6.777  -9.041   2.223  0.00  0.00    +0.000 A 
ATOM      7  C   UNL     1       5.963  -8.074   1.602  0.00  0.00    +0.000 A 
BRANCH   6   8
ATOM      8  C   UNL     1       6.403 -10.471   2.235  0.00  0.00    +0.000 A 
ATOM      9  C   UNL     1       5.731 -11.085   1.168  0.00  0.00    +0.000 A 
ATOM     10  C   UNL     1       5.369 -12.431   1.233  0.00  0.00    +0.000 A 
ATOM     11  C   UNL     1       5.696 -13.146   2.371  0.00  0.00    +0.000 A 
ATOM     12  N   UNL     1       6.341 -12.612   3.425  0.00  0.00    +0.000 NA
ATOM     13  C   UNL     1       6.669 -11.298   3.332  0.00  0.00    +0.000 A 
ENDBRANCH   6   8
ENDBRANCH   1   2
BRANCH   1  14
ATOM     14  O   UNL     1       5.959  -4.512   0.621  0.00  0.00    +0.000 OA
BRANCH  14  18
ATOM     15  C   UNL     1       3.356  -1.740  -0.961  0.00  0.00    +0.000 A 
ATOM     16  C   UNL     1       4.715  -1.431  -0.862  0.00  0.00    +0.000 A 
ATOM     17  C   UNL     1       5.590  -2.375  -0.319  0.00  0.00    +0.000 A 
ATOM     18  C   UNL     1       5.073  -3.593   0.097  0.00  0.00    +0.000 A 
ATOM     19  N   UNL     1       3.763  -3.914   0.015  0.00  0.00    +0.000 NA
ATOM     20  C   UNL     1       2.933  -2.978  -0.501  0.00  0.00    +0.000 A 
BRANCH  15  22
ATOM     21  N   UNL     1       2.755   0.088  -2.441  0.00  0.00    +0.000 N 
ATOM     22  C   UNL     1       2.341  -0.817  -1.507  0.00  0.00    +0.000 C 
ATOM     23  O   UNL     1       1.168  -0.890  -1.171  0.00  0.00    +0.000 OA
ATOM     24  H   UNL     1       2.024   0.628  -2.889  0.00  0.00    +0.000 HD
ATOM     25  H   UNL     1       3.636   0.004  -2.930  0.00  0.00    +0.000 HD
ENDBRANCH  15  22
ENDBRANCH  14  18
ENDBRANCH   1  14
TORSDOF 5
