REMARK  Name = 
REMARK  5 active torsions:
REMARK  status: ('A' for Active; 'I' for Inactive)
REMARK    1  A    between atoms: C_2  and  C_3
REMARK    2  A    between atoms: C_7  and  O_8
REMARK    3  A    between atoms: O_8  and  C_9
REMARK    4  A    between atoms: C_9  and  C_10
REMARK    5  A    between atoms: C_14  and  C_15
REMARK                            x       y       z     vdW  Elec       q    Type
REMARK                         _______ _______ _______ _____ _____    ______ ____
ROOT
ATOM      1  C   UNL     1       4.197   3.852   0.071  0.00  0.00    +0.000 A 
ATOM      2  C   UNL     1       5.558   4.119   0.098  0.00  0.00    +0.000 A 
ATOM      3  N   UNL     1       6.084   5.360   0.120  0.00  0.00    +0.000 NA
ATOM      4  C   UNL     1       5.206   6.392   0.095  0.00  0.00    +0.000 A 
ATOM      5  C   UNL     1       3.816   6.266   0.040  0.00  0.00    +0.000 A 
ATOM      6  C   UNL     1       3.327   4.949   0.024  0.00  0.00    +0.000 A 
ENDROOT
BRANCH   5   7
ATOM      7  C   UNL     1       2.919   7.440   0.011  0.00  0.00    +0.000 A 
ATOM      8  C   UNL     1       3.304   8.644  -0.613  0.00  0.00    +0.000 A 
ATOM      9  C   UNL     1       2.460   9.760  -0.636  0.00  0.00    +0.000 A 
ATOM     10  C   UNL     1       1.204   9.692  -0.043  0.00  0.00    +0.000 A 
ATOM     11  C   UNL     1       0.808   8.514   0.571  0.00  0.00    +0.000 A 
ATOM     12  F   UNL     1      -0.401   8.441   1.143  0.00  0.00    +0.000 F 
ATOM     13  C   UNL     1       1.646   7.403   0.607  0.00  0.00    +0.000 A 
ENDBRANCH   5   7
BRANCH   1  14
ATOM     14  C   UNL     1       3.686   2.439   0.085  0.00  0.00    +0.000 C 
BRANCH  14  15
ATOM     15  O   UNL     1       3.556   1.972  -1.256  0.00  0.00    +0.000 OA
BRANCH  15  20
ATOM     16  C   UNL     1       2.567  -1.023  -3.063  0.00  0.00    +0.000 A 
ATOM     17  C   UNL     1       2.248  -1.912  -2.033  0.00  0.00    +0.000 A 
ATOM     18  C   UNL     1       2.359  -1.504  -0.704  0.00  0.00    +0.000 A 
ATOM     19  C   UNL     1       2.791  -0.209  -0.399  0.00  0.00    +0.000 A 
ATOM     20  C   UNL     1       3.119   0.684  -1.422  0.00  0.00    +0.000 A 
ATOM     21  C   UNL     1       3.006   0.270  -2.753  0.00  0.00    +0.000 A 
BRANCH  16  23
ATOM     22  N   UNL     1       2.329  -1.772  -5.537  0.00  0.00    +0.000 NA
ATOM     23  C   UNL     1       2.439  -1.433  -4.431  0.00  0.00    +0.000 C 
ENDBRANCH  16  23
ENDBRANCH  15  20
ENDBRANCH  14  15
ENDBRANCH   1  14
TORSDOF 5
