REMARK  Name = 
REMARK  10 active torsions:
REMARK  status: ('A' for Active; 'I' for Inactive)
REMARK    1  A    between atoms: C_1  and  O_2
REMARK    2  A    between atoms: O_2  and  C_3
REMARK    3  A    between atoms: C_6  and  C_7
REMARK    4  A    between atoms: C_7  and  C_8
REMARK    5  A    between atoms: C_7  and  C_9
REMARK    6  A    between atoms: C_9  and  N_10
REMARK    7  A    between atoms: N_10  and  C_11
REMARK    8  A    between atoms: C_14  and  C_15
REMARK    9  A    between atoms: C_21  and  O_22
REMARK   10  A    between atoms: O_22  and  C_23
REMARK                            x       y       z     vdW  Elec       q    Type
REMARK                         _______ _______ _______ _____ _____    ______ ____
ROOT
ATOM      1  C   UNL     1       5.457   2.134   4.482  0.00  0.00    +0.000 C 
ATOM      2  C   UNL     1       5.608   3.655   4.333  0.00  0.00    +0.000 C 
ENDROOT
BRANCH   1   6
ATOM      3  C   UNL     1       3.121   0.568   1.142  0.00  0.00    +0.000 A 
ATOM      4  C   UNL     1       2.666   0.393   2.450  0.00  0.00    +0.000 A 
ATOM      5  C   UNL     1       3.390   0.891   3.535  0.00  0.00    +0.000 A 
ATOM      6  C   UNL     1       4.600   1.574   3.339  0.00  0.00    +0.000 A 
ATOM      7  C   UNL     1       5.045   1.744   2.017  0.00  0.00    +0.000 A 
ATOM      8  C   UNL     1       4.303   1.287   0.919  0.00  0.00    +0.000 A 
BRANCH   3  10
ATOM      9  C   UNL     1       2.922  -0.472  -0.975  0.00  0.00    +0.000 C 
ATOM     10  O   UNL     1       2.290   0.026   0.198  0.00  0.00    +0.000 OA
ENDBRANCH   3  10
BRANCH   8  11
ATOM     11  O   UNL     1       4.713   1.518  -0.373  0.00  0.00    +0.000 OA
BRANCH  11  12
ATOM     12  C   UNL     1       5.589   2.637  -0.646  0.00  0.00    +0.000 C 
ATOM     13  C   UNL     1       5.003   4.060  -0.553  0.00  0.00    +0.000 C 
ATOM     14  N   UNL     1       5.487   4.364  -1.908  0.00  0.00    +0.000 NA
ATOM     15  C   UNL     1       5.813   2.949  -2.136  0.00  0.00    +0.000 C 
ATOM     16  H   UNL     1       6.293   4.987  -1.936  0.00  0.00    +0.000 HD
ENDBRANCH  11  12
ENDBRANCH   8  11
ENDBRANCH   1   6
BRANCH   1  17
ATOM     17  C   UNL     1       4.911   1.742   5.871  0.00  0.00    +0.000 C 
BRANCH  17  18
ATOM     18  N   UNL     1       5.740   2.188   6.997  0.00  0.00    +0.000 N 
ATOM     19  H   UNL     1       5.951   3.183   6.957  0.00  0.00    +0.000 HD
BRANCH  18  20
ATOM     20  C   UNL     1       5.246   1.844   8.274  0.00  0.00    +0.000 A 
ATOM     21  C   UNL     1       4.544   0.661   8.528  0.00  0.00    +0.000 A 
ATOM     22  C   UNL     1       4.133   0.336   9.818  0.00  0.00    +0.000 A 
ATOM     23  C   UNL     1       4.472   1.197  10.848  0.00  0.00    +0.000 A 
ATOM     24  N   UNL     1       5.183   2.345  10.673  0.00  0.00    +0.000 NA
ATOM     25  C   UNL     1       5.560   2.619   9.398  0.00  0.00    +0.000 A 
BRANCH  23  26
ATOM     26  C   UNL     1       4.067   0.854  12.248  0.00  0.00    +0.000 C 
ATOM     27  N   UNL     1       4.457   1.747  13.208  0.00  0.00    +0.000 N 
ATOM     28  O   UNL     1       3.439  -0.158  12.527  0.00  0.00    +0.000 OA
ATOM     29  H   UNL     1       5.002   2.559  12.940  0.00  0.00    +0.000 HD
ATOM     30  H   UNL     1       4.250   1.555  14.176  0.00  0.00    +0.000 HD
ENDBRANCH  23  26
ENDBRANCH  18  20
ENDBRANCH  17  18
ENDBRANCH   1  17
TORSDOF 8
