REMARK  Name = 
REMARK  8 active torsions:
REMARK  status: ('A' for Active; 'I' for Inactive)
REMARK    1  A    between atoms: C_1  and  C_2
REMARK    2  A    between atoms: C_2  and  C_3
REMARK    3  A    between atoms: C_2  and  C_4
REMARK    4  A    between atoms: C_2  and  C_5
REMARK    5  A    between atoms: C_7  and  C_8
REMARK    6  A    between atoms: C_8  and  N_9
REMARK    7  A    between atoms: C_14  and  C_15
REMARK    8  A    between atoms: C_23  and  O_24
REMARK                            x       y       z     vdW  Elec       q    Type
REMARK                         _______ _______ _______ _____ _____    ______ ____
ROOT
ATOM      1  N   UNL     1       5.797   3.572  -4.105  0.00  0.00    +0.000 N 
ATOM      2  C   UNL     1       7.020   3.867  -3.545  0.00  0.00    +0.000 A 
ATOM      3  C   UNL     1       7.483   5.031  -4.119  0.00  0.00    +0.000 A 
ATOM      4  C   UNL     1       6.518   5.454  -5.061  0.00  0.00    +0.000 A 
ATOM      5  N   UNL     1       6.547   6.541  -5.869  0.00  0.00    +0.000 NA
ATOM      6  C   UNL     1       5.455   6.671  -6.671  0.00  0.00    +0.000 A 
ATOM      7  C   UNL     1       4.364   5.808  -6.704  0.00  0.00    +0.000 A 
ATOM      8  C   UNL     1       4.351   4.697  -5.867  0.00  0.00    +0.000 A 
ATOM      9  C   UNL     1       5.468   4.533  -5.041  0.00  0.00    +0.000 A 
ENDROOT
BRANCH   6  10
ATOM     10  C   UNL     1       5.460   7.853  -7.594  0.00  0.00    +0.000 C 
ATOM     11  N   UNL     1       6.567   8.657  -7.516  0.00  0.00    +0.000 N 
ATOM     12  O   UNL     1       4.546   8.095  -8.374  0.00  0.00    +0.000 OA
ATOM     13  H   UNL     1       7.312   8.423  -6.868  0.00  0.00    +0.000 HD
ATOM     14  H   UNL     1       6.644   9.461  -8.121  0.00  0.00    +0.000 HD
ENDBRANCH   6  10
BRANCH   1  15
ATOM     15  C   UNL     1       5.017   2.373  -3.800  0.00  0.00    +0.000 C 
BRANCH  15  18
ATOM     16  C   UNL     1       2.930   1.363  -0.733  0.00  0.00    +0.000 A 
ATOM     17  C   UNL     1       3.788   1.345  -1.857  0.00  0.00    +0.000 A 
ATOM     18  C   UNL     1       4.119   2.507  -2.588  0.00  0.00    +0.000 A 
ATOM     19  C   UNL     1       3.537   3.718  -2.205  0.00  0.00    +0.000 A 
ATOM     20  C   UNL     1       2.715   3.779  -1.083  0.00  0.00    +0.000 A 
ATOM     21  C   UNL     1       2.433   2.622  -0.352  0.00  0.00    +0.000 A 
BRANCH  16  23
ATOM     22  C   UNL     1       3.130  -1.217  -0.636  0.00  0.00    +0.000 C 
ATOM     23  C   UNL     1       2.543   0.064   0.011  0.00  0.00    +0.000 C 
ATOM     24  C   UNL     1       1.007  -0.122   0.006  0.00  0.00    +0.000 C 
ATOM     25  C   UNL     1       3.052   0.088   1.469  0.00  0.00    +0.000 C 
ENDBRANCH  16  23
BRANCH  21  26
ATOM     26  O   UNL     1       1.646   2.739   0.760  0.00  0.00    +0.000 OA
ATOM     27  H   UNL     1       1.437   3.676   0.906  0.00  0.00    +0.000 HD
ENDBRANCH  21  26
ENDBRANCH  15  18
ENDBRANCH   1  15
TORSDOF 5
