REMARK  Name = 
REMARK  6 active torsions:
REMARK  status: ('A' for Active; 'I' for Inactive)
REMARK    1  A    between atoms: C_2  and  C_3
REMARK    2  A    between atoms: N_7  and  C_8
REMARK    3  A    between atoms: C_8  and  C_9
REMARK    4  A    between atoms: C_13  and  O_14
REMARK    5  A    between atoms: O_14  and  C_15
REMARK    6  A    between atoms: C_22  and  N_23
REMARK                            x       y       z     vdW  Elec       q    Type
REMARK                         _______ _______ _______ _____ _____    ______ ____
ROOT
ATOM      1  C   UNL     1       4.296   1.274   1.635  0.00  0.00    +0.000 A 
ATOM      2  N   UNL     1       4.778   0.074   2.093  0.00  0.00    +0.000 NA
ATOM      3  C   UNL     1       5.886  -0.367   1.472  0.00  0.00    +0.000 A 
ATOM      4  C   UNL     1       6.509   0.336   0.453  0.00  0.00    +0.000 A 
ATOM      5  N   UNL     1       7.516  -0.144  -0.373  0.00  0.00    +0.000 N 
ATOM      6  N   UNL     1       6.038   1.547   0.058  0.00  0.00    +0.000 NA
ATOM      7  C   UNL     1       4.928   2.023   0.643  0.00  0.00    +0.000 A 
ATOM      8  H   UNL     1       7.719   0.645  -0.988  0.00  0.00    +0.000 HD
ENDROOT
BRANCH   5   9
ATOM      9  C   UNL     1       8.675  -0.977  -0.030  0.00  0.00    +0.000 C 
ATOM     10  C   UNL     1       8.894  -2.027  -1.122  0.00  0.00    +0.000 C 
ATOM     11  C   UNL     1       8.706  -2.453   0.291  0.00  0.00    +0.000 C 
BRANCH   9  12
ATOM     12  C   UNL     1       9.817  -0.121   0.499  0.00  0.00    +0.000 A 
ATOM     13  C   UNL     1      10.011   0.065   1.880  0.00  0.00    +0.000 A 
ATOM     14  C   UNL     1      10.842   1.078   2.357  0.00  0.00    +0.000 A 
ATOM     15  C   UNL     1      11.430   1.966   1.458  0.00  0.00    +0.000 A 
ATOM     16  C   UNL     1      11.263   1.796   0.084  0.00  0.00    +0.000 A 
ATOM     17  C   UNL     1      10.529   0.710  -0.388  0.00  0.00    +0.000 A 
BRANCH  16  18
ATOM     18  O   UNL     1      11.733   2.813  -0.699  0.00  0.00    +0.000 OA
BRANCH  18  19
ATOM     19  C   UNL     1      12.129   2.449  -2.011  0.00  0.00    +0.000 C 
ATOM     20  F   UNL     1      11.062   2.523  -2.845  0.00  0.00    +0.000 F 
ATOM     21  F   UNL     1      13.019   3.382  -2.432  0.00  0.00    +0.000 F 
ENDBRANCH  18  19
ENDBRANCH  16  18
ENDBRANCH   9  12
ENDBRANCH   5   9
BRANCH   7  22
ATOM     22  N   UNL     1       4.429   3.204   0.097  0.00  0.00    +0.000 N 
ATOM     23  H   UNL     1       5.117   3.580  -0.551  0.00  0.00    +0.000 HD
ATOM     24  H   UNL     1       4.101   3.894   0.764  0.00  0.00    +0.000 HD
ENDBRANCH   7  22
BRANCH   1  26
ATOM     25  N   UNL     1       2.129   2.136   2.736  0.00  0.00    +0.000 NA
ATOM     26  C   UNL     1       3.100   1.724   2.240  0.00  0.00    +0.000 C 
ENDBRANCH   1  26
TORSDOF 6
