REMARK  Name = 
REMARK  7 active torsions:
REMARK  status: ('A' for Active; 'I' for Inactive)
REMARK    1  A    between atoms: C_1  and  C_2
REMARK    2  A    between atoms: C_2  and  N_3
REMARK    3  A    between atoms: C_2  and  C_16
REMARK    4  A    between atoms: C_4  and  C_6
REMARK    5  A    between atoms: C_19  and  O_20
REMARK    6  A    between atoms: O_20  and  C_21
REMARK    7  A    between atoms: C_21  and  C_22
REMARK                            x       y       z     vdW  Elec       q    Type
REMARK                         _______ _______ _______ _____ _____    ______ ____
ROOT
ATOM      1  C   UNL     1       2.776  -0.867  -1.200  0.00  0.00    +0.000 C 
ATOM      2  C   UNL     1       2.418   0.000   0.009  0.00  0.00    +0.000 C 
ENDROOT
BRANCH   2   3
ATOM      3  C   UNL     1       2.946   1.418  -0.125  0.00  0.00    +0.000 A 
ATOM      4  C   UNL     1       2.051   2.496  -0.071  0.00  0.00    +0.000 A 
ATOM      5  C   UNL     1       2.510   3.816  -0.134  0.00  0.00    +0.000 A 
ATOM      6  C   UNL     1       3.875   4.081  -0.243  0.00  0.00    +0.000 A 
ATOM      7  C   UNL     1       4.771   3.016  -0.322  0.00  0.00    +0.000 A 
ATOM      8  C   UNL     1       4.315   1.695  -0.256  0.00  0.00    +0.000 A 
BRANCH   6   9
ATOM      9  O   UNL     1       4.437   5.325  -0.317  0.00  0.00    +0.000 OA
BRANCH   9  10
ATOM     10  C   UNL     1       3.698   6.386   0.299  0.00  0.00    +0.000 C 
BRANCH  10  11
ATOM     11  C   UNL     1       4.437   7.702   0.170  0.00  0.00    +0.000 A 
ATOM     12  C   UNL     1       5.160   8.006  -0.983  0.00  0.00    +0.000 A 
ATOM     13  C   UNL     1       5.775   9.250  -1.090  0.00  0.00    +0.000 A 
ATOM     14  C   UNL     1       5.642  10.165  -0.054  0.00  0.00    +0.000 A 
ATOM     15  C   UNL     1       4.894   9.796   1.050  0.00  0.00    +0.000 A 
ATOM     16  N   UNL     1       4.288   8.595   1.183  0.00  0.00    +0.000 NA
ENDBRANCH  10  11
ENDBRANCH   9  10
ENDBRANCH   6   9
ENDBRANCH   2   3
BRANCH   2  17
ATOM     17  N   UNL     1       2.908  -0.592   1.239  0.00  0.00    +0.000 N 
ATOM     18  C   UNL     1       2.230  -1.573   1.911  0.00  0.00    +0.000 C 
ATOM     19  O   UNL     1       1.151  -2.008   1.518  0.00  0.00    +0.000 OA
ATOM     20  H   UNL     1       3.736  -0.178   1.654  0.00  0.00    +0.000 HD
BRANCH  18  21
ATOM     21  C   UNL     1       2.889  -2.127   3.101  0.00  0.00    +0.000 A 
ATOM     22  C   UNL     1       2.519  -3.381   3.566  0.00  0.00    +0.000 A 
ATOM     23  S   UNL     1       3.407  -3.896   4.927  0.00  0.00    +0.000 S 
ATOM     24  C   UNL     1       4.285  -2.439   4.973  0.00  0.00    +0.000 A 
ATOM     25  N   UNL     1       5.218  -2.218   5.938  0.00  0.00    +0.000 NA
ATOM     26  C   UNL     1       5.773  -1.053   5.884  0.00  0.00    +0.000 A 
ATOM     27  N   UNL     1       5.488  -0.093   4.948  0.00  0.00    +0.000 N 
ATOM     28  C   UNL     1       4.603  -0.299   3.915  0.00  0.00    +0.000 A 
ATOM     29  O   UNL     1       4.458   0.535   3.031  0.00  0.00    +0.000 OA
ATOM     30  C   UNL     1       3.919  -1.578   3.953  0.00  0.00    +0.000 A 
ATOM     31  H   UNL     1       5.974   0.790   4.947  0.00  0.00    +0.000 HD
ENDBRANCH  18  21
ENDBRANCH   2  17
TORSDOF 6
