REMARK  Name = 
REMARK  9 active torsions:
REMARK  status: ('A' for Active; 'I' for Inactive)
REMARK    1  A    between atoms: C_1  and  N_2
REMARK    2  A    between atoms: N_2  and  C_3
REMARK    3  A    between atoms: C_3  and  C_4
REMARK    4  A    between atoms: C_7  and  C_8
REMARK    5  A    between atoms: C_8  and  O_9
REMARK    6  A    between atoms: C_8  and  C_10
REMARK    7  A    between atoms: C_10  and  N_11
REMARK    8  A    between atoms: C_12  and  C_14
REMARK    9  A    between atoms: C_22  and  C_24
REMARK                            x       y       z     vdW  Elec       q    Type
REMARK                         _______ _______ _______ _____ _____    ______ ____
ROOT
ATOM      1  C   UNL     1      -1.101  -4.216  -6.454  0.00  0.00    +0.000 A 
ATOM      2  C   UNL     1      -1.513  -3.377  -5.409  0.00  0.00    +0.000 A 
ATOM      3  C   UNL     1      -1.220  -3.703  -4.084  0.00  0.00    +0.000 A 
ATOM      4  C   UNL     1      -0.519  -4.878  -3.774  0.00  0.00    +0.000 A 
ATOM      5  C   UNL     1      -0.033  -5.663  -4.832  0.00  0.00    +0.000 A 
ATOM      6  C   UNL     1      -0.319  -5.335  -6.158  0.00  0.00    +0.000 A 
ENDROOT
BRANCH   1   7
ATOM      7  C   UNL     1      -1.557  -3.961  -7.865  0.00  0.00    +0.000 C 
BRANCH   7   9
ATOM      8  C   UNL     1       0.482  -2.510  -8.270  0.00  0.00    +0.000 C 
ATOM      9  N   UNL     1      -0.687  -3.221  -8.775  0.00  0.00    +0.000 N 
ATOM     10  C   UNL     1      -0.928  -3.100 -10.159  0.00  0.00    +0.000 C 
ATOM     11  O   UNL     1      -0.164  -2.451 -10.872  0.00  0.00    +0.000 OA
BRANCH  10  12
ATOM     12  C   UNL     1      -2.117  -3.728 -10.765  0.00  0.00    +0.000 A 
ATOM     13  C   UNL     1      -3.399  -3.688 -10.238  0.00  0.00    +0.000 A 
ATOM     14  S   UNL     1      -4.574  -4.465 -11.200  0.00  0.00    +0.000 S 
ATOM     15  C   UNL     1      -3.444  -4.744 -12.436  0.00  0.00    +0.000 A 
ATOM     16  N   UNL     1      -3.831  -5.289 -13.616  0.00  0.00    +0.000 NA
ATOM     17  C   UNL     1      -2.887  -5.376 -14.493  0.00  0.00    +0.000 A 
ATOM     18  N   UNL     1      -1.586  -5.010 -14.275  0.00  0.00    +0.000 N 
ATOM     19  C   UNL     1      -1.112  -4.585 -13.053  0.00  0.00    +0.000 A 
ATOM     20  O   UNL     1       0.086  -4.509 -12.822  0.00  0.00    +0.000 OA
ATOM     21  C   UNL     1      -2.169  -4.351 -12.073  0.00  0.00    +0.000 A 
ATOM     22  H   UNL     1      -0.880  -5.172 -14.978  0.00  0.00    +0.000 HD
ENDBRANCH  10  12
ENDBRANCH   7   9
ENDBRANCH   1   7
BRANCH   4  23
ATOM     23  C   UNL     1      -0.293  -5.243  -2.316  0.00  0.00    +0.000 C 
BRANCH  23  24
ATOM     24  O   UNL     1       0.946  -4.666  -1.885  0.00  0.00    +0.000 OA
ATOM     25  H   UNL     1       1.524  -4.604  -2.664  0.00  0.00    +0.000 HD
ENDBRANCH  23  24
BRANCH  23  26
ATOM     26  C   UNL     1      -0.256  -6.762  -2.044  0.00  0.00    +0.000 C 
BRANCH  26  27
ATOM     27  N   UNL     1      -0.122  -7.087  -0.637  0.00  0.00    +0.000 N 
ATOM     28  C   UNL     1      -1.201  -7.211   0.207  0.00  0.00    +0.000 C 
ATOM     29  O   UNL     1      -2.361  -7.075  -0.168  0.00  0.00    +0.000 OA
ATOM     30  H   UNL     1       0.791  -7.040  -0.192  0.00  0.00    +0.000 HD
BRANCH  28  31
ATOM     31  C   UNL     1      -0.840  -7.503   1.679  0.00  0.00    +0.000 C 
ATOM     32  C   UNL     1      -0.796  -6.199   2.482  0.00  0.00    +0.000 C 
ATOM     33  C   UNL     1      -0.375  -6.451   3.929  0.00  0.00    +0.000 C 
ATOM     34  C   UNL     1       0.910  -7.271   3.989  0.00  0.00    +0.000 C 
ATOM     35  C   UNL     1       0.800  -8.534   3.139  0.00  0.00    +0.000 C 
ATOM     36  N   UNL     1       0.470  -8.206   1.751  0.00  0.00    +0.000 NA
ATOM     37  H   UNL     1       0.389  -9.074   1.218  0.00  0.00    +0.000 HD
ENDBRANCH  28  31
ENDBRANCH  26  27
ENDBRANCH  23  26
ENDBRANCH   4  23
TORSDOF 8
