REMARK  Name = 
REMARK  6 active torsions:
REMARK  status: ('A' for Active; 'I' for Inactive)
REMARK    1  A    between atoms: C_2  and  C_25
REMARK    2  A    between atoms: N_3  and  C_4
REMARK    3  A    between atoms: C_4  and  C_5
REMARK    4  A    between atoms: C_8  and  C_9
REMARK    5  A    between atoms: C_9  and  N_10
REMARK    6  A    between atoms: C_11  and  C_13
REMARK                            x       y       z     vdW  Elec       q    Type
REMARK                         _______ _______ _______ _____ _____    ______ ____
ROOT
ATOM      1  C   UNL     1       3.320   1.843  -3.175  0.00  0.00    +0.000 A 
ATOM      2  C   UNL     1       3.295   3.222  -3.374  0.00  0.00    +0.000 A 
ATOM      3  C   UNL     1       4.127   3.782  -4.343  0.00  0.00    +0.000 A 
ATOM      4  C   UNL     1       4.988   2.965  -5.078  0.00  0.00    +0.000 A 
ATOM      5  C   UNL     1       4.950   1.602  -4.807  0.00  0.00    +0.000 A 
ATOM      6  N   UNL     1       4.150   1.028  -3.876  0.00  0.00    +0.000 NA
ENDROOT
BRANCH   1   7
ATOM      7  C   UNL     1       2.392   1.207  -2.167  0.00  0.00    +0.000 C 
BRANCH   7  10
ATOM      8  O   UNL     1       0.869   1.327   0.196  0.00  0.00    +0.000 OA
ATOM      9  C   UNL     1       2.090   1.210   0.273  0.00  0.00    +0.000 C 
ATOM     10  N   UNL     1       2.924   1.213  -0.822  0.00  0.00    +0.000 N 
ATOM     11  H   UNL     1       3.895   0.955  -0.666  0.00  0.00    +0.000 HD
BRANCH   9  12
ATOM     12  C   UNL     1       2.759   1.057   1.606  0.00  0.00    +0.000 A 
ATOM     13  C   UNL     1       1.982   1.053   2.761  0.00  0.00    +0.000 A 
ATOM     14  C   UNL     1       2.624   0.933   3.989  0.00  0.00    +0.000 A 
ATOM     15  C   UNL     1       4.010   0.823   4.021  0.00  0.00    +0.000 A 
ATOM     16  C   UNL     1       4.703   0.832   2.818  0.00  0.00    +0.000 A 
ATOM     17  N   UNL     1       4.116   0.943   1.605  0.00  0.00    +0.000 NA
ENDBRANCH   9  12
ENDBRANCH   7  10
ENDBRANCH   1   7
BRANCH   4  18
ATOM     18  C   UNL     1       5.888   3.524  -6.140  0.00  0.00    +0.000 C 
BRANCH  18  19
ATOM     19  N   UNL     1       5.241   3.542  -7.428  0.00  0.00    +0.000 N 
ATOM     20  C   UNL     1       5.929   3.892  -8.564  0.00  0.00    +0.000 C 
ATOM     21  O   UNL     1       7.127   4.159  -8.540  0.00  0.00    +0.000 OA
ATOM     22  H   UNL     1       4.226   3.562  -7.440  0.00  0.00    +0.000 HD
BRANCH  20  23
ATOM     23  C   UNL     1       5.175   3.866  -9.825  0.00  0.00    +0.000 A 
ATOM     24  C   UNL     1       5.852   3.717 -11.028  0.00  0.00    +0.000 A 
ATOM     25  S   UNL     1       4.825   3.656 -12.389  0.00  0.00    +0.000 S 
ATOM     26  C   UNL     1       3.442   3.881 -11.424  0.00  0.00    +0.000 A 
ATOM     27  N   UNL     1       2.204   3.951 -11.982  0.00  0.00    +0.000 NA
ATOM     28  C   UNL     1       1.249   4.153 -11.138  0.00  0.00    +0.000 A 
ATOM     29  N   UNL     1       1.419   4.286  -9.783  0.00  0.00    +0.000 N 
ATOM     30  C   UNL     1       2.647   4.193  -9.173  0.00  0.00    +0.000 A 
ATOM     31  O   UNL     1       2.761   4.275  -7.954  0.00  0.00    +0.000 OA
ATOM     32  C   UNL     1       3.757   3.980 -10.080  0.00  0.00    +0.000 A 
ATOM     33  H   UNL     1       0.626   4.435  -9.176  0.00  0.00    +0.000 HD
ENDBRANCH  20  23
ENDBRANCH  18  19
ENDBRANCH   4  18
TORSDOF 6
