REMARK  Name = 
REMARK  9 active torsions:
REMARK  status: ('A' for Active; 'I' for Inactive)
REMARK    1  A    between atoms: N_1  and  C_2
REMARK    2  A    between atoms: C_2  and  C_3
REMARK    3  A    between atoms: C_3  and  N_4
REMARK    4  A    between atoms: C_3  and  C_17
REMARK    5  A    between atoms: C_5  and  C_7
REMARK    6  A    between atoms: C_20  and  C_21
REMARK    7  A    between atoms: C_21  and  N_22
REMARK    8  A    between atoms: N_22  and  C_23
REMARK    9  A    between atoms: C_23  and  C_24
REMARK                            x       y       z     vdW  Elec       q    Type
REMARK                         _______ _______ _______ _____ _____    ______ ____
ROOT
ATOM      1  C   UNL     1       2.771  -0.312  -1.407  0.00  0.00    +0.000 C 
ENDROOT
BRANCH   1   2
ATOM      2  C   UNL     1       4.299  -0.297  -1.325  0.00  0.00    +0.000 A 
ATOM      3  C   UNL     1       5.001   0.915  -1.298  0.00  0.00    +0.000 A 
ATOM      4  C   UNL     1       6.398   0.927  -1.238  0.00  0.00    +0.000 A 
ATOM      5  C   UNL     1       7.122  -0.273  -1.180  0.00  0.00    +0.000 A 
ATOM      6  C   UNL     1       6.423  -1.485  -1.207  0.00  0.00    +0.000 A 
ATOM      7  C   UNL     1       5.031  -1.497  -1.281  0.00  0.00    +0.000 A 
BRANCH   5   8
ATOM      8  C   UNL     1       8.629  -0.275  -1.072  0.00  0.00    +0.000 C 
BRANCH   8   9
ATOM      9  N   UNL     1       9.152   0.431   0.098  0.00  0.00    +0.000 NA
ATOM     10  H   UNL     1       8.835   1.399   0.073  0.00  0.00    +0.000 HD
BRANCH   9  11
ATOM     11  C   UNL     1       8.699  -0.158   1.367  0.00  0.00    +0.000 C 
BRANCH  11  12
ATOM     12  C   UNL     1       9.259   0.608   2.554  0.00  0.00    +0.000 A 
ATOM     13  C   UNL     1      10.638   0.704   2.731  0.00  0.00    +0.000 A 
ATOM     14  C   UNL     1      11.135   1.454   3.793  0.00  0.00    +0.000 A 
ATOM     15  C   UNL     1      10.243   2.086   4.650  0.00  0.00    +0.000 A 
ATOM     16  C   UNL     1       8.891   1.932   4.403  0.00  0.00    +0.000 A 
ATOM     17 CL   UNL     1       7.722   2.679   5.414  0.00  0.00    +0.000 Cl
ATOM     18  N   UNL     1       8.373   1.213   3.386  0.00  0.00    +0.000 NA
ENDBRANCH  11  12
ENDBRANCH   9  11
ENDBRANCH   8   9
ENDBRANCH   5   8
ENDBRANCH   1   2
BRANCH   1  19
ATOM     19  N   UNL     1       2.259  -1.005  -0.235  0.00  0.00    +0.000 N 
ATOM     20  C   UNL     1       0.926  -1.102   0.070  0.00  0.00    +0.000 C 
ATOM     21  O   UNL     1       0.032  -0.720  -0.674  0.00  0.00    +0.000 OA
ATOM     22  H   UNL     1       2.920  -1.084   0.529  0.00  0.00    +0.000 HD
BRANCH  20  23
ATOM     23  C   UNL     1       0.627  -1.772   1.341  0.00  0.00    +0.000 A 
ATOM     24  C   UNL     1      -0.529  -2.519   1.496  0.00  0.00    +0.000 A 
ATOM     25  S   UNL     1      -0.672  -3.219   3.051  0.00  0.00    +0.000 S 
ATOM     26  C   UNL     1       0.785  -2.508   3.572  0.00  0.00    +0.000 A 
ATOM     27  N   UNL     1       1.246  -2.672   4.837  0.00  0.00    +0.000 NA
ATOM     28  C   UNL     1       2.347  -2.046   5.094  0.00  0.00    +0.000 A 
ATOM     29  N   UNL     1       3.039  -1.283   4.195  0.00  0.00    +0.000 N 
ATOM     30  C   UNL     1       2.636  -1.121   2.892  0.00  0.00    +0.000 A 
ATOM     31  O   UNL     1       3.324  -0.501   2.086  0.00  0.00    +0.000 OA
ATOM     32  C   UNL     1       1.388  -1.775   2.563  0.00  0.00    +0.000 A 
ATOM     33  H   UNL     1       3.913  -0.837   4.443  0.00  0.00    +0.000 HD
ENDBRANCH  20  23
ENDBRANCH   1  19
BRANCH   1  34
ATOM     34  C   UNL     1       2.293  -0.982  -2.726  0.00  0.00    +0.000 C 
BRANCH  34  35
ATOM     35  N   UNL     1       2.795  -0.347  -3.952  0.00  0.00    +0.000 NA
ATOM     36  H   UNL     1       2.707  -1.013  -4.718  0.00  0.00    +0.000 HD
ATOM     37  H   UNL     1       3.793  -0.158  -3.853  0.00  0.00    +0.000 HD
ENDBRANCH  34  35
ENDBRANCH   1  34
TORSDOF 9
