REMARK  Name = 
REMARK  6 active torsions:
REMARK  status: ('A' for Active; 'I' for Inactive)
REMARK    1  A    between atoms: C_1  and  C_2
REMARK    2  A    between atoms: C_5  and  C_6
REMARK    3  A    between atoms: C_6  and  C_7
REMARK    4  A    between atoms: C_10  and  C_11
REMARK    5  A    between atoms: C_11  and  N_12
REMARK    6  A    between atoms: C_13  and  C_15
REMARK                            x       y       z     vdW  Elec       q    Type
REMARK                         _______ _______ _______ _____ _____    ______ ____
ROOT
ATOM      1  C   UNL     1      -6.012  -4.954   0.628  0.00  0.00    +0.000 C 
ENDROOT
BRANCH   1   5
ATOM      2  C   UNL     1      -3.717  -1.303   1.054  0.00  0.00    +0.000 A 
ATOM      3  C   UNL     1      -3.171  -2.540   1.424  0.00  0.00    +0.000 A 
ATOM      4  C   UNL     1      -3.912  -3.718   1.296  0.00  0.00    +0.000 A 
ATOM      5  C   UNL     1      -5.227  -3.682   0.819  0.00  0.00    +0.000 A 
ATOM      6  C   UNL     1      -5.804  -2.436   0.534  0.00  0.00    +0.000 A 
ATOM      7  C   UNL     1      -5.052  -1.260   0.634  0.00  0.00    +0.000 A 
BRANCH   2   8
ATOM      8  C   UNL     1      -2.860  -0.055   1.077  0.00  0.00    +0.000 C 
BRANCH   8  13
ATOM      9  C   UNL     1       1.606   0.633  -0.634  0.00  0.00    +0.000 C 
ATOM     10  C   UNL     1       0.465   0.736  -1.653  0.00  0.00    +0.000 C 
ATOM     11  C   UNL     1      -0.258  -0.602  -1.824  0.00  0.00    +0.000 C 
ATOM     12  C   UNL     1      -1.139  -0.932  -0.619  0.00  0.00    +0.000 C 
ATOM     13  C   UNL     1      -2.087   0.224  -0.242  0.00  0.00    +0.000 C 
ATOM     14  N   UNL     1      -1.339   1.491  -0.087  0.00  0.00    +0.000 NA
ATOM     15  C   UNL     1      -0.556   1.820  -1.283  0.00  0.00    +0.000 C 
ATOM     16  H   UNL     1      -0.710   1.415   0.712  0.00  0.00    +0.000 HD
ENDBRANCH   8  13
ENDBRANCH   2   8
ENDBRANCH   1   5
BRANCH   1  17
ATOM     17  N   UNL     1      -6.728  -5.318   1.823  0.00  0.00    +0.000 N 
ATOM     18  C   UNL     1      -7.453  -6.481   1.895  0.00  0.00    +0.000 C 
ATOM     19  O   UNL     1      -7.494  -7.285   0.969  0.00  0.00    +0.000 OA
ATOM     20  H   UNL     1      -6.899  -4.579   2.496  0.00  0.00    +0.000 HD
BRANCH  18  21
ATOM     21  C   UNL     1      -8.132  -6.745   3.170  0.00  0.00    +0.000 A 
ATOM     22  C   UNL     1      -8.424  -8.051   3.540  0.00  0.00    +0.000 A 
ATOM     23  S   UNL     1      -9.179  -8.177   5.065  0.00  0.00    +0.000 S 
ATOM     24  C   UNL     1      -9.187  -6.486   5.261  0.00  0.00    +0.000 A 
ATOM     25  N   UNL     1      -9.735  -5.912   6.366  0.00  0.00    +0.000 NA
ATOM     26  C   UNL     1      -9.696  -4.622   6.371  0.00  0.00    +0.000 A 
ATOM     27  N   UNL     1      -9.152  -3.853   5.376  0.00  0.00    +0.000 N 
ATOM     28  C   UNL     1      -8.559  -4.389   4.258  0.00  0.00    +0.000 A 
ATOM     29  O   UNL     1      -8.032  -3.674   3.412  0.00  0.00    +0.000 OA
ATOM     30  C   UNL     1      -8.596  -5.837   4.192  0.00  0.00    +0.000 A 
ATOM     31  H   UNL     1      -9.139  -2.846   5.446  0.00  0.00    +0.000 HD
ENDBRANCH  18  21
ENDBRANCH   1  17
TORSDOF 5
