REMARK  Name = 
REMARK  9 active torsions:
REMARK  status: ('A' for Active; 'I' for Inactive)
REMARK    1  A    between atoms: N_1  and  C_2
REMARK    2  A    between atoms: C_2  and  C_3
REMARK    3  A    between atoms: C_3  and  N_4
REMARK    4  A    between atoms: N_4  and  C_5
REMARK    5  A    between atoms: C_5  and  C_6
REMARK    6  A    between atoms: C_9  and  C_10
REMARK    7  A    between atoms: C_10  and  N_11
REMARK    8  A    between atoms: C_12  and  C_14
REMARK    9  A    between atoms: C_26  and  C_28
REMARK                            x       y       z     vdW  Elec       q    Type
REMARK                         _______ _______ _______ _____ _____    ______ ____
ROOT
ATOM      1  C   UNL     1       4.363  -0.142  -1.205  0.00  0.00    +0.000 A 
ATOM      2  C   UNL     1       4.038  -1.440  -1.622  0.00  0.00    +0.000 A 
ATOM      3  C   UNL     1       3.091  -1.646  -2.630  0.00  0.00    +0.000 A 
ATOM      4  C   UNL     1       2.469  -0.557  -3.257  0.00  0.00    +0.000 A 
ATOM      5  C   UNL     1       2.849   0.741  -2.888  0.00  0.00    +0.000 A 
ATOM      6  C   UNL     1       3.794   0.948  -1.878  0.00  0.00    +0.000 A 
ENDROOT
BRANCH   1   7
ATOM      7  C   UNL     1       5.124   0.062   0.082  0.00  0.00    +0.000 C 
BRANCH   7   8
ATOM      8  N   UNL     1       6.578   0.202   0.115  0.00  0.00    +0.000 N 
ATOM      9  C   UNL     1       7.218   0.679   1.285  0.00  0.00    +0.000 C 
ATOM     10  O   UNL     1       8.402   1.027   1.247  0.00  0.00    +0.000 OA
BRANCH   9  11
ATOM     11  C   UNL     1       6.449   0.830   2.523  0.00  0.00    +0.000 A 
ATOM     12  C   UNL     1       6.649   1.676   3.602  0.00  0.00    +0.000 A 
ATOM     13  C   UNL     1       5.592   1.444   4.517  0.00  0.00    +0.000 A 
ATOM     14  C   UNL     1       4.829   0.444   3.969  0.00  0.00    +0.000 A 
ATOM     15  O   UNL     1       5.348   0.054   2.780  0.00  0.00    +0.000 OA
ENDBRANCH   9  11
BRANCH   8  16
ATOM     16  C   UNL     1       7.388   0.083  -1.104  0.00  0.00    +0.000 C 
BRANCH  16  17
ATOM     17  C   UNL     1       8.503  -0.989  -1.047  0.00  0.00    +0.000 C 
BRANCH  17  18
ATOM     18  N   UNL     1       8.000  -2.366  -0.984  0.00  0.00    +0.000 NA
ATOM     19  H   UNL     1       8.796  -2.994  -0.862  0.00  0.00    +0.000 HD
ATOM     20  H   UNL     1       7.585  -2.613  -1.881  0.00  0.00    +0.000 HD
ENDBRANCH  17  18
ENDBRANCH  16  17
ENDBRANCH   8  16
ENDBRANCH   7   8
ENDBRANCH   1   7
BRANCH   4  21
ATOM     21  C   UNL     1       1.328  -0.772  -4.221  0.00  0.00    +0.000 C 
BRANCH  21  22
ATOM     22  N   UNL     1       0.066  -0.767  -3.516  0.00  0.00    +0.000 N 
ATOM     23  C   UNL     1      -1.120  -1.050  -4.143  0.00  0.00    +0.000 C 
ATOM     24  O   UNL     1      -1.168  -1.356  -5.330  0.00  0.00    +0.000 OA
ATOM     25  H   UNL     1       0.054  -0.318  -2.606  0.00  0.00    +0.000 HD
BRANCH  23  26
ATOM     26  C   UNL     1      -2.329  -1.017  -3.307  0.00  0.00    +0.000 A 
ATOM     27  C   UNL     1      -3.462  -1.707  -3.713  0.00  0.00    +0.000 A 
ATOM     28  S   UNL     1      -4.755  -1.625  -2.602  0.00  0.00    +0.000 S 
ATOM     29  C   UNL     1      -3.865  -0.615  -1.562  0.00  0.00    +0.000 A 
ATOM     30  N   UNL     1      -4.411  -0.149  -0.406  0.00  0.00    +0.000 NA
ATOM     31  C   UNL     1      -3.640   0.633   0.273  0.00  0.00    +0.000 A 
ATOM     32  N   UNL     1      -2.367   0.988  -0.101  0.00  0.00    +0.000 N 
ATOM     33  C   UNL     1      -1.767   0.523  -1.246  0.00  0.00    +0.000 A 
ATOM     34  O   UNL     1      -0.616   0.837  -1.530  0.00  0.00    +0.000 OA
ATOM     35  C   UNL     1      -2.596  -0.356  -2.049  0.00  0.00    +0.000 A 
ATOM     36  H   UNL     1      -1.814   1.604   0.477  0.00  0.00    +0.000 HD
ENDBRANCH  23  26
ENDBRANCH  21  22
ENDBRANCH   4  21
TORSDOF 9
