REMARK  Name = 
REMARK  9 active torsions:
REMARK  status: ('A' for Active; 'I' for Inactive)
REMARK    1  A    between atoms: C_1  and  C_2
REMARK    2  A    between atoms: C_3  and  C_4
REMARK    3  A    between atoms: C_4  and  C_5
REMARK    4  A    between atoms: C_4  and  C_6
REMARK    5  A    between atoms: C_4  and  C_17
REMARK    6  A    between atoms: C_6  and  N_7
REMARK    7  A    between atoms: C_11  and  C_12
REMARK    8  A    between atoms: C_21  and  O_22
REMARK    9  A    between atoms: O_22  and  C_23
REMARK                            x       y       z     vdW  Elec       q    Type
REMARK                         _______ _______ _______ _____ _____    ______ ____
ROOT
ATOM      1  C   UNL     1       1.688   1.282   1.364  0.00  0.00    +0.000 C 
ENDROOT
BRANCH   1   2
ATOM      2  N   UNL     1       0.904   2.505   1.532  0.00  0.00    +0.000 N 
ATOM      3  C   UNL     1       1.038   3.276   2.665  0.00  0.00    +0.000 A 
ATOM      4  C   UNL     1       2.226   3.379   3.376  0.00  0.00    +0.000 A 
ATOM      5  C   UNL     1       2.304   4.234   4.472  0.00  0.00    +0.000 A 
ATOM      6  C   UNL     1       1.199   5.002   4.828  0.00  0.00    +0.000 A 
ATOM      7  C   UNL     1       0.053   4.844   4.065  0.00  0.00    +0.000 A 
ATOM      8  N   UNL     1      -0.049   3.995   3.009  0.00  0.00    +0.000 NA
ATOM      9  H   UNL     1      -0.083   2.443   1.286  0.00  0.00    +0.000 HD
BRANCH   6  10
ATOM     10  C   UNL     1       1.320   5.938   5.970  0.00  0.00    +0.000 C 
ATOM     11  N   UNL     1       0.245   6.703   6.322  0.00  0.00    +0.000 N 
ATOM     12  O   UNL     1       2.370   6.038   6.596  0.00  0.00    +0.000 OA
ATOM     13  H   UNL     1      -0.658   6.704   5.875  0.00  0.00    +0.000 HD
ATOM     14  H   UNL     1       0.384   7.337   7.099  0.00  0.00    +0.000 HD
ENDBRANCH   6  10
ENDBRANCH   1   2
BRANCH   1  15
ATOM     15  C   UNL     1       1.415   0.567  -0.003  0.00  0.00    +0.000 C 
ATOM     16  C   UNL     1       2.286  -0.709  -0.036  0.00  0.00    +0.000 C 
BRANCH  15  17
ATOM     17  C   UNL     1       1.744   1.434  -1.239  0.00  0.00    +0.000 A 
ATOM     18  C   UNL     1       1.032   1.275  -2.444  0.00  0.00    +0.000 A 
ATOM     19  C   UNL     1       1.290   2.081  -3.555  0.00  0.00    +0.000 A 
ATOM     20  C   UNL     1       2.276   3.062  -3.498  0.00  0.00    +0.000 A 
ATOM     21  C   UNL     1       3.008   3.236  -2.327  0.00  0.00    +0.000 A 
ATOM     22  C   UNL     1       2.761   2.409  -1.223  0.00  0.00    +0.000 A 
BRANCH  21  23
ATOM     23  O   UNL     1       4.006   4.159  -2.158  0.00  0.00    +0.000 OA
ATOM     24  C   UNL     1       3.869   5.352  -2.924  0.00  0.00    +0.000 C 
ENDBRANCH  21  23
ENDBRANCH  15  17
BRANCH  15  27
ATOM     25  C   UNL     1      -2.642  -0.305  -0.010  0.00  0.00    +0.000 C 
ATOM     26  C   UNL     1      -1.195  -0.090   0.002  0.00  0.00    +0.000 C 
ATOM     27  C   UNL     1      -0.021   0.156   0.000  0.00  0.00    +0.000 C 
ENDBRANCH  15  27
ENDBRANCH   1  15
TORSDOF 6
