REMARK  Name = 
REMARK  4 active torsions:
REMARK  status: ('A' for Active; 'I' for Inactive)
REMARK    1  A    between atoms: C_2  and  C_4
REMARK    2  A    between atoms: C_7  and  O_8
REMARK    3  A    between atoms: O_8  and  C_9
REMARK    4  A    between atoms: C_9  and  C_10
REMARK                            x       y       z     vdW  Elec       q    Type
REMARK                         _______ _______ _______ _____ _____    ______ ____
ROOT
ATOM      1  C   UNL     1       2.952  -0.753  -1.392  0.00  0.00    +0.000 A 
ATOM      2  C   UNL     1       3.407  -1.672  -0.456  0.00  0.00    +0.000 A 
ATOM      3  C   UNL     1       4.129  -2.774  -0.913  0.00  0.00    +0.000 A 
ATOM      4  C   UNL     1       4.360  -2.926  -2.279  0.00  0.00    +0.000 A 
ATOM      5  C   UNL     1       3.899  -1.927  -3.131  0.00  0.00    +0.000 A 
ATOM      6  N   UNL     1       3.188  -0.851  -2.731  0.00  0.00    +0.000 NA
ENDROOT
BRANCH   1   8
ATOM      7  N   UNL     1       1.668   1.206  -1.986  0.00  0.00    +0.000 N 
ATOM      8  C   UNL     1       2.138   0.426  -0.965  0.00  0.00    +0.000 C 
ATOM      9  O   UNL     1       1.896   0.675   0.209  0.00  0.00    +0.000 OA
ATOM     10  H   UNL     1       1.097   2.013  -1.782  0.00  0.00    +0.000 HD
ATOM     11  H   UNL     1       1.871   0.945  -2.944  0.00  0.00    +0.000 HD
ENDBRANCH   1   8
BRANCH   4  12
ATOM     12  O   UNL     1       5.019  -4.059  -2.666  0.00  0.00    +0.000 OA
BRANCH  12  13
ATOM     13  C   UNL     1       4.797  -4.436  -4.028  0.00  0.00    +0.000 C 
BRANCH  13  14
ATOM     14  C   UNL     1       5.117  -5.896  -4.208  0.00  0.00    +0.000 A 
ATOM     15  C   UNL     1       4.099  -6.803  -4.535  0.00  0.00    +0.000 A 
ATOM     16  C   UNL     1       4.390  -8.153  -4.719  0.00  0.00    +0.000 A 
ATOM     17  C   UNL     1       5.699  -8.608  -4.576  0.00  0.00    +0.000 A 
ATOM     18  C   UNL     1       6.718  -7.714  -4.249  0.00  0.00    +0.000 A 
ATOM     19  C   UNL     1       6.429  -6.362  -4.064  0.00  0.00    +0.000 A 
ENDBRANCH  13  14
ENDBRANCH  12  13
ENDBRANCH   4  12
TORSDOF 4
