REMARK  Name = 
REMARK  6 active torsions:
REMARK  status: ('A' for Active; 'I' for Inactive)
REMARK    1  A    between atoms: C_2  and  C_3
REMARK    2  A    between atoms: C_6  and  N_7
REMARK    3  A    between atoms: N_7  and  C_8
REMARK    4  A    between atoms: C_8  and  C_9
REMARK    5  A    between atoms: C_14  and  C_15
REMARK    6  A    between atoms: C_19  and  C_20
REMARK                            x       y       z     vdW  Elec       q    Type
REMARK                         _______ _______ _______ _____ _____    ______ ____
ROOT
ATOM      1  C   UNL     1       5.462  -0.175   0.977  0.00  0.00    +0.000 A 
ATOM      2  C   UNL     1       6.035   0.928   0.326  0.00  0.00    +0.000 A 
ATOM      3  C   UNL     1       6.648   1.938   1.047  0.00  0.00    +0.000 A 
ATOM      4  F   UNL     1       7.116   3.015   0.402  0.00  0.00    +0.000 F 
ATOM      5  C   UNL     1       6.745   1.873   2.428  0.00  0.00    +0.000 A 
ATOM      6  C   UNL     1       6.260   0.756   3.122  0.00  0.00    +0.000 A 
ATOM      7  C   UNL     1       5.636  -0.263   2.371  0.00  0.00    +0.000 A 
ENDROOT
BRANCH   6   8
ATOM      8  C   UNL     1       6.372   0.663   4.588  0.00  0.00    +0.000 A 
ATOM      9  C   UNL     1       6.202   1.774   5.419  0.00  0.00    +0.000 A 
ATOM     10  N   UNL     1       6.321   1.758   6.768  0.00  0.00    +0.000 NA
ATOM     11  C   UNL     1       6.614   0.566   7.338  0.00  0.00    +0.000 A 
ATOM     12  C   UNL     1       6.789  -0.612   6.628  0.00  0.00    +0.000 A 
ATOM     13  C   UNL     1       6.660  -0.548   5.235  0.00  0.00    +0.000 A 
BRANCH  12  14
ATOM     14  C   UNL     1       7.086  -1.920   7.259  0.00  0.00    +0.000 C 
ATOM     15  N   UNL     1       7.281  -1.979   8.609  0.00  0.00    +0.000 N 
ATOM     16  O   UNL     1       7.157  -2.942   6.585  0.00  0.00    +0.000 OA
ATOM     17  H   UNL     1       7.277  -1.198   9.246  0.00  0.00    +0.000 HD
ATOM     18  H   UNL     1       7.496  -2.891   8.993  0.00  0.00    +0.000 HD
ENDBRANCH  12  14
ENDBRANCH   6   8
BRANCH   1  19
ATOM     19  C   UNL     1       4.574  -1.146   0.208  0.00  0.00    +0.000 C 
ATOM     20  C   UNL     1       3.253  -1.620   0.812  0.00  0.00    +0.000 C 
ATOM     21  C   UNL     1       3.245  -0.543  -0.215  0.00  0.00    +0.000 C 
BRANCH  19  22
ATOM     22  N   UNL     1       5.284  -2.222  -0.492  0.00  0.00    +0.000 N 
ATOM     23  H   UNL     1       5.791  -2.872   0.102  0.00  0.00    +0.000 HD
BRANCH  22  27
ATOM     24  C   UNL     1       6.592  -2.462  -4.506  0.00  0.00    +0.000 A 
ATOM     25  C   UNL     1       6.033  -1.271  -4.038  0.00  0.00    +0.000 A 
ATOM     26  C   UNL     1       5.588  -1.168  -2.712  0.00  0.00    +0.000 A 
ATOM     27  C   UNL     1       5.745  -2.228  -1.821  0.00  0.00    +0.000 A 
ATOM     28  C   UNL     1       6.292  -3.425  -2.310  0.00  0.00    +0.000 A 
ATOM     29  C   UNL     1       6.711  -3.546  -3.640  0.00  0.00    +0.000 A 
BRANCH  24  31
ATOM     30  N   UNL     1       7.358  -2.674  -6.974  0.00  0.00    +0.000 NA
ATOM     31  C   UNL     1       7.016  -2.573  -5.868  0.00  0.00    +0.000 C 
ENDBRANCH  24  31
ENDBRANCH  22  27
ENDBRANCH  19  22
ENDBRANCH   1  19
TORSDOF 6
