REMARK  Name = 
REMARK  9 active torsions:
REMARK  status: ('A' for Active; 'I' for Inactive)
REMARK    1  A    between atoms: C_2  and  C_22
REMARK    2  A    between atoms: N_3  and  C_4
REMARK    3  A    between atoms: C_4  and  C_5
REMARK    4  A    between atoms: C_8  and  C_9
REMARK    5  A    between atoms: C_9  and  C_10
REMARK    6  A    between atoms: C_10  and  C_11
REMARK    7  A    between atoms: C_10  and  C_13
REMARK    8  A    between atoms: C_11  and  O_12
REMARK    9  A    between atoms: C_13  and  C_14
REMARK                            x       y       z     vdW  Elec       q    Type
REMARK                         _______ _______ _______ _____ _____    ______ ____
ROOT
ATOM      1  C   UNL     1       3.319   0.759   3.481  0.00  0.00    +0.000 A 
ATOM      2  C   UNL     1       3.737   2.080   3.678  0.00  0.00    +0.000 A 
ATOM      3  C   UNL     1       4.600   2.406   4.724  0.00  0.00    +0.000 A 
ATOM      4  C   UNL     1       5.035   1.422   5.620  0.00  0.00    +0.000 A 
ATOM      5  C   UNL     1       4.689   0.087   5.371  0.00  0.00    +0.000 A 
ATOM      6  C   UNL     1       3.849  -0.244   4.302  0.00  0.00    +0.000 A 
ENDROOT
BRANCH   1   7
ATOM      7  C   UNL     1       2.329   0.448   2.389  0.00  0.00    +0.000 C 
BRANCH   7  10
ATOM      8  O   UNL     1       2.898   2.340   0.396  0.00  0.00    +0.000 OA
ATOM      9  C   UNL     1       3.271   1.181   0.249  0.00  0.00    +0.000 C 
ATOM     10  N   UNL     1       2.979   0.185   1.142  0.00  0.00    +0.000 N 
ATOM     11  H   UNL     1       3.486  -0.694   1.088  0.00  0.00    +0.000 HD
BRANCH   9  12
ATOM     12  C   UNL     1       4.026   0.771  -0.931  0.00  0.00    +0.000 A 
ATOM     13  C   UNL     1       3.893   1.465  -2.128  0.00  0.00    +0.000 A 
ATOM     14  S   UNL     1       4.887   0.861  -3.376  0.00  0.00    +0.000 S 
ATOM     15  C   UNL     1       5.546  -0.327  -2.352  0.00  0.00    +0.000 A 
ATOM     16  N   UNL     1       6.510  -1.181  -2.790  0.00  0.00    +0.000 NA
ATOM     17  C   UNL     1       6.941  -2.001  -1.891  0.00  0.00    +0.000 A 
ATOM     18  N   UNL     1       6.480  -2.067  -0.601  0.00  0.00    +0.000 N 
ATOM     19  C   UNL     1       5.449  -1.289  -0.142  0.00  0.00    +0.000 A 
ATOM     20  O   UNL     1       4.953  -1.490   0.960  0.00  0.00    +0.000 OA
ATOM     21  C   UNL     1       4.980  -0.297  -1.090  0.00  0.00    +0.000 A 
ATOM     22  H   UNL     1       6.826  -2.769   0.038  0.00  0.00    +0.000 HD
ENDBRANCH   9  12
ENDBRANCH   7  10
ENDBRANCH   1   7
BRANCH   4  23
ATOM     23  C   UNL     1       5.838   1.804   6.847  0.00  0.00    +0.000 C 
BRANCH  23  24
ATOM     24  C   UNL     1       5.096   2.789   7.791  0.00  0.00    +0.000 C 
BRANCH  24  25
ATOM     25  C   UNL     1       3.771   2.212   8.318  0.00  0.00    +0.000 C 
BRANCH  25  26
ATOM     26  O   UNL     1       3.981   1.026   9.075  0.00  0.00    +0.000 OA
ATOM     27  H   UNL     1       4.147   0.309   8.439  0.00  0.00    +0.000 HD
ENDBRANCH  25  26
ENDBRANCH  24  25
BRANCH  24  28
ATOM     28  C   UNL     1       5.987   3.217   8.986  0.00  0.00    +0.000 C 
BRANCH  28  29
ATOM     29  C   UNL     1       7.239   3.943   8.553  0.00  0.00    +0.000 A 
ATOM     30  C   UNL     1       8.499   3.455   8.892  0.00  0.00    +0.000 A 
ATOM     31  C   UNL     1       9.626   4.078   8.361  0.00  0.00    +0.000 A 
ATOM     32  C   UNL     1       9.469   5.187   7.540  0.00  0.00    +0.000 A 
ATOM     33  C   UNL     1       8.185   5.643   7.300  0.00  0.00    +0.000 A 
ATOM     34  N   UNL     1       7.073   5.046   7.783  0.00  0.00    +0.000 NA
ENDBRANCH  28  29
ENDBRANCH  24  28
ENDBRANCH  23  24
ENDBRANCH   4  23
TORSDOF 9
