REMARK  Name = 
REMARK  8 active torsions:
REMARK  status: ('A' for Active; 'I' for Inactive)
REMARK    1  A    between atoms: C_1  and  C_2
REMARK    2  A    between atoms: C_2  and  C_3
REMARK    3  A    between atoms: C_7  and  C_8
REMARK    4  A    between atoms: C_8  and  C_9
REMARK    5  A    between atoms: C_9  and  N_10
REMARK    6  A    between atoms: N_10  and  C_11
REMARK    7  A    between atoms: N_21  and  C_22
REMARK    8  A    between atoms: C_22  and  C_23
REMARK                            x       y       z     vdW  Elec       q    Type
REMARK                         _______ _______ _______ _____ _____    ______ ____
ROOT
ATOM      1  C   UNL     1       2.907   0.389   1.329  0.00  0.00    +0.000 A 
ATOM      2  C   UNL     1       2.571   1.640   1.853  0.00  0.00    +0.000 A 
ATOM      3  C   UNL     1       2.983   1.982   3.129  0.00  0.00    +0.000 A 
ATOM      4  C   UNL     1       3.732   1.074   3.859  0.00  0.00    +0.000 A 
ATOM      5  C   UNL     1       4.052  -0.163   3.299  0.00  0.00    +0.000 A 
ATOM      6  N   UNL     1       3.641  -0.506   2.046  0.00  0.00    +0.000 NA
ENDROOT
BRANCH   1   8
ATOM      7  C   UNL     1       0.876   0.025  -0.078  0.00  0.00    +0.000 C 
ATOM      8  C   UNL     1       2.426   0.007  -0.081  0.00  0.00    +0.000 C 
ATOM      9  C   UNL     1       2.999   1.028  -1.099  0.00  0.00    +0.000 C 
ATOM     10  C   UNL     1       2.691   0.649  -2.543  0.00  0.00    +0.000 C 
ATOM     11  C   UNL     1       3.118  -0.784  -2.854  0.00  0.00    +0.000 C 
ATOM     12  N   UNL     1       2.512  -1.733  -1.910  0.00  0.00    +0.000 NA
ATOM     13  C   UNL     1       2.908  -1.410  -0.515  0.00  0.00    +0.000 C 
BRANCH  12  14
ATOM     14  C   UNL     1       2.867  -3.139  -2.243  0.00  0.00    +0.000 C 
BRANCH  14  15
ATOM     15  C   UNL     1       2.411  -3.731  -3.602  0.00  0.00    +0.000 C 
ATOM     16  F   UNL     1       1.647  -2.891  -4.331  0.00  0.00    +0.000 F 
ATOM     17  F   UNL     1       3.486  -4.058  -4.361  0.00  0.00    +0.000 F 
ATOM     18  F   UNL     1       1.693  -4.865  -3.418  0.00  0.00    +0.000 F 
ENDBRANCH  14  15
ENDBRANCH  12  14
ENDBRANCH   1   8
BRANCH   5  19
ATOM     19  C   UNL     1       4.872  -1.203   4.046  0.00  0.00    +0.000 C 
BRANCH  19  20
ATOM     20  C   UNL     1       5.284  -0.775   5.459  0.00  0.00    +0.000 C 
BRANCH  20  21
ATOM     21  N   UNL     1       6.112  -1.761   6.147  0.00  0.00    +0.000 N 
ATOM     22  H   UNL     1       5.807  -2.726   6.038  0.00  0.00    +0.000 HD
BRANCH  21  23
ATOM     23  C   UNL     1       6.494  -1.489   7.472  0.00  0.00    +0.000 A 
ATOM     24  C   UNL     1       6.265  -0.265   8.120  0.00  0.00    +0.000 A 
ATOM     25  C   UNL     1       6.727  -0.026   9.416  0.00  0.00    +0.000 A 
ATOM     26  C   UNL     1       7.465  -0.999  10.083  0.00  0.00    +0.000 A 
ATOM     27  C   UNL     1       7.733  -2.209   9.450  0.00  0.00    +0.000 A 
ATOM     28  C   UNL     1       7.256  -2.446   8.157  0.00  0.00    +0.000 A 
ENDBRANCH  21  23
ENDBRANCH  20  21
ENDBRANCH  19  20
ENDBRANCH   5  19
TORSDOF 7
