REMARK  Name = 
REMARK  4 active torsions:
REMARK  status: ('A' for Active; 'I' for Inactive)
REMARK    1  A    between atoms: C_2  and  C_4
REMARK    2  A    between atoms: C_7  and  N_8
REMARK    3  A    between atoms: N_8  and  C_9
REMARK    4  A    between atoms: C_9  and  C_10
REMARK                            x       y       z     vdW  Elec       q    Type
REMARK                         _______ _______ _______ _____ _____    ______ ____
ROOT
ATOM      1  C   UNL     1       1.138  -6.083   0.440  0.00  0.00    +0.000 A 
ATOM      2  N   UNL     1       2.088  -6.634   1.227  0.00  0.00    +0.000 NA
ATOM      3  C   UNL     1       3.332  -6.131   1.065  0.00  0.00    +0.000 A 
ATOM      4  C   UNL     1       3.675  -5.101   0.202  0.00  0.00    +0.000 A 
ATOM      5  C   UNL     1       2.607  -4.664  -0.571  0.00  0.00    +0.000 A 
ATOM      6  N   UNL     1       1.338  -5.114  -0.472  0.00  0.00    +0.000 NA
ENDROOT
BRANCH   1   8
ATOM      7  N   UNL     1      -0.414  -7.588   1.575  0.00  0.00    +0.000 N 
ATOM      8  C   UNL     1      -0.269  -6.605   0.622  0.00  0.00    +0.000 C 
ATOM      9  O   UNL     1      -1.241  -6.204  -0.008  0.00  0.00    +0.000 OA
ATOM     10  H   UNL     1      -1.333  -7.961   1.761  0.00  0.00    +0.000 HD
ATOM     11  H   UNL     1       0.390  -7.894   2.114  0.00  0.00    +0.000 HD
ENDBRANCH   1   8
BRANCH   4  12
ATOM     12  N   UNL     1       4.965  -4.602  -0.001  0.00  0.00    +0.000 N 
ATOM     13  H   UNL     1       5.010  -3.673  -0.412  0.00  0.00    +0.000 HD
BRANCH  12  14
ATOM     14  C   UNL     1       6.189  -5.152   0.617  0.00  0.00    +0.000 C 
ATOM     15  C   UNL     1       6.280  -5.165   2.132  0.00  0.00    +0.000 C 
ATOM     16  C   UNL     1       7.106  -4.192   1.359  0.00  0.00    +0.000 C 
BRANCH  14  17
ATOM     17  C   UNL     1       6.929  -6.219  -0.207  0.00  0.00    +0.000 C 
ATOM     18  C   UNL     1       7.201  -5.738  -1.646  0.00  0.00    +0.000 C 
ATOM     19  C   UNL     1       7.990  -6.779  -2.438  0.00  0.00    +0.000 C 
ATOM     20  C   UNL     1       7.283  -8.131  -2.443  0.00  0.00    +0.000 C 
ATOM     21  C   UNL     1       6.976  -8.611  -1.027  0.00  0.00    +0.000 C 
ATOM     22  C   UNL     1       6.195  -7.566  -0.232  0.00  0.00    +0.000 C 
ENDBRANCH  14  17
ENDBRANCH  12  14
ENDBRANCH   4  12
TORSDOF 4
