REMARK  Name = 
REMARK  7 active torsions:
REMARK  status: ('A' for Active; 'I' for Inactive)
REMARK    1  A    between atoms: C_1  and  C_2
REMARK    2  A    between atoms: C_2  and  N_3
REMARK    3  A    between atoms: C_2  and  C_11
REMARK    4  A    between atoms: C_4  and  C_6
REMARK    5  A    between atoms: C_14  and  C_15
REMARK    6  A    between atoms: C_15  and  N_16
REMARK    7  A    between atoms: C_17  and  C_19
REMARK                            x       y       z     vdW  Elec       q    Type
REMARK                         _______ _______ _______ _____ _____    ______ ____
ROOT
ATOM      1  C   UNL     1       2.816  -0.778  -1.177  0.00  0.00    +0.000 A 
ATOM      2  C   UNL     1       3.568  -0.092  -2.139  0.00  0.00    +0.000 A 
ATOM      3  C   UNL     1       4.011  -0.749  -3.299  0.00  0.00    +0.000 A 
ATOM      4  C   UNL     1       3.695  -2.098  -3.530  0.00  0.00    +0.000 A 
ATOM      5  C   UNL     1       2.963  -2.785  -2.558  0.00  0.00    +0.000 A 
ATOM      6  C   UNL     1       2.514  -2.128  -1.414  0.00  0.00    +0.000 A 
ENDROOT
BRANCH   1   8
ATOM      7  C   UNL     1       2.405  -1.104   1.254  0.00  0.00    +0.000 C 
ATOM      8  C   UNL     1       2.371  -0.086   0.101  0.00  0.00    +0.000 C 
BRANCH   8   9
ATOM      9  N   UNL     1       1.062   0.516  -0.098  0.00  0.00    +0.000 N 
ATOM     10  C   UNL     1       0.400   1.233   0.880  0.00  0.00    +0.000 C 
ATOM     11  O   UNL     1       0.847   1.409   2.016  0.00  0.00    +0.000 OA
ATOM     12  H   UNL     1       0.788   0.751  -1.053  0.00  0.00    +0.000 HD
BRANCH  10  13
ATOM     13  C   UNL     1      -0.980   1.781   0.472  0.00  0.00    +0.000 C 
ATOM     14  C   UNL     1      -1.971   0.690   0.098  0.00  0.00    +0.000 C 
ATOM     15  C   UNL     1      -2.951   1.403  -0.817  0.00  0.00    +0.000 C 
ATOM     16  C   UNL     1      -2.139   2.518  -1.463  0.00  0.00    +0.000 C 
ATOM     17  N   UNL     1      -0.850   2.553  -0.780  0.00  0.00    +0.000 NA
ATOM     18  H   UNL     1      -0.545   3.506  -0.584  0.00  0.00    +0.000 HD
ENDBRANCH  10  13
ENDBRANCH   8   9
ENDBRANCH   1   8
BRANCH   4  19
ATOM     19  C   UNL     1       4.090  -2.834  -4.789  0.00  0.00    +0.000 C 
BRANCH  19  20
ATOM     20  N   UNL     1       5.363  -3.492  -4.670  0.00  0.00    +0.000 N 
ATOM     21  C   UNL     1       5.920  -4.219  -5.688  0.00  0.00    +0.000 C 
ATOM     22  O   UNL     1       5.383  -4.383  -6.781  0.00  0.00    +0.000 OA
ATOM     23  H   UNL     1       5.623  -3.745  -3.721  0.00  0.00    +0.000 HD
BRANCH  21  24
ATOM     24  C   UNL     1       7.242  -4.778  -5.370  0.00  0.00    +0.000 A 
ATOM     25  C   UNL     1       8.179  -4.996  -6.364  0.00  0.00    +0.000 A 
ATOM     26  S   UNL     1       9.689  -5.537  -5.765  0.00  0.00    +0.000 S 
ATOM     27  C   UNL     1       9.115  -5.553  -4.159  0.00  0.00    +0.000 A 
ATOM     28  N   UNL     1       9.903  -5.938  -3.126  0.00  0.00    +0.000 NA
ATOM     29  C   UNL     1       9.309  -5.929  -1.972  0.00  0.00    +0.000 A 
ATOM     30  N   UNL     1       8.020  -5.565  -1.767  0.00  0.00    +0.000 N 
ATOM     31  C   UNL     1       7.198  -5.113  -2.762  0.00  0.00    +0.000 A 
ATOM     32  O   UNL     1       6.065  -4.714  -2.512  0.00  0.00    +0.000 OA
ATOM     33  C   UNL     1       7.794  -5.134  -4.086  0.00  0.00    +0.000 A 
ATOM     34  H   UNL     1       7.616  -5.555  -0.836  0.00  0.00    +0.000 HD
ENDBRANCH  21  24
ENDBRANCH  19  20
ENDBRANCH   4  19
TORSDOF 6
