REMARK  Name = 
REMARK  5 active torsions:
REMARK  status: ('A' for Active; 'I' for Inactive)
REMARK    1  A    between atoms: C_2  and  C_18
REMARK    2  A    between atoms: N_3  and  C_4
REMARK    3  A    between atoms: C_4  and  C_5
REMARK    4  A    between atoms: C_8  and  C_9
REMARK    5  A    between atoms: C_9  and  C_10
REMARK                            x       y       z     vdW  Elec       q    Type
REMARK                         _______ _______ _______ _____ _____    ______ ____
ROOT
ATOM      1  O   UNL     1       2.312   2.696   0.417  0.00  0.00    +0.000 OA
ATOM      2  C   UNL     1       2.935   1.654   0.228  0.00  0.00    +0.000 C 
ATOM      3  N   UNL     1       2.939   0.628   1.137  0.00  0.00    +0.000 N 
ATOM      4  H   UNL     1       3.595  -0.137   1.017  0.00  0.00    +0.000 HD
ENDROOT
BRANCH   2   5
ATOM      5  C   UNL     1       3.683   1.425  -1.013  0.00  0.00    +0.000 A 
ATOM      6  C   UNL     1       3.355   2.144  -2.155  0.00  0.00    +0.000 A 
ATOM      7  S   UNL     1       4.322   1.760  -3.505  0.00  0.00    +0.000 S 
ATOM      8  C   UNL     1       5.241   0.650  -2.601  0.00  0.00    +0.000 A 
ATOM      9  N   UNL     1       6.286  -0.014  -3.163  0.00  0.00    +0.000 NA
ATOM     10  C   UNL     1       6.922  -0.792  -2.352  0.00  0.00    +0.000 A 
ATOM     11  N   UNL     1       6.598  -0.980  -1.034  0.00  0.00    +0.000 N 
ATOM     12  C   UNL     1       5.501  -0.395  -0.446  0.00  0.00    +0.000 A 
ATOM     13  O   UNL     1       5.151  -0.700   0.688  0.00  0.00    +0.000 OA
ATOM     14  C   UNL     1       4.791   0.543  -1.297  0.00  0.00    +0.000 A 
ATOM     15  H   UNL     1       7.113  -1.635  -0.465  0.00  0.00    +0.000 HD
ENDBRANCH   2   5
BRANCH   3  16
ATOM     16  C   UNL     1       2.303   0.734   2.424  0.00  0.00    +0.000 C 
BRANCH  16  17
ATOM     17  C   UNL     1       3.272   1.168   3.481  0.00  0.00    +0.000 A 
ATOM     18  C   UNL     1       3.495   2.518   3.753  0.00  0.00    +0.000 A 
ATOM     19  C   UNL     1       4.371   2.884   4.772  0.00  0.00    +0.000 A 
ATOM     20  C   UNL     1       5.024   1.884   5.488  0.00  0.00    +0.000 A 
ATOM     21  N   UNL     1       4.855   0.565   5.214  0.00  0.00    +0.000 NA
ATOM     22  C   UNL     1       3.996   0.241   4.221  0.00  0.00    +0.000 A 
BRANCH  20  23
ATOM     23  C   UNL     1       5.887   2.234   6.677  0.00  0.00    +0.000 C 
BRANCH  23  24
ATOM     24  C   UNL     1       5.086   2.354   7.947  0.00  0.00    +0.000 A 
ATOM     25  C   UNL     1       4.421   1.260   8.489  0.00  0.00    +0.000 A 
ATOM     26  C   UNL     1       3.641   1.443   9.621  0.00  0.00    +0.000 A 
ATOM     27  C   UNL     1       3.579   2.709  10.165  0.00  0.00    +0.000 A 
ATOM     28  N   UNL     1       4.247   3.756   9.643  0.00  0.00    +0.000 NA
ATOM     29  N   UNL     1       5.005   3.577   8.521  0.00  0.00    +0.000 NA
ENDBRANCH  23  24
ENDBRANCH  20  23
ENDBRANCH  16  17
ENDBRANCH   3  16
TORSDOF 5
