REMARK  Name = 
REMARK  12 active torsions:
REMARK  status: ('A' for Active; 'I' for Inactive)
REMARK    1  A    between atoms: C_1  and  O_2
REMARK    2  A    between atoms: O_2  and  C_3
REMARK    3  A    between atoms: C_3  and  C_4
REMARK    4  A    between atoms: C_4  and  N_5
REMARK    5  A    between atoms: C_4  and  C_28
REMARK    6  A    between atoms: N_5  and  C_6
REMARK    7  A    between atoms: C_6  and  C_7
REMARK    8  A    between atoms: C_10  and  C_11
REMARK    9  A    between atoms: C_11  and  N_12
REMARK   10  A    between atoms: C_13  and  C_15
REMARK   11  A    between atoms: C_22  and  O_23
REMARK   12  A    between atoms: O_23  and  C_24
REMARK                            x       y       z     vdW  Elec       q    Type
REMARK                         _______ _______ _______ _____ _____    ______ ____
ROOT
ATOM      1  C   UNL     1       4.935  -0.457  -2.815  0.00  0.00    +0.000 A 
ATOM      2  C   UNL     1       5.386   0.643  -3.553  0.00  0.00    +0.000 A 
ATOM      3  C   UNL     1       5.847   0.480  -4.861  0.00  0.00    +0.000 A 
ATOM      4  C   UNL     1       5.858  -0.786  -5.462  0.00  0.00    +0.000 A 
ATOM      5  C   UNL     1       5.439  -1.891  -4.712  0.00  0.00    +0.000 A 
ATOM      6  C   UNL     1       4.980  -1.730  -3.404  0.00  0.00    +0.000 A 
ENDROOT
BRANCH   1   7
ATOM      7  C   UNL     1       4.430  -0.291  -1.400  0.00  0.00    +0.000 C 
BRANCH   7   8
ATOM      8  N   UNL     1       3.198   0.496  -1.346  0.00  0.00    +0.000 NA
ATOM      9  H   UNL     1       3.409   1.443  -1.666  0.00  0.00    +0.000 HD
BRANCH   8  10
ATOM     10  C   UNL     1       2.630   0.623   0.020  0.00  0.00    +0.000 C 
BRANCH  10  11
ATOM     11  C   UNL     1       2.222  -0.734   0.583  0.00  0.00    +0.000 A 
ATOM     12  C   UNL     1       0.993  -1.301   0.211  0.00  0.00    +0.000 A 
ATOM     13  C   UNL     1       0.662  -2.599   0.614  0.00  0.00    +0.000 A 
ATOM     14  C   UNL     1       1.552  -3.344   1.388  0.00  0.00    +0.000 A 
ATOM     15  C   UNL     1       2.765  -2.790   1.777  0.00  0.00    +0.000 A 
ATOM     16  C   UNL     1       3.093  -1.491   1.387  0.00  0.00    +0.000 A 
ENDBRANCH  10  11
BRANCH  10  17
ATOM     17  C   UNL     1       3.507   1.454   0.993  0.00  0.00    +0.000 C 
BRANCH  17  19
ATOM     18  C   UNL     1       4.682   3.450   1.356  0.00  0.00    +0.000 C 
ATOM     19  O   UNL     1       3.870   2.724   0.435  0.00  0.00    +0.000 OA
ENDBRANCH  17  19
ENDBRANCH  10  17
ENDBRANCH   8  10
ENDBRANCH   7   8
ENDBRANCH   1   7
BRANCH   4  20
ATOM     20  C   UNL     1       6.357  -0.965  -6.871  0.00  0.00    +0.000 C 
BRANCH  20  21
ATOM     21  N   UNL     1       7.788  -1.124  -6.886  0.00  0.00    +0.000 N 
ATOM     22  C   UNL     1       8.489  -1.298  -8.049  0.00  0.00    +0.000 C 
ATOM     23  O   UNL     1       7.963  -1.214  -9.155  0.00  0.00    +0.000 OA
ATOM     24  H   UNL     1       8.230  -1.349  -6.005  0.00  0.00    +0.000 HD
BRANCH  22  25
ATOM     25  C   UNL     1       9.931  -1.518  -7.893  0.00  0.00    +0.000 A 
ATOM     26  C   UNL     1      10.801  -1.154  -8.912  0.00  0.00    +0.000 A 
ATOM     27  S   UNL     1      12.442  -1.374  -8.508  0.00  0.00    +0.000 S 
ATOM     28  C   UNL     1      12.033  -2.020  -6.990  0.00  0.00    +0.000 A 
ATOM     29  N   UNL     1      13.002  -2.408  -6.142  0.00  0.00    +0.000 NA
ATOM     30  C   UNL     1      12.520  -2.916  -5.008  0.00  0.00    +0.000 A 
ATOM     31  N   UNL     1      11.234  -3.084  -4.674  0.00  0.00    +0.000 NA
ATOM     32  C   UNL     1      10.299  -2.687  -5.558  0.00  0.00    +0.000 A 
ATOM     33  C   UNL     1      10.664  -2.091  -6.776  0.00  0.00    +0.000 A 
BRANCH  32  34
ATOM     34  O   UNL     1       8.965  -2.870  -5.257  0.00  0.00    +0.000 OA
ATOM     35  C   UNL     1       8.731  -3.455  -3.981  0.00  0.00    +0.000 C 
ENDBRANCH  32  34
ENDBRANCH  22  25
ENDBRANCH  20  21
ENDBRANCH   4  20
TORSDOF 10
