REMARK  Name = 
REMARK  7 active torsions:
REMARK  status: ('A' for Active; 'I' for Inactive)
REMARK    1  A    between atoms: N_1  and  C_2
REMARK    2  A    between atoms: C_2  and  C_3
REMARK    3  A    between atoms: C_7  and  C_8
REMARK    4  A    between atoms: C_8  and  O_9
REMARK    5  A    between atoms: O_9  and  C_10
REMARK    6  A    between atoms: C_13  and  S_14
REMARK    7  A    between atoms: S_14  and  N_15
REMARK                            x       y       z     vdW  Elec       q    Type
REMARK                         _______ _______ _______ _____ _____    ______ ____
ROOT
ATOM      1  O   UNL     1       5.459   4.749   2.656  0.00  0.00    +0.000 OA
ENDROOT
BRANCH   1   2
ATOM      2  C   UNL     1       6.424   5.190   3.515  0.00  0.00    +0.000 A 
ATOM      3  C   UNL     1       7.396   4.410   4.143  0.00  0.00    +0.000 A 
ATOM      4  C   UNL     1       8.316   5.012   5.003  0.00  0.00    +0.000 A 
ATOM      5  C   UNL     1       8.218   6.382   5.193  0.00  0.00    +0.000 A 
ATOM      6  N   UNL     1       7.293   7.192   4.609  0.00  0.00    +0.000 NA
ATOM      7  C   UNL     1       6.422   6.561   3.783  0.00  0.00    +0.000 A 
BRANCH   5   8
ATOM      8  S   UNL     1       9.385   7.215   6.265  0.00  0.00    +0.000 S 
ATOM      9  O   UNL     1       9.152   6.739   7.612  0.00  0.00    +0.000 OA
ATOM     10  O   UNL     1      10.679   7.157   5.626  0.00  0.00    +0.000 OA
BRANCH   8  11
ATOM     11  N   UNL     1       8.887   8.832   6.221  0.00  0.00    +0.000 NA
ATOM     12  H   UNL     1       7.917   8.911   6.523  0.00  0.00    +0.000 HD
ATOM     13  H   UNL     1       9.031   9.213   5.285  0.00  0.00    +0.000 HD
ENDBRANCH   8  11
ENDBRANCH   5   8
ENDBRANCH   1   2
BRANCH   1  14
ATOM     14  C   UNL     1       5.456   3.355   2.341  0.00  0.00    +0.000 C 
BRANCH  14  19
ATOM     15  C   UNL     1       3.370   3.363  -0.868  0.00  0.00    +0.000 A 
ATOM     16  C   UNL     1       2.369   2.439  -0.534  0.00  0.00    +0.000 A 
ATOM     17  C   UNL     1       2.354   1.834   0.723  0.00  0.00    +0.000 A 
ATOM     18  C   UNL     1       3.343   2.137   1.661  0.00  0.00    +0.000 A 
ATOM     19  C   UNL     1       4.351   3.062   1.355  0.00  0.00    +0.000 A 
ATOM     20  C   UNL     1       4.345   3.676   0.092  0.00  0.00    +0.000 A 
BRANCH  15  21
ATOM     21  C   UNL     1       3.392   4.022  -2.224  0.00  0.00    +0.000 C 
BRANCH  21  22
ATOM     22  N   UNL     1       4.621   3.719  -2.954  0.00  0.00    +0.000 NA
ATOM     23  H   UNL     1       4.595   4.189  -3.856  0.00  0.00    +0.000 HD
ATOM     24  H   UNL     1       4.649   2.720  -3.151  0.00  0.00    +0.000 HD
ENDBRANCH  21  22
ENDBRANCH  15  21
ENDBRANCH  14  19
ENDBRANCH   1  14
TORSDOF 7
