REMARK  Name = 
REMARK  8 active torsions:
REMARK  status: ('A' for Active; 'I' for Inactive)
REMARK    1  A    between atoms: C_1  and  C_2
REMARK    2  A    between atoms: C_2  and  O_3
REMARK    3  A    between atoms: C_5  and  O_6
REMARK    4  A    between atoms: O_6  and  C_7
REMARK    5  A    between atoms: C_9  and  C_10
REMARK    6  A    between atoms: C_10  and  C_11
REMARK    7  A    between atoms: C_11  and  N_12
REMARK    8  A    between atoms: C_16  and  N_17
REMARK                            x       y       z     vdW  Elec       q    Type
REMARK                         _______ _______ _______ _____ _____    ______ ____
ROOT
ATOM      1  C   UNL     1       5.736  -1.185   2.856  0.00  0.00    +0.000 A 
ATOM      2  C   UNL     1       5.859  -2.283   2.015  0.00  0.00    +0.000 A 
ATOM      3  C   UNL     1       6.644  -3.368   2.428  0.00  0.00    +0.000 A 
ATOM      4  C   UNL     1       7.252  -3.279   3.687  0.00  0.00    +0.000 A 
ATOM      5  C   UNL     1       7.056  -2.144   4.460  0.00  0.00    +0.000 A 
ATOM      6  N   UNL     1       6.316  -1.091   4.069  0.00  0.00    +0.000 NA
ENDROOT
BRANCH   1   7
ATOM      7  O   UNL     1       4.983  -0.118   2.399  0.00  0.00    +0.000 OA
BRANCH   7  11
ATOM      8  C   UNL     1       6.377   4.068   1.568  0.00  0.00    +0.000 C 
ATOM      9  C   UNL     1       5.897   3.166   2.694  0.00  0.00    +0.000 C 
ATOM     10  C   UNL     1       6.614   1.797   2.766  0.00  0.00    +0.000 C 
ATOM     11  C   UNL     1       5.240   1.144   3.061  0.00  0.00    +0.000 C 
ATOM     12  C   UNL     1       4.591   2.383   2.398  0.00  0.00    +0.000 C 
BRANCH   9  13
ATOM     13  O   UNL     1       5.880   3.918   3.928  0.00  0.00    +0.000 OA
ATOM     14  H   UNL     1       6.806   4.169   4.090  0.00  0.00    +0.000 HD
ENDBRANCH   9  13
ENDBRANCH   7  11
ENDBRANCH   1   7
BRANCH   3  15
ATOM     15  C   UNL     1       6.803  -4.570   1.510  0.00  0.00    +0.000 C 
BRANCH  15  16
ATOM     16  C   UNL     1       7.676  -5.693   2.083  0.00  0.00    +0.000 C 
BRANCH  16  17
ATOM     17  N   UNL     1       7.783  -6.852   1.190  0.00  0.00    +0.000 N 
ATOM     18  C   UNL     1       8.619  -7.851   1.741  0.00  0.00    +0.000 A 
ATOM     19  C   UNL     1       8.829  -9.026   1.018  0.00  0.00    +0.000 A 
ATOM     20  C   UNL     1       9.647 -10.029   1.552  0.00  0.00    +0.000 A 
ATOM     21  C   UNL     1      10.230  -9.823   2.801  0.00  0.00    +0.000 A 
ATOM     22  C   UNL     1       9.969  -8.642   3.468  0.00  0.00    +0.000 A 
ATOM     23  N   UNL     1       9.176  -7.667   2.959  0.00  0.00    +0.000 NA
ATOM     24  H   UNL     1       8.133  -6.604   0.268  0.00  0.00    +0.000 HD
BRANCH  21  25
ATOM     25  N   UNL     1      11.103 -10.815   3.409  0.00  0.00    +0.000 N 
ATOM     26  O   UNL     1      11.306 -11.864   2.780  0.00  0.00    +0.000 OA
ATOM     27  O   UNL     1      11.599 -10.551   4.512  0.00  0.00    +0.000 OA
ENDBRANCH  21  25
ENDBRANCH  16  17
ENDBRANCH  15  16
ENDBRANCH   3  15
TORSDOF 7
