REMARK  Name = 
REMARK  5 active torsions:
REMARK  status: ('A' for Active; 'I' for Inactive)
REMARK    1  A    between atoms: N_1  and  C_2
REMARK    2  A    between atoms: C_2  and  C_3
REMARK    3  A    between atoms: C_6  and  O_7
REMARK    4  A    between atoms: O_7  and  C_8
REMARK    5  A    between atoms: C_8  and  C_9
REMARK                            x       y       z     vdW  Elec       q    Type
REMARK                         _______ _______ _______ _____ _____    ______ ____
ROOT
ATOM      1  C   UNL     1       3.573  -0.724  -1.080  0.00  0.00    +0.000 A 
ATOM      2  N   UNL     1       2.567  -1.617  -1.159  0.00  0.00    +0.000 NA
ATOM      3  C   UNL     1       2.681  -2.557  -2.122  0.00  0.00    +0.000 A 
ATOM      4  C   UNL     1       3.730  -2.627  -3.014  0.00  0.00    +0.000 A 
ATOM      5  C   UNL     1       4.705  -1.671  -2.836  0.00  0.00    +0.000 A 
ATOM      6  N   UNL     1       4.650  -0.706  -1.898  0.00  0.00    +0.000 NA
ENDROOT
BRANCH   1   7
ATOM      7  C   UNL     1       3.533   0.329   0.012  0.00  0.00    +0.000 C 
BRANCH   7   8
ATOM      8  N   UNL     1       4.721   0.289   0.884  0.00  0.00    +0.000 NA
ATOM      9  H   UNL     1       4.776   1.160   1.402  0.00  0.00    +0.000 HD
ATOM     10  H   UNL     1       5.538   0.259   0.269  0.00  0.00    +0.000 HD
ENDBRANCH   7   8
ENDBRANCH   1   7
BRANCH   4  11
ATOM     11  O   UNL     1       3.705  -3.608  -3.953  0.00  0.00    +0.000 OA
BRANCH  11  12
ATOM     12  C   UNL     1       4.550  -3.390  -5.088  0.00  0.00    +0.000 C 
BRANCH  12  13
ATOM     13  C   UNL     1       4.069  -4.271  -6.206  0.00  0.00    +0.000 A 
ATOM     14  C   UNL     1       2.728  -4.224  -6.619  0.00  0.00    +0.000 A 
ATOM     15  C   UNL     1       2.283  -5.025  -7.672  0.00  0.00    +0.000 A 
ATOM     16  C   UNL     1       3.174  -5.876  -8.325  0.00  0.00    +0.000 A 
ATOM     17  C   UNL     1       4.511  -5.920  -7.930  0.00  0.00    +0.000 A 
ATOM     18 CL   UNL     1       5.602  -6.966  -8.755  0.00  0.00    +0.000 Cl
ATOM     19  C   UNL     1       4.953  -5.117  -6.880  0.00  0.00    +0.000 A 
ATOM     20  F   UNL     1       6.245  -5.143  -6.509  0.00  0.00    +0.000 F 
ENDBRANCH  12  13
ENDBRANCH  11  12
ENDBRANCH   4  11
TORSDOF 5
