REMARK  Name = 
REMARK  6 active torsions:
REMARK  status: ('A' for Active; 'I' for Inactive)
REMARK    1  A    between atoms: C_1  and  C_2
REMARK    2  A    between atoms: C_2  and  C_3
REMARK    3  A    between atoms: C_2  and  C_18
REMARK    4  A    between atoms: C_3  and  N_4
REMARK    5  A    between atoms: C_9  and  O_10
REMARK    6  A    between atoms: O_10  and  C_11
REMARK                            x       y       z     vdW  Elec       q    Type
REMARK                         _______ _______ _______ _____ _____    ______ ____
ROOT
ATOM      1  N   UNL     1       0.334  -1.126   0.720  0.00  0.00    +0.000 N 
ATOM      2  C   UNL     1      -1.002  -1.381   0.348  0.00  0.00    +0.000 A 
ATOM      3  C   UNL     1      -1.622  -2.499   0.911  0.00  0.00    +0.000 A 
ATOM      4  C   UNL     1      -2.942  -2.796   0.583  0.00  0.00    +0.000 A 
ATOM      5  C   UNL     1      -3.618  -1.963  -0.293  0.00  0.00    +0.000 A 
ATOM      6  C   UNL     1      -2.939  -0.861  -0.786  0.00  0.00    +0.000 A 
ATOM      7  N   UNL     1      -1.661  -0.551  -0.481  0.00  0.00    +0.000 NA
ATOM      8  H   UNL     1       0.837  -2.005   0.670  0.00  0.00    +0.000 HD
ENDROOT
BRANCH   1   9
ATOM      9  C   UNL     1       0.999  -0.078  -0.071  0.00  0.00    +0.000 C 
BRANCH   9  11
ATOM     10  C   UNL     1       3.296  -1.198  -0.050  0.00  0.00    +0.000 C 
ATOM     11  C   UNL     1       2.482   0.043   0.340  0.00  0.00    +0.000 C 
BRANCH  11  12
ATOM     12  C   UNL     1       3.096   1.279  -0.291  0.00  0.00    +0.000 A 
ATOM     13  C   UNL     1       3.700   2.251   0.507  0.00  0.00    +0.000 A 
ATOM     14  C   UNL     1       4.239   3.387  -0.096  0.00  0.00    +0.000 A 
ATOM     15  C   UNL     1       4.166   3.521  -1.475  0.00  0.00    +0.000 A 
ATOM     16 CL   UNL     1       4.798   4.913  -2.254  0.00  0.00    +0.000 Cl
ATOM     17  C   UNL     1       3.565   2.507  -2.202  0.00  0.00    +0.000 A 
ATOM     18  N   UNL     1       3.033   1.392  -1.642  0.00  0.00    +0.000 NA
ENDBRANCH  11  12
ENDBRANCH   9  11
ENDBRANCH   1   9
BRANCH   6  19
ATOM     19  O   UNL     1      -3.625  -0.066  -1.684  0.00  0.00    +0.000 OA
BRANCH  19  20
ATOM     20  C   UNL     1      -3.181   1.304  -1.794  0.00  0.00    +0.000 C 
ATOM     21  C   UNL     1      -3.880   2.087  -2.923  0.00  0.00    +0.000 C 
ATOM     22  C   UNL     1      -2.520   2.674  -3.330  0.00  0.00    +0.000 C 
ATOM     23  F   UNL     1      -2.252   2.646  -4.655  0.00  0.00    +0.000 F 
ATOM     24  F   UNL     1      -2.300   3.944  -2.918  0.00  0.00    +0.000 F 
ATOM     25  C   UNL     1      -1.836   1.583  -2.494  0.00  0.00    +0.000 C 
ENDBRANCH  19  20
ENDBRANCH   6  19
TORSDOF 5
