REMARK  Name = 
REMARK  4 active torsions:
REMARK  status: ('A' for Active; 'I' for Inactive)
REMARK    1  A    between atoms: N_1  and  C_2
REMARK    2  A    between atoms: C_2  and  C_3
REMARK    3  A    between atoms: C_7  and  C_8
REMARK    4  A    between atoms: C_8  and  N_9
REMARK                            x       y       z     vdW  Elec       q    Type
REMARK                         _______ _______ _______ _____ _____    ______ ____
ROOT
ATOM      1  C   UNL     1       4.429   0.882   4.550  0.00  0.00    +0.000 C 
ENDROOT
BRANCH   1   2
ATOM      2  N   UNL     1       4.641   1.856   5.612  0.00  0.00    +0.000 N 
ATOM      3  N   UNL     1       3.636   2.102   6.489  0.00  0.00    +0.000 NA
ATOM      4  C   UNL     1       4.220   2.834   7.441  0.00  0.00    +0.000 A 
ATOM      5  C   UNL     1       5.591   3.058   7.195  0.00  0.00    +0.000 A 
ATOM      6  C   UNL     1       6.641   3.705   7.870  0.00  0.00    +0.000 A 
ATOM      7  C   UNL     1       7.905   3.699   7.282  0.00  0.00    +0.000 A 
ATOM      8  F   UNL     1       8.922   4.294   7.921  0.00  0.00    +0.000 F 
ATOM      9  C   UNL     1       8.140   3.090   6.055  0.00  0.00    +0.000 A 
ATOM     10  C   UNL     1       7.106   2.443   5.369  0.00  0.00    +0.000 A 
ATOM     11  C   UNL     1       5.840   2.434   5.974  0.00  0.00    +0.000 A 
ENDBRANCH   1   2
BRANCH   1  16
ATOM     12  C   UNL     1       4.150   1.768   0.977  0.00  0.00    +0.000 A 
ATOM     13  C   UNL     1       2.898   2.369   0.875  0.00  0.00    +0.000 A 
ATOM     14  C   UNL     1       2.140   2.537   2.027  0.00  0.00    +0.000 A 
ATOM     15  C   UNL     1       2.640   2.091   3.245  0.00  0.00    +0.000 A 
ATOM     16  C   UNL     1       3.899   1.491   3.281  0.00  0.00    +0.000 A 
ATOM     17  N   UNL     1       4.656   1.333   2.161  0.00  0.00    +0.000 NA
BRANCH  12  18
ATOM     18  C   UNL     1       5.000   1.569  -0.261  0.00  0.00    +0.000 C 
BRANCH  18  19
ATOM     19  N   UNL     1       5.335   2.829  -0.931  0.00  0.00    +0.000 NA
ATOM     20  H   UNL     1       6.009   2.636  -1.669  0.00  0.00    +0.000 HD
ATOM     21  H   UNL     1       5.819   3.423  -0.256  0.00  0.00    +0.000 HD
ENDBRANCH  18  19
ENDBRANCH  12  18
ENDBRANCH   1  16
TORSDOF 4
