REMARK  Name = 
REMARK  5 active torsions:
REMARK  status: ('A' for Active; 'I' for Inactive)
REMARK    1  A    between atoms: C_1  and  C_2
REMARK    2  A    between atoms: C_4  and  C_5
REMARK    3  A    between atoms: C_10  and  N_11
REMARK    4  A    between atoms: N_11  and  C_12
REMARK    5  A    between atoms: C_12  and  C_13
REMARK                            x       y       z     vdW  Elec       q    Type
REMARK                         _______ _______ _______ _____ _____    ______ ____
ROOT
ATOM      1  C   UNL     1      -1.566  -2.034   0.768  0.00  0.00    +0.000 C 
ATOM      2  C   UNL     1      -0.744  -0.897   0.230  0.00  0.00    +0.000 A 
ATOM      3  C   UNL     1      -1.394   0.334   0.023  0.00  0.00    +0.000 A 
ATOM      4  C   UNL     1      -0.696   1.435  -0.465  0.00  0.00    +0.000 A 
ATOM      5  C   UNL     1       0.651   1.253  -0.705  0.00  0.00    +0.000 A 
ATOM      6  N   UNL     1       1.314   0.078  -0.509  0.00  0.00    +0.000 NA
ATOM      7  C   UNL     1       0.632  -0.993  -0.059  0.00  0.00    +0.000 A 
ENDROOT
BRANCH   4   8
ATOM      8  C   UNL     1      -1.434   2.700  -0.698  0.00  0.00    +0.000 C 
ATOM      9  N   UNL     1      -0.769   3.780  -1.208  0.00  0.00    +0.000 N 
ATOM     10  O   UNL     1      -2.632   2.786  -0.451  0.00  0.00    +0.000 OA
ATOM     11  H   UNL     1       0.205   3.818  -1.457  0.00  0.00    +0.000 HD
ATOM     12  H   UNL     1      -1.328   4.611  -1.367  0.00  0.00    +0.000 HD
ENDBRANCH   4   8
BRANCH   7  13
ATOM     13  N   UNL     1       1.325  -2.204   0.200  0.00  0.00    +0.000 N 
ATOM     14  H   UNL     1       0.678  -2.963   0.362  0.00  0.00    +0.000 HD
BRANCH  13  15
ATOM     15  C   UNL     1       2.511  -2.665  -0.566  0.00  0.00    +0.000 C 
ATOM     16  C   UNL     1       3.201  -1.961  -1.723  0.00  0.00    +0.000 C 
ATOM     17  C   UNL     1       2.212  -3.038  -2.019  0.00  0.00    +0.000 C 
BRANCH  15  18
ATOM     18  C   UNL     1       3.430  -3.569   0.255  0.00  0.00    +0.000 A 
ATOM     19  C   UNL     1       3.279  -4.962   0.328  0.00  0.00    +0.000 A 
ATOM     20  C   UNL     1       4.210  -5.745   1.012  0.00  0.00    +0.000 A 
ATOM     21  C   UNL     1       5.276  -5.114   1.628  0.00  0.00    +0.000 A 
ATOM     22  N   UNL     1       5.451  -3.778   1.625  0.00  0.00    +0.000 NA
ATOM     23  C   UNL     1       4.525  -3.049   0.952  0.00  0.00    +0.000 A 
ENDBRANCH  15  18
ENDBRANCH  13  15
ENDBRANCH   7  13
TORSDOF 4
