REMARK  Name = 
REMARK  10 active torsions:
REMARK  status: ('A' for Active; 'I' for Inactive)
REMARK    1  A    between atoms: C_1  and  C_2
REMARK    2  A    between atoms: C_2  and  O_3
REMARK    3  A    between atoms: O_3  and  C_4
REMARK    4  A    between atoms: C_4  and  C_6
REMARK    5  A    between atoms: C_9  and  C_10
REMARK    6  A    between atoms: C_10  and  N_11
REMARK    7  A    between atoms: C_12  and  C_14
REMARK    8  A    between atoms: C_25  and  C_26
REMARK    9  A    between atoms: C_26  and  N_27
REMARK   10  A    between atoms: C_28  and  C_30
REMARK                            x       y       z     vdW  Elec       q    Type
REMARK                         _______ _______ _______ _____ _____    ______ ____
ROOT
ATOM      1  C   UNL     1       4.882  -2.913   0.766  0.00  0.00    +0.000 A 
ATOM      2  C   UNL     1       4.347  -4.095   0.214  0.00  0.00    +0.000 A 
ATOM      3  C   UNL     1       4.861  -5.342   0.549  0.00  0.00    +0.000 A 
ATOM      4  C   UNL     1       5.945  -5.435   1.418  0.00  0.00    +0.000 A 
ATOM      5  C   UNL     1       6.429  -4.269   2.033  0.00  0.00    +0.000 A 
ATOM      6  C   UNL     1       5.880  -3.000   1.752  0.00  0.00    +0.000 A 
ENDROOT
BRANCH   1   7
ATOM      7  C   UNL     1       4.309  -1.612   0.313  0.00  0.00    +0.000 C 
ATOM      8  O   UNL     1       4.263  -0.588   0.970  0.00  0.00    +0.000 OA
BRANCH   7   9
ATOM      9  O   UNL     1       3.767  -1.783  -0.921  0.00  0.00    +0.000 OA
BRANCH   9  11
ATOM     10  C   UNL     1       1.419  -1.627  -0.589  0.00  0.00    +0.000 C 
ATOM     11  C   UNL     1       2.637  -0.952  -1.196  0.00  0.00    +0.000 C 
ENDBRANCH   9  11
ENDBRANCH   7   9
ENDBRANCH   1   7
BRANCH   4  12
ATOM     12  C   UNL     1       6.552  -6.778   1.711  0.00  0.00    +0.000 C 
BRANCH  12  13
ATOM     13  N   UNL     1       5.960  -7.381   2.873  0.00  0.00    +0.000 N 
ATOM     14  C   UNL     1       4.962  -8.317   2.818  0.00  0.00    +0.000 C 
ATOM     15  O   UNL     1       4.480  -8.713   1.762  0.00  0.00    +0.000 OA
ATOM     16  H   UNL     1       6.149  -6.912   3.751  0.00  0.00    +0.000 HD
BRANCH  14  17
ATOM     17  C   UNL     1       4.555  -8.884   4.110  0.00  0.00    +0.000 A 
ATOM     18  C   UNL     1       3.988 -10.150   4.169  0.00  0.00    +0.000 A 
ATOM     19  S   UNL     1       3.647 -10.669   5.758  0.00  0.00    +0.000 S 
ATOM     20  C   UNL     1       4.193  -9.198   6.417  0.00  0.00    +0.000 A 
ATOM     21  N   UNL     1       4.156  -8.972   7.760  0.00  0.00    +0.000 NA
ATOM     22  C   UNL     1       4.580  -7.806   8.116  0.00  0.00    +0.000 A 
ATOM     23  N   UNL     1       5.040  -6.845   7.254  0.00  0.00    +0.000 N 
ATOM     24  C   UNL     1       5.138  -7.042   5.897  0.00  0.00    +0.000 A 
ATOM     25  O   UNL     1       5.634  -6.193   5.173  0.00  0.00    +0.000 OA
ATOM     26  C   UNL     1       4.652  -8.332   5.442  0.00  0.00    +0.000 A 
ATOM     27  H   UNL     1       5.375  -5.956   7.596  0.00  0.00    +0.000 HD
ENDBRANCH  14  17
ENDBRANCH  12  13
ENDBRANCH   4  12
BRANCH   6  28
ATOM     28  C   UNL     1       6.405  -1.820   2.529  0.00  0.00    +0.000 C 
BRANCH  28  29
ATOM     29  N   UNL     1       7.513  -1.184   1.867  0.00  0.00    +0.000 N 
ATOM     30  C   UNL     1       8.826  -1.433   2.195  0.00  0.00    +0.000 C 
ATOM     31  O   UNL     1       9.176  -2.260   3.033  0.00  0.00    +0.000 OA
ATOM     32  H   UNL     1       7.349  -0.680   1.002  0.00  0.00    +0.000 HD
BRANCH  30  33
ATOM     33  C   UNL     1       9.835  -0.559   1.422  0.00  0.00    +0.000 C 
ATOM     34  C   UNL     1       9.685   0.918   1.816  0.00  0.00    +0.000 C 
ATOM     35  C   UNL     1      10.593   1.815   0.979  0.00  0.00    +0.000 C 
ATOM     36  C   UNL     1      10.393   1.543  -0.508  0.00  0.00    +0.000 C 
ATOM     37  C   UNL     1      10.539   0.056  -0.819  0.00  0.00    +0.000 C 
ATOM     38  N   UNL     1       9.602  -0.746  -0.030  0.00  0.00    +0.000 NA
ATOM     39  H   UNL     1       9.748  -1.734  -0.248  0.00  0.00    +0.000 HD
ENDBRANCH  30  33
ENDBRANCH  28  29
ENDBRANCH   6  28
TORSDOF 9
