REMARK  Name = 
REMARK  7 active torsions:
REMARK  status: ('A' for Active; 'I' for Inactive)
REMARK    1  A    between atoms: C_2  and  C_20
REMARK    2  A    between atoms: N_3  and  C_4
REMARK    3  A    between atoms: C_4  and  C_5
REMARK    4  A    between atoms: C_8  and  C_9
REMARK    5  A    between atoms: C_9  and  N_10
REMARK    6  A    between atoms: N_10  and  C_11
REMARK    7  A    between atoms: C_14  and  O_15
REMARK                            x       y       z     vdW  Elec       q    Type
REMARK                         _______ _______ _______ _____ _____    ______ ____
ROOT
ATOM      1  C   UNL     1      12.311   1.858   5.177  0.00  0.00    +0.000 A 
ATOM      2  C   UNL     1      12.036   3.029   5.874  0.00  0.00    +0.000 A 
ATOM      3  N   UNL     1      11.044   3.881   5.519  0.00  0.00    +0.000 NA
ATOM      4  C   UNL     1      10.301   3.506   4.444  0.00  0.00    +0.000 A 
ATOM      5  C   UNL     1      10.558   2.321   3.765  0.00  0.00    +0.000 A 
ATOM      6  N   UNL     1      11.561   1.480   4.106  0.00  0.00    +0.000 NA
ENDROOT
BRANCH   1   7
ATOM      7  C   UNL     1      13.434   0.956   5.610  0.00  0.00    +0.000 C 
BRANCH   7  10
ATOM      8  O   UNL     1      13.598   1.118   8.396  0.00  0.00    +0.000 OA
ATOM      9  C   UNL     1      13.077   0.122   7.902  0.00  0.00    +0.000 C 
ATOM     10  N   UNL     1      12.991  -0.051   6.545  0.00  0.00    +0.000 N 
ATOM     11  H   UNL     1      12.361  -0.754   6.167  0.00  0.00    +0.000 HD
BRANCH   9  12
ATOM     12  C   UNL     1      12.552  -0.968   8.732  0.00  0.00    +0.000 A 
ATOM     13  C   UNL     1      13.045  -1.154  10.016  0.00  0.00    +0.000 A 
ATOM     14  S   UNL     1      12.338  -2.473  10.835  0.00  0.00    +0.000 S 
ATOM     15  C   UNL     1      11.317  -2.815   9.517  0.00  0.00    +0.000 A 
ATOM     16  N   UNL     1      10.411  -3.828   9.577  0.00  0.00    +0.000 NA
ATOM     17  C   UNL     1       9.675  -3.950   8.522  0.00  0.00    +0.000 A 
ATOM     18  N   UNL     1       9.774  -3.158   7.408  0.00  0.00    +0.000 N 
ATOM     19  C   UNL     1      10.719  -2.168   7.278  0.00  0.00    +0.000 A 
ATOM     20  O   UNL     1      10.855  -1.553   6.224  0.00  0.00    +0.000 OA
ATOM     21  C   UNL     1      11.537  -1.957   8.455  0.00  0.00    +0.000 A 
ATOM     22  H   UNL     1       9.189  -3.324   6.602  0.00  0.00    +0.000 HD
ENDBRANCH   9  12
ENDBRANCH   7  10
ENDBRANCH   1   7
BRANCH   4  23
ATOM     23  C   UNL     1       9.224   4.454   3.971  0.00  0.00    +0.000 C 
BRANCH  23  24
ATOM     24  N   UNL     1       9.733   5.771   3.549  0.00  0.00    +0.000 NA
ATOM     25  H   UNL     1      10.239   6.154   4.353  0.00  0.00    +0.000 HD
BRANCH  24  26
ATOM     26  C   UNL     1      10.644   5.734   2.393  0.00  0.00    +0.000 C 
ATOM     27  C   UNL     1       9.950   5.169   1.142  0.00  0.00    +0.000 C 
ATOM     28  C   UNL     1      10.830   5.264  -0.098  0.00  0.00    +0.000 C 
ATOM     29  C   UNL     1      11.286   6.698  -0.339  0.00  0.00    +0.000 C 
ATOM     30  C   UNL     1      12.029   7.243   0.877  0.00  0.00    +0.000 C 
ATOM     31  C   UNL     1      11.170   7.161   2.138  0.00  0.00    +0.000 C 
BRANCH  29  32
ATOM     32  O   UNL     1      12.129   6.743  -1.484  0.00  0.00    +0.000 OA
ATOM     33  H   UNL     1      12.896   6.169  -1.320  0.00  0.00    +0.000 HD
ENDBRANCH  29  32
ENDBRANCH  24  26
ENDBRANCH  23  24
ENDBRANCH   4  23
TORSDOF 7
