REMARK  Name = 
REMARK  5 active torsions:
REMARK  status: ('A' for Active; 'I' for Inactive)
REMARK    1  A    between atoms: N_1  and  C_2
REMARK    2  A    between atoms: C_2  and  C_3
REMARK    3  A    between atoms: C_6  and  O_7
REMARK    4  A    between atoms: O_7  and  C_8
REMARK    5  A    between atoms: C_8  and  C_9
REMARK                            x       y       z     vdW  Elec       q    Type
REMARK                         _______ _______ _______ _____ _____    ______ ____
ROOT
ATOM      1  C   UNL     1       2.899  -0.239  -1.288  0.00  0.00    +0.000 A 
ATOM      2  C   UNL     1       3.325   0.770  -2.150  0.00  0.00    +0.000 A 
ATOM      3  C   UNL     1       3.773   0.423  -3.424  0.00  0.00    +0.000 A 
ATOM      4  C   UNL     1       3.785  -0.914  -3.809  0.00  0.00    +0.000 A 
ATOM      5  C   UNL     1       3.283  -1.843  -2.907  0.00  0.00    +0.000 A 
ATOM      6  N   UNL     1       2.849  -1.542  -1.661  0.00  0.00    +0.000 NA
ENDROOT
BRANCH   1   7
ATOM      7  C   UNL     1       2.407   0.085   0.103  0.00  0.00    +0.000 C 
BRANCH   7   8
ATOM      8  N   UNL     1       0.958   0.291   0.130  0.00  0.00    +0.000 NA
ATOM      9  H   UNL     1       0.646   0.282   1.098  0.00  0.00    +0.000 HD
ATOM     10  H   UNL     1       0.532  -0.529  -0.306  0.00  0.00    +0.000 HD
ENDBRANCH   7   8
ENDBRANCH   1   7
BRANCH   4  11
ATOM     11  O   UNL     1       4.297  -1.189  -5.047  0.00  0.00    +0.000 OA
BRANCH  11  12
ATOM     12  C   UNL     1       4.733  -2.538  -5.223  0.00  0.00    +0.000 C 
BRANCH  12  13
ATOM     13  C   UNL     1       5.682  -2.616  -6.392  0.00  0.00    +0.000 A 
ATOM     14  C   UNL     1       7.026  -2.962  -6.187  0.00  0.00    +0.000 A 
ATOM     15  C   UNL     1       7.903  -3.069  -7.268  0.00  0.00    +0.000 A 
ATOM     16  C   UNL     1       7.440  -2.825  -8.559  0.00  0.00    +0.000 A 
ATOM     17 CL   UNL     1       8.519  -2.964  -9.892  0.00  0.00    +0.000 Cl
ATOM     18  C   UNL     1       6.110  -2.473  -8.777  0.00  0.00    +0.000 A 
ATOM     19  C   UNL     1       5.232  -2.366  -7.696  0.00  0.00    +0.000 A 
ENDBRANCH  12  13
ENDBRANCH  11  12
ENDBRANCH   4  11
TORSDOF 5
