REMARK  Name = 
REMARK  5 active torsions:
REMARK  status: ('A' for Active; 'I' for Inactive)
REMARK    1  A    between atoms: C_2  and  C_4
REMARK    2  A    between atoms: C_8  and  C_9
REMARK    3  A    between atoms: C_9  and  C_10
REMARK    4  A    between atoms: C_10  and  C_11
REMARK    5  A    between atoms: C_15  and  C_16
REMARK                            x       y       z     vdW  Elec       q    Type
REMARK                         _______ _______ _______ _____ _____    ______ ____
ROOT
ATOM      1  C   UNL     1       1.782   4.888   0.141  0.00  0.00    +0.000 C 
ENDROOT
BRANCH   1   2
ATOM      2  C   UNL     1       1.417   6.325   0.457  0.00  0.00    +0.000 A 
ATOM      3  C   UNL     1       0.807   6.624   1.681  0.00  0.00    +0.000 A 
ATOM      4  C   UNL     1       0.482   7.940   2.007  0.00  0.00    +0.000 A 
ATOM      5  C   UNL     1       0.769   8.977   1.115  0.00  0.00    +0.000 A 
ATOM      6  C   UNL     1       1.372   8.719  -0.124  0.00  0.00    +0.000 A 
ATOM      7  C   UNL     1       1.654   7.377  -0.443  0.00  0.00    +0.000 A 
BRANCH   6   8
ATOM      8  C   UNL     1       1.756   9.808  -1.045  0.00  0.00    +0.000 A 
ATOM      9  C   UNL     1       2.300  11.010  -0.575  0.00  0.00    +0.000 A 
ATOM     10  N   UNL     1       2.719  12.039  -1.356  0.00  0.00    +0.000 NA
ATOM     11  C   UNL     1       2.602  11.863  -2.689  0.00  0.00    +0.000 A 
ATOM     12  C   UNL     1       2.084  10.717  -3.262  0.00  0.00    +0.000 A 
ATOM     13  F   UNL     1       2.008  10.592  -4.593  0.00  0.00    +0.000 F 
ATOM     14  C   UNL     1       1.652   9.685  -2.438  0.00  0.00    +0.000 A 
ENDBRANCH   6   8
ENDBRANCH   1   2
BRANCH   1  15
ATOM     15  C   UNL     1       2.975   4.730  -0.814  0.00  0.00    +0.000 C 
BRANCH  15  20
ATOM     16  C   UNL     1       3.194   1.240  -2.298  0.00  0.00    +0.000 A 
ATOM     17  C   UNL     1       4.115   0.687  -1.420  0.00  0.00    +0.000 A 
ATOM     18  N   UNL     1       4.676   1.370  -0.391  0.00  0.00    +0.000 NA
ATOM     19  C   UNL     1       4.290   2.655  -0.229  0.00  0.00    +0.000 A 
ATOM     20  C   UNL     1       3.360   3.296  -1.041  0.00  0.00    +0.000 A 
ATOM     21  C   UNL     1       2.796   2.561  -2.089  0.00  0.00    +0.000 A 
BRANCH  16  23
ATOM     22  N   UNL     1       2.279   1.087  -4.539  0.00  0.00    +0.000 N 
ATOM     23  C   UNL     1       2.668   0.422  -3.408  0.00  0.00    +0.000 C 
ATOM     24  O   UNL     1       2.616  -0.799  -3.336  0.00  0.00    +0.000 OA
ATOM     25  H   UNL     1       2.021   0.511  -5.331  0.00  0.00    +0.000 HD
ATOM     26  H   UNL     1       2.548   2.040  -4.727  0.00  0.00    +0.000 HD
ENDBRANCH  16  23
ENDBRANCH  15  20
ENDBRANCH   1  15
TORSDOF 5
