REMARK  Name = 
REMARK  5 active torsions:
REMARK  status: ('A' for Active; 'I' for Inactive)
REMARK    1  A    between atoms: C_1  and  C_2
REMARK    2  A    between atoms: C_2  and  O_3
REMARK    3  A    between atoms: C_2  and  C_13
REMARK    4  A    between atoms: O_3  and  C_4
REMARK    5  A    between atoms: C_7  and  C_8
REMARK                            x       y       z     vdW  Elec       q    Type
REMARK                         _______ _______ _______ _____ _____    ______ ____
ROOT
ATOM      1  C   UNL     1       2.449   2.520  -0.162  0.00  0.00    +0.000 A 
ATOM      2  C   UNL     1       2.155   3.679   0.554  0.00  0.00    +0.000 A 
ATOM      3  C   UNL     1       1.775   4.838  -0.124  0.00  0.00    +0.000 A 
ATOM      4  C   UNL     1       1.722   4.797  -1.511  0.00  0.00    +0.000 A 
ATOM      5  N   UNL     1       2.034   3.696  -2.248  0.00  0.00    +0.000 NA
ATOM      6  C   UNL     1       2.398   2.591  -1.551  0.00  0.00    +0.000 A 
ENDROOT
BRANCH   4   7
ATOM      7  C   UNL     1       1.301   6.011  -2.279  0.00  0.00    +0.000 C 
ATOM      8  N   UNL     1       1.277   5.865  -3.640  0.00  0.00    +0.000 N 
ATOM      9  O   UNL     1       0.994   7.066  -1.736  0.00  0.00    +0.000 OA
ATOM     10  H   UNL     1       1.544   4.977  -4.050  0.00  0.00    +0.000 HD
ATOM     11  H   UNL     1       1.011   6.643  -4.223  0.00  0.00    +0.000 HD
ENDBRANCH   4   7
BRANCH   1  12
ATOM     12  O   UNL     1       2.767   1.414   0.580  0.00  0.00    +0.000 OA
BRANCH  12  14
ATOM     13  C   UNL     1       0.939  -0.066  -0.094  0.00  0.00    +0.000 C 
ATOM     14  C   UNL     1       2.456   0.131   0.005  0.00  0.00    +0.000 C 
BRANCH  14  15
ATOM     15  C   UNL     1       3.017  -1.009   0.847  0.00  0.00    +0.000 A 
ATOM     16  C   UNL     1       3.148  -0.913   2.231  0.00  0.00    +0.000 A 
ATOM     17  C   UNL     1       3.539  -2.040   2.951  0.00  0.00    +0.000 A 
ATOM     18  C   UNL     1       3.789  -3.231   2.279  0.00  0.00    +0.000 A 
ATOM     19  C   UNL     1       3.651  -3.243   0.904  0.00  0.00    +0.000 A 
ATOM     20  N   UNL     1       3.273  -2.168   0.179  0.00  0.00    +0.000 NA
ENDBRANCH  14  15
ENDBRANCH  12  14
ENDBRANCH   1  12
TORSDOF 4
