REMARK  Name = 
REMARK  5 active torsions:
REMARK  status: ('A' for Active; 'I' for Inactive)
REMARK    1  A    between atoms: C_2  and  C_4
REMARK    2  A    between atoms: C_10  and  N_11
REMARK    3  A    between atoms: N_11  and  C_12
REMARK    4  A    between atoms: C_12  and  C_13
REMARK    5  A    between atoms: C_17  and  N_18
REMARK                            x       y       z     vdW  Elec       q    Type
REMARK                         _______ _______ _______ _____ _____    ______ ____
ROOT
ATOM      1  N   UNL     1       4.822  -1.569  -0.483  0.00  0.00    +0.000 N 
ATOM      2  H   UNL     1       5.804  -1.486  -0.220  0.00  0.00    +0.000 HD
ENDROOT
BRANCH   1   9
ATOM      3  C   UNL     1       5.151   0.203  -2.178  0.00  0.00    +0.000 A 
ATOM      4  C   UNL     1       4.710   1.412  -2.743  0.00  0.00    +0.000 A 
ATOM      5  C   UNL     1       3.542   2.003  -2.285  0.00  0.00    +0.000 A 
ATOM      6  C   UNL     1       2.860   1.363  -1.274  0.00  0.00    +0.000 A 
ATOM      7  F   UNL     1       1.717   1.906  -0.832  0.00  0.00    +0.000 F 
ATOM      8  N   UNL     1       3.267   0.215  -0.691  0.00  0.00    +0.000 NA
ATOM      9  C   UNL     1       4.417  -0.363  -1.117  0.00  0.00    +0.000 A 
BRANCH   3  11
ATOM     10  N   UNL     1       6.486  -1.748  -2.758  0.00  0.00    +0.000 N 
ATOM     11  C   UNL     1       6.368  -0.390  -2.786  0.00  0.00    +0.000 C 
ATOM     12  O   UNL     1       7.208   0.306  -3.341  0.00  0.00    +0.000 OA
ATOM     13  H   UNL     1       7.248  -2.173  -3.268  0.00  0.00    +0.000 HD
ATOM     14  H   UNL     1       5.757  -2.341  -2.373  0.00  0.00    +0.000 HD
ENDBRANCH   3  11
ENDBRANCH   1   9
BRANCH   1  15
ATOM     15  C   UNL     1       3.986  -1.911   0.673  0.00  0.00    +0.000 C 
BRANCH  15  16
ATOM     16  C   UNL     1       4.518  -3.105   1.424  0.00  0.00    +0.000 A 
ATOM     17  C   UNL     1       4.194  -4.398   1.040  0.00  0.00    +0.000 A 
ATOM     18  N   UNL     1       4.565  -5.501   1.725  0.00  0.00    +0.000 NA
ATOM     19  C   UNL     1       5.291  -5.295   2.852  0.00  0.00    +0.000 A 
ATOM     20  C   UNL     1       5.704  -4.055   3.346  0.00  0.00    +0.000 A 
ATOM     21  C   UNL     1       5.297  -2.952   2.583  0.00  0.00    +0.000 A 
BRANCH  20  22
ATOM     22  N   UNL     1       6.443  -3.920   4.501  0.00  0.00    +0.000 N 
ATOM     23  C   UNL     1       6.356  -2.759   5.400  0.00  0.00    +0.000 C 
ATOM     24  C   UNL     1       7.739  -2.113   5.570  0.00  0.00    +0.000 C 
ATOM     25  O   UNL     1       8.728  -3.073   5.981  0.00  0.00    +0.000 OA
ATOM     26  C   UNL     1       8.834  -4.128   5.010  0.00  0.00    +0.000 C 
ATOM     27  C   UNL     1       7.502  -4.881   4.846  0.00  0.00    +0.000 C 
ENDBRANCH  20  22
ENDBRANCH  15  16
ENDBRANCH   1  15
TORSDOF 5
