REMARK  Name = 
REMARK  8 active torsions:
REMARK  status: ('A' for Active; 'I' for Inactive)
REMARK    1  A    between atoms: C_1  and  C_2
REMARK    2  A    between atoms: C_2  and  C_3
REMARK    3  A    between atoms: C_2  and  C_14
REMARK    4  A    between atoms: C_3  and  O_4
REMARK    5  A    between atoms: O_4  and  C_5
REMARK    6  A    between atoms: C_8  and  C_9
REMARK    7  A    between atoms: C_9  and  O_11
REMARK    8  A    between atoms: C_18  and  C_19
REMARK                            x       y       z     vdW  Elec       q    Type
REMARK                         _______ _______ _______ _____ _____    ______ ____
ROOT
ATOM      1  C   UNL     1       3.044   0.723  -1.227  0.00  0.00    +0.000 C 
ENDROOT
BRANCH   1   3
ATOM      2  C   UNL     1       0.975  -0.120   0.031  0.00  0.00    +0.000 C 
ATOM      3  C   UNL     1       2.413   0.301   0.070  0.00  0.00    +0.000 C 
BRANCH   3   4
ATOM      4  C   UNL     1       3.010   0.713   1.350  0.00  0.00    +0.000 A 
ATOM      5  C   UNL     1       2.864  -0.078   2.497  0.00  0.00    +0.000 A 
ATOM      6  C   UNL     1       3.414   0.320   3.718  0.00  0.00    +0.000 A 
ATOM      7  C   UNL     1       4.119   1.519   3.809  0.00  0.00    +0.000 A 
ATOM      8  C   UNL     1       4.281   2.317   2.675  0.00  0.00    +0.000 A 
ATOM      9  C   UNL     1       3.733   1.911   1.454  0.00  0.00    +0.000 A 
BRANCH   8  10
ATOM     10  C   UNL     1       4.999   3.553   2.758  0.00  0.00    +0.000 C 
ATOM     11  N   UNL     1       5.582   4.556   2.826  0.00  0.00    +0.000 NA
ENDBRANCH   8  10
ENDBRANCH   3   4
ENDBRANCH   1   3
BRANCH   1  12
ATOM     12  O   UNL     1       2.448   1.958  -1.611  0.00  0.00    +0.000 OA
BRANCH  12  13
ATOM     13  C   UNL     1       2.944   2.418  -2.806  0.00  0.00    +0.000 A 
ATOM     14  N   UNL     1       2.117   3.221  -3.492  0.00  0.00    +0.000 NA
ATOM     15  C   UNL     1       2.578   3.682  -4.672  0.00  0.00    +0.000 A 
ATOM     16  C   UNL     1       3.813   3.353  -5.184  0.00  0.00    +0.000 A 
ATOM     17  C   UNL     1       4.600   2.565  -4.374  0.00  0.00    +0.000 A 
ATOM     18  N   UNL     1       4.186   2.073  -3.186  0.00  0.00    +0.000 NA
BRANCH  16  19
ATOM     19  C   UNL     1       4.326   3.811  -6.478  0.00  0.00    +0.000 C 
ATOM     20  O   UNL     1       5.518   3.956  -6.685  0.00  0.00    +0.000 OA
BRANCH  19  21
ATOM     21  O   UNL     1       3.384   4.005  -7.423  0.00  0.00    +0.000 OA
ATOM     22  H   UNL     1       2.483   3.681  -7.239  0.00  0.00    +0.000 HD
ENDBRANCH  19  21
ENDBRANCH  16  19
ENDBRANCH  12  13
ENDBRANCH   1  12
TORSDOF 7
