REMARK  Name = 
REMARK  2 active torsions:
REMARK  status: ('A' for Active; 'I' for Inactive)
REMARK    1  A    between atoms: C_4  and  C_5
REMARK    2  A    between atoms: C_5  and  N_6
REMARK                            x       y       z     vdW  Elec       q    Type
REMARK                         _______ _______ _______ _____ _____    ______ ____
ROOT
ATOM      1  N   UNL     1      -0.383  -3.632   0.138  0.00  0.00    +0.000 N 
ATOM      2  C   UNL     1      -0.278  -4.623  -0.802  0.00  0.00    +0.000 A 
ATOM      3  N   UNL     1       0.694  -5.459  -0.520  0.00  0.00    +0.000 NA
ATOM      4  C   UNL     1       1.239  -4.998   0.651  0.00  0.00    +0.000 A 
ATOM      5  C   UNL     1       2.321  -5.497   1.392  0.00  0.00    +0.000 A 
ATOM      6  C   UNL     1       2.692  -4.844   2.573  0.00  0.00    +0.000 A 
ATOM      7  C   UNL     1       1.996  -3.718   3.014  0.00  0.00    +0.000 A 
ATOM      8  C   UNL     1       0.921  -3.198   2.286  0.00  0.00    +0.000 A 
ATOM      9  C   UNL     1       0.571  -3.859   1.103  0.00  0.00    +0.000 A 
ENDROOT
BRANCH   1  10
ATOM     10  C   UNL     1      -1.255  -2.477   0.035  0.00  0.00    +0.000 C 
BRANCH  10  14
ATOM     11  C   UNL     1      -5.238  -3.173   1.368  0.00  0.00    +0.000 A 
ATOM     12  C   UNL     1      -4.203  -3.301   2.284  0.00  0.00    +0.000 A 
ATOM     13  C   UNL     1      -2.891  -3.086   1.869  0.00  0.00    +0.000 A 
ATOM     14  C   UNL     1      -2.648  -2.755   0.536  0.00  0.00    +0.000 A 
ATOM     15  N   UNL     1      -3.654  -2.618  -0.366  0.00  0.00    +0.000 NA
ATOM     16  C   UNL     1      -4.917  -2.830   0.067  0.00  0.00    +0.000 A 
ENDBRANCH  10  14
ENDBRANCH   1  10
TORSDOF 2
