REMARK  Name = 
REMARK  5 active torsions:
REMARK  status: ('A' for Active; 'I' for Inactive)
REMARK    1  A    between atoms: C_2  and  C_4
REMARK    2  A    between atoms: C_7  and  O_8
REMARK    3  A    between atoms: O_8  and  C_9
REMARK    4  A    between atoms: C_9  and  C_10
REMARK    5  A    between atoms: C_15  and  C_16
REMARK                            x       y       z     vdW  Elec       q    Type
REMARK                         _______ _______ _______ _____ _____    ______ ____
ROOT
ATOM      1  C   UNL     1       4.928  -1.007  -5.789  0.00  0.00    +0.000 C 
ATOM      2  C   UNL     1       4.848   0.397  -6.387  0.00  0.00    +0.000 C 
ATOM      3  C   UNL     1       3.604  -0.415  -6.224  0.00  0.00    +0.000 C 
ENDROOT
BRANCH   1   4
ATOM      4  C   UNL     1       5.568  -2.111  -6.612  0.00  0.00    +0.000 A 
ATOM      5  C   UNL     1       6.789  -1.923  -7.276  0.00  0.00    +0.000 A 
ATOM      6  C   UNL     1       7.397  -2.966  -7.970  0.00  0.00    +0.000 A 
ATOM      7  C   UNL     1       6.800  -4.224  -7.995  0.00  0.00    +0.000 A 
ATOM      8  F   UNL     1       7.462  -5.204  -8.630  0.00  0.00    +0.000 F 
ATOM      9  C   UNL     1       5.572  -4.479  -7.364  0.00  0.00    +0.000 A 
ATOM     10  C   UNL     1       4.975  -3.389  -6.694  0.00  0.00    +0.000 A 
BRANCH   9  11
ATOM     11  C   UNL     1       4.937  -5.817  -7.370  0.00  0.00    +0.000 A 
ATOM     12  C   UNL     1       5.073  -6.714  -8.431  0.00  0.00    +0.000 A 
ATOM     13  C   UNL     1       4.463  -7.954  -8.356  0.00  0.00    +0.000 A 
ATOM     14  N   UNL     1       3.719  -8.341  -7.303  0.00  0.00    +0.000 NA
ATOM     15  N   UNL     1       3.562  -7.490  -6.264  0.00  0.00    +0.000 NA
ATOM     16  C   UNL     1       4.161  -6.276  -6.306  0.00  0.00    +0.000 A 
ENDBRANCH   9  11
ENDBRANCH   1   4
BRANCH   1  17
ATOM     17  O   UNL     1       5.329  -0.939  -4.400  0.00  0.00    +0.000 OA
BRANCH  17  21
ATOM     18  C   UNL     1       3.257  -2.794  -1.445  0.00  0.00    +0.000 A 
ATOM     19  C   UNL     1       2.862  -2.960  -2.769  0.00  0.00    +0.000 A 
ATOM     20  N   UNL     1       3.530  -2.396  -3.814  0.00  0.00    +0.000 NA
ATOM     21  C   UNL     1       4.613  -1.663  -3.466  0.00  0.00    +0.000 A 
ATOM     22  C   UNL     1       5.027  -1.531  -2.142  0.00  0.00    +0.000 A 
ATOM     23  N   UNL     1       4.363  -2.082  -1.096  0.00  0.00    +0.000 NA
BRANCH  18  25
ATOM     24  N   UNL     1       2.834  -3.058   0.931  0.00  0.00    +0.000 N 
ATOM     25  C   UNL     1       2.426  -3.357  -0.341  0.00  0.00    +0.000 C 
ATOM     26  O   UNL     1       1.427  -4.026  -0.559  0.00  0.00    +0.000 OA
ATOM     27  H   UNL     1       2.277  -3.371   1.714  0.00  0.00    +0.000 HD
ATOM     28  H   UNL     1       3.639  -2.462   1.083  0.00  0.00    +0.000 HD
ENDBRANCH  18  25
ENDBRANCH  17  21
ENDBRANCH   1  17
TORSDOF 5
