REMARK  Name = 
REMARK  4 active torsions:
REMARK  status: ('A' for Active; 'I' for Inactive)
REMARK    1  A    between atoms: C_2  and  C_3
REMARK    2  A    between atoms: C_6  and  C_7
REMARK    3  A    between atoms: C_7  and  C_8
REMARK    4  A    between atoms: C_12  and  C_13
REMARK                            x       y       z     vdW  Elec       q    Type
REMARK                         _______ _______ _______ _____ _____    ______ ____
ROOT
ATOM      1  C   UNL     1       8.249   1.334   0.906  0.00  0.00    +0.000 A 
ATOM      2  C   UNL     1       8.726   1.355   2.227  0.00  0.00    +0.000 A 
ATOM      3  C   UNL     1       8.862   2.559   2.919  0.00  0.00    +0.000 A 
ATOM      4  C   UNL     1       8.479   3.763   2.320  0.00  0.00    +0.000 A 
ATOM      5  C   UNL     1       7.982   3.793   1.010  0.00  0.00    +0.000 A 
ATOM      6  C   UNL     1       7.939   2.572   0.314  0.00  0.00    +0.000 A 
ATOM      7  F   UNL     1       7.494   2.555  -0.956  0.00  0.00    +0.000 F 
ENDROOT
BRANCH   5   8
ATOM      8  C   UNL     1       7.399   5.022   0.426  0.00  0.00    +0.000 A 
ATOM      9  C   UNL     1       7.567   5.364  -0.928  0.00  0.00    +0.000 A 
ATOM     10  C   UNL     1       6.909   6.464  -1.488  0.00  0.00    +0.000 A 
ATOM     11  C   UNL     1       6.082   7.260  -0.699  0.00  0.00    +0.000 A 
ATOM     12  C   UNL     1       5.914   6.956   0.647  0.00  0.00    +0.000 A 
ATOM     13  C   UNL     1       6.561   5.850   1.199  0.00  0.00    +0.000 A 
ENDBRANCH   5   8
BRANCH   1  14
ATOM     14  C   UNL     1       7.900   0.038   0.177  0.00  0.00    +0.000 C 
ATOM     15  C   UNL     1       8.690  -0.317  -1.079  0.00  0.00    +0.000 C 
ATOM     16  C   UNL     1       8.895  -1.113   0.169  0.00  0.00    +0.000 C 
BRANCH  14  20
ATOM     17  C   UNL     1       3.695  -0.743   0.342  0.00  0.00    +0.000 A 
ATOM     18  C   UNL     1       4.173   0.003  -0.716  0.00  0.00    +0.000 A 
ATOM     19  C   UNL     1       5.545   0.230  -0.789  0.00  0.00    +0.000 A 
ATOM     20  C   UNL     1       6.401  -0.282   0.188  0.00  0.00    +0.000 A 
ATOM     21  N   UNL     1       5.876  -1.012   1.203  0.00  0.00    +0.000 NA
ATOM     22  N   UNL     1       4.516  -1.248   1.283  0.00  0.00    +0.000 NA
BRANCH  17  24
ATOM     23  N   UNL     1       1.158  -1.223   0.579  0.00  0.00    +0.000 NA
ATOM     24  C   UNL     1       2.301  -1.022   0.497  0.00  0.00    +0.000 C 
ENDBRANCH  17  24
ENDBRANCH  14  20
ENDBRANCH   1  14
TORSDOF 4
