REMARK  Name = 
REMARK  7 active torsions:
REMARK  status: ('A' for Active; 'I' for Inactive)
REMARK    1  A    between atoms: C_1  and  C_2
REMARK    2  A    between atoms: C_2  and  C_3
REMARK    3  A    between atoms: C_2  and  C_4
REMARK    4  A    between atoms: C_2  and  C_22
REMARK    5  A    between atoms: C_4  and  N_5
REMARK    6  A    between atoms: C_10  and  C_11
REMARK    7  A    between atoms: C_14  and  C_15
REMARK                            x       y       z     vdW  Elec       q    Type
REMARK                         _______ _______ _______ _____ _____    ______ ____
ROOT
ATOM      1  N   UNL     1       2.610   2.394   0.912  0.00  0.00    +0.000 N 
ATOM      2  C   UNL     1       3.000   3.331   1.848  0.00  0.00    +0.000 A 
ATOM      3  C   UNL     1       3.769   3.014   2.960  0.00  0.00    +0.000 A 
ATOM      4  C   UNL     1       4.167   4.015   3.835  0.00  0.00    +0.000 A 
ATOM      5  C   UNL     1       3.835   5.328   3.544  0.00  0.00    +0.000 A 
ATOM      6  C   UNL     1       3.096   5.605   2.395  0.00  0.00    +0.000 A 
ATOM      7  N   UNL     1       2.650   4.607   1.576  0.00  0.00    +0.000 NA
ATOM      8  H   UNL     1       1.761   2.694   0.439  0.00  0.00    +0.000 HD
ENDROOT
BRANCH   6   9
ATOM      9  C   UNL     1       2.824   7.003   1.975  0.00  0.00    +0.000 A 
ATOM     10  C   UNL     1       2.113   7.318   0.818  0.00  0.00    +0.000 A 
ATOM     11  C   UNL     1       1.955   8.656   0.448  0.00  0.00    +0.000 A 
ATOM     12  C   UNL     1       2.511   9.665   1.236  0.00  0.00    +0.000 A 
ATOM     13  C   UNL     1       3.195   9.275   2.374  0.00  0.00    +0.000 A 
ATOM     14  N   UNL     1       3.358   7.987   2.756  0.00  0.00    +0.000 NA
BRANCH  12  15
ATOM     15  C   UNL     1       2.407  11.119   0.900  0.00  0.00    +0.000 C 
ATOM     16  F   UNL     1       1.710  11.366  -0.244  0.00  0.00    +0.000 F 
ATOM     17  F   UNL     1       1.786  11.836   1.877  0.00  0.00    +0.000 F 
ATOM     18  F   UNL     1       3.625  11.704   0.727  0.00  0.00    +0.000 F 
ENDBRANCH  12  15
ENDBRANCH   6   9
BRANCH   1  19
ATOM     19  C   UNL     1       2.837   0.967   1.103  0.00  0.00    +0.000 C 
BRANCH  19  21
ATOM     20  C   UNL     1       3.084   0.520  -1.384  0.00  0.00    +0.000 C 
ATOM     21  C   UNL     1       2.356   0.092  -0.089  0.00  0.00    +0.000 C 
ATOM     22  C   UNL     1       2.775  -1.369   0.206  0.00  0.00    +0.000 C 
BRANCH  21  23
ATOM     23  C   UNL     1       0.829   0.142  -0.180  0.00  0.00    +0.000 A 
ATOM     24  C   UNL     1       0.148   0.507  -1.340  0.00  0.00    +0.000 A 
ATOM     25  C   UNL     1      -1.246   0.539  -1.336  0.00  0.00    +0.000 A 
ATOM     26  C   UNL     1      -1.935   0.209  -0.179  0.00  0.00    +0.000 A 
ATOM     27  C   UNL     1      -1.196  -0.150   0.930  0.00  0.00    +0.000 A 
ATOM     28  N   UNL     1       0.154  -0.197   0.950  0.00  0.00    +0.000 NA
ENDBRANCH  21  23
ENDBRANCH  19  21
ENDBRANCH   1  19
TORSDOF 5
