REMARK  Name = 
REMARK  5 active torsions:
REMARK  status: ('A' for Active; 'I' for Inactive)
REMARK    1  A    between atoms: C_2  and  C_5
REMARK    2  A    between atoms: C_7  and  N_8
REMARK    3  A    between atoms: C_16  and  C_17
REMARK    4  A    between atoms: C_17  and  O_18
REMARK    5  A    between atoms: O_18  and  C_19
REMARK                            x       y       z     vdW  Elec       q    Type
REMARK                         _______ _______ _______ _____ _____    ______ ____
ROOT
ATOM      1  C   UNL     1       2.590  -1.222   0.796  0.00  0.00    +0.000 A 
ATOM      2  C   UNL     1       2.174  -2.532   0.502  0.00  0.00    +0.000 A 
ATOM      3  C   UNL     1       2.559  -3.618   1.276  0.00  0.00    +0.000 A 
ATOM      4  N   UNL     1       3.311  -3.373   2.360  0.00  0.00    +0.000 NA
ATOM      5  N   UNL     1       3.755  -2.089   2.666  0.00  0.00    +0.000 NA
ATOM      6  C   UNL     1       3.421  -1.033   1.892  0.00  0.00    +0.000 A 
ENDROOT
BRANCH   3   7
ATOM      7  N   UNL     1       2.137  -4.895   0.947  0.00  0.00    +0.000 N 
ATOM      8  C   UNL     1       2.081  -5.933   1.984  0.00  0.00    +0.000 C 
ATOM      9  C   UNL     1       3.031  -7.112   1.684  0.00  0.00    +0.000 C 
ATOM     10  N   UNL     1       2.887  -7.654   0.316  0.00  0.00    +0.000 NA
ATOM     11  C   UNL     1       3.126  -6.556  -0.638  0.00  0.00    +0.000 C 
ATOM     12  C   UNL     1       2.179  -5.350  -0.450  0.00  0.00    +0.000 C 
ATOM     13  H   UNL     1       1.924  -7.973   0.202  0.00  0.00    +0.000 HD
ENDBRANCH   3   7
BRANCH   1  15
ATOM     14  F   UNL     1       1.361  -0.514  -1.127  0.00  0.00    +0.000 F 
ATOM     15  C   UNL     1       2.151  -0.101  -0.090  0.00  0.00    +0.000 C 
ATOM     16  F   UNL     1       3.197   0.542  -0.677  0.00  0.00    +0.000 F 
ATOM     17  F   UNL     1       1.433   0.848   0.561  0.00  0.00    +0.000 F 
ENDBRANCH   1  15
BRANCH   6  18
ATOM     18  C   UNL     1       4.031   0.296   2.275  0.00  0.00    +0.000 C 
BRANCH  18  19
ATOM     19  O   UNL     1       3.189   0.991   3.195  0.00  0.00    +0.000 OA
BRANCH  19  20
ATOM     20  C   UNL     1       3.620   2.227   3.602  0.00  0.00    +0.000 A 
ATOM     21  C   UNL     1       4.859   2.806   3.309  0.00  0.00    +0.000 A 
ATOM     22  C   UNL     1       5.155   4.103   3.750  0.00  0.00    +0.000 A 
ATOM     23  C   UNL     1       4.217   4.817   4.490  0.00  0.00    +0.000 A 
ATOM     24 CL   UNL     1       4.572   6.422   5.000  0.00  0.00    +0.000 Cl
ATOM     25  C   UNL     1       2.994   4.239   4.815  0.00  0.00    +0.000 A 
ATOM     26  C   UNL     1       2.701   2.945   4.375  0.00  0.00    +0.000 A 
ENDBRANCH  19  20
ENDBRANCH  18  19
ENDBRANCH   6  18
TORSDOF 5
