REMARK  Name = 
REMARK  4 active torsions:
REMARK  status: ('A' for Active; 'I' for Inactive)
REMARK    1  A    between atoms: C_1  and  C_2
REMARK    2  A    between atoms: C_2  and  C_3
REMARK    3  A    between atoms: C_10  and  N_11
REMARK    4  A    between atoms: C_15  and  C_16
REMARK                            x       y       z     vdW  Elec       q    Type
REMARK                         _______ _______ _______ _____ _____    ______ ____
ROOT
ATOM      1  N   UNL     1       5.388  -1.625   0.790  0.00  0.00    +0.000 N 
ATOM      2  C   UNL     1       5.668  -2.901   1.309  0.00  0.00    +0.000 A 
ATOM      3  C   UNL     1       6.720  -3.626   0.755  0.00  0.00    +0.000 A 
ATOM      4  C   UNL     1       7.035  -4.887   1.267  0.00  0.00    +0.000 A 
ATOM      5  C   UNL     1       6.292  -5.411   2.325  0.00  0.00    +0.000 A 
ATOM      6  C   UNL     1       5.249  -4.635   2.797  0.00  0.00    +0.000 A 
ATOM      7  N   UNL     1       4.920  -3.412   2.308  0.00  0.00    +0.000 NA
ATOM      8  H   UNL     1       6.250  -1.084   0.797  0.00  0.00    +0.000 HD
ENDROOT
BRANCH   1  12
ATOM      9  C   UNL     1       0.992   0.257   0.179  0.00  0.00    +0.000 C 
ATOM     10  C   UNL     1       2.511   0.068   0.056  0.00  0.00    +0.000 C 
ATOM     11  C   UNL     1       2.953  -1.245   0.718  0.00  0.00    +0.000 C 
ATOM     12  C   UNL     1       4.262  -0.926   1.427  0.00  0.00    +0.000 C 
ATOM     13  C   UNL     1       4.384   0.591   1.323  0.00  0.00    +0.000 C 
ATOM     14  O   UNL     1       3.132   1.100   0.847  0.00  0.00    +0.000 OA
BRANCH  10  15
ATOM     15  C   UNL     1       2.920   0.196  -1.407  0.00  0.00    +0.000 A 
ATOM     16  C   UNL     1       2.491  -0.721  -2.376  0.00  0.00    +0.000 A 
ATOM     17  C   UNL     1       2.871  -0.566  -3.709  0.00  0.00    +0.000 A 
ATOM     18  C   UNL     1       3.680   0.505  -4.042  0.00  0.00    +0.000 A 
ATOM     19  N   UNL     1       4.105   1.422  -3.152  0.00  0.00    +0.000 NA
ATOM     20  C   UNL     1       3.705   1.254  -1.868  0.00  0.00    +0.000 A 
ENDBRANCH  10  15
ENDBRANCH   1  12
BRANCH   5  21
ATOM     21  C   UNL     1       6.646  -6.741   2.876  0.00  0.00    +0.000 C 
ATOM     22  N   UNL     1       5.935  -7.237   3.933  0.00  0.00    +0.000 N 
ATOM     23  O   UNL     1       7.570  -7.394   2.404  0.00  0.00    +0.000 OA
ATOM     24  H   UNL     1       5.172  -6.781   4.408  0.00  0.00    +0.000 HD
ATOM     25  H   UNL     1       6.223  -8.144   4.283  0.00  0.00    +0.000 HD
ENDBRANCH   5  21
TORSDOF 3
