REMARK  Name = 
REMARK  10 active torsions:
REMARK  status: ('A' for Active; 'I' for Inactive)
REMARK    1  A    between atoms: C_2  and  C_22
REMARK    2  A    between atoms: N_3  and  CA_4
REMARK    3  A    between atoms: CA_4  and  C_5
REMARK    4  A    between atoms: CA_4  and  C_7
REMARK    5  A    between atoms: C_5  and  O_6
REMARK    6  A    between atoms: C_10  and  C_11
REMARK    7  A    between atoms: C_11  and  C_12
REMARK    8  A    between atoms: C_12  and  C_13
REMARK    9  A    between atoms: C_13  and  O_14
REMARK   10  A    between atoms: C_13  and  C_15
REMARK                            x       y       z     vdW  Elec       q    Type
REMARK                         _______ _______ _______ _____ _____    ______ ____
ROOT
ATOM      1  CA  UNL     1       2.347   0.595  -2.277  0.00  0.00    +0.000 C 
ENDROOT
BRANCH   1   2
ATOM      2  C   UNL     1       3.219   0.896  -3.478  0.00  0.00    +0.000 A 
ATOM      3  C   UNL     1       3.461   2.187  -3.960  0.00  0.00    +0.000 A 
ATOM      4  C   UNL     1       4.319   2.382  -5.037  0.00  0.00    +0.000 A 
ATOM      5  C   UNL     1       4.907   1.275  -5.640  0.00  0.00    +0.000 A 
ATOM      6  N   UNL     1       4.643   0.009  -5.236  0.00  0.00    +0.000 NA
ATOM      7  C   UNL     1       3.809  -0.151  -4.181  0.00  0.00    +0.000 A 
BRANCH   5   8
ATOM      8  C   UNL     1       5.905   1.450  -6.750  0.00  0.00    +0.000 C 
BRANCH   8   9
ATOM      9  C   UNL     1       5.508   0.734  -8.041  0.00  0.00    +0.000 C 
BRANCH   9  10
ATOM     10  C   UNL     1       4.230   1.292  -8.671  0.00  0.00    +0.000 C 
BRANCH  10  11
ATOM     11  C   UNL     1       3.921   0.533  -9.961  0.00  0.00    +0.000 C 
ATOM     12  N   UNL     1       4.750   0.566 -10.977  0.00  0.00    +0.000 NA
ATOM     13  C   UNL     1       4.106  -0.322 -11.991  0.00  0.00    +0.000 C 
ATOM     14  C   UNL     1       2.993  -1.082 -11.258  0.00  0.00    +0.000 C 
ATOM     15  N   UNL     1       2.790  -0.229 -10.114  0.00  0.00    +0.000 N 
ATOM     16  H   UNL     1       2.359  -0.621  -9.285  0.00  0.00    +0.000 HD
ENDBRANCH  10  11
BRANCH  10  17
ATOM     17  O   UNL     1       4.406   2.671  -8.982  0.00  0.00    +0.000 OA
ATOM     18  H   UNL     1       4.983   2.682  -9.771  0.00  0.00    +0.000 HD
ENDBRANCH  10  17
ENDBRANCH   9  10
ENDBRANCH   8   9
ENDBRANCH   5   8
ENDBRANCH   1   2
BRANCH   1  21
ATOM     19  O   UNL     1       1.211  -1.976  -2.689  0.00  0.00    +0.000 OA
ATOM     20  C   UNL     1       0.522  -0.979  -2.905  0.00  0.00    +0.000 C 
ATOM     21  N   UNL     1       0.997   0.293  -2.719  0.00  0.00    +0.000 N 
ATOM     22  H   UNL     1       0.462   1.077  -3.064  0.00  0.00    +0.000 HD
BRANCH  20  23
ATOM     23  C   UNL     1      -0.880  -1.089  -3.328  0.00  0.00    +0.000 A 
ATOM     24  C   UNL     1      -1.566  -2.283  -3.155  0.00  0.00    +0.000 A 
ATOM     25  S   UNL     1      -3.209  -2.198  -3.608  0.00  0.00    +0.000 S 
ATOM     26  C   UNL     1      -3.051  -0.572  -4.084  0.00  0.00    +0.000 A 
ATOM     27  N   UNL     1      -4.119   0.128  -4.556  0.00  0.00    +0.000 NA
ATOM     28  C   UNL     1      -3.851   1.343  -4.900  0.00  0.00    +0.000 A 
ATOM     29  N   UNL     1      -2.608   1.917  -4.839  0.00  0.00    +0.000 N 
ATOM     30  C   UNL     1      -1.503   1.251  -4.366  0.00  0.00    +0.000 A 
ATOM     31  O   UNL     1      -0.407   1.800  -4.317  0.00  0.00    +0.000 OA
ATOM     32  C   UNL     1      -1.757  -0.110  -3.929  0.00  0.00    +0.000 A 
ATOM     33  H   UNL     1      -2.460   2.868  -5.137  0.00  0.00    +0.000 HD
ENDBRANCH  20  23
ENDBRANCH   1  21
BRANCH   1  34
ATOM     34  C   UNL     1       2.326   1.746  -1.237  0.00  0.00    +0.000 C 
BRANCH  34  35
ATOM     35  O   UNL     1       1.548   1.423  -0.084  0.00  0.00    +0.000 OA
ATOM     36  H   UNL     1       2.151   1.068   0.591  0.00  0.00    +0.000 HD
ENDBRANCH  34  35
ENDBRANCH   1  34
TORSDOF 10
