REMARK  Name = 
REMARK  11 active torsions:
REMARK  status: ('A' for Active; 'I' for Inactive)
REMARK    1  A    between atoms: C_1  and  C_2
REMARK    2  A    between atoms: C_2  and  N_3
REMARK    3  A    between atoms: C_2  and  C_15
REMARK    4  A    between atoms: N_3  and  C_4
REMARK    5  A    between atoms: C_4  and  C_5
REMARK    6  A    between atoms: N_8  and  C_9
REMARK    7  A    between atoms: C_9  and  C_10
REMARK    8  A    between atoms: C_10  and  O_12
REMARK    9  A    between atoms: C_18  and  C_19
REMARK   10  A    between atoms: C_19  and  N_20
REMARK   11  A    between atoms: C_21  and  C_23
REMARK                            x       y       z     vdW  Elec       q    Type
REMARK                         _______ _______ _______ _____ _____    ______ ____
ROOT
ATOM      1  C   UNL     1       3.170   1.346  -0.692  0.00  0.00    +0.000 A 
ATOM      2  C   UNL     1       2.450   2.531  -0.528  0.00  0.00    +0.000 A 
ATOM      3  C   UNL     1       2.813   3.657  -1.258  0.00  0.00    +0.000 A 
ATOM      4  C   UNL     1       3.951   3.618  -2.061  0.00  0.00    +0.000 A 
ATOM      5  C   UNL     1       4.678   2.434  -2.075  0.00  0.00    +0.000 A 
ATOM      6  N   UNL     1       4.313   1.306  -1.422  0.00  0.00    +0.000 NA
ENDROOT
BRANCH   1   8
ATOM      7  C   UNL     1       3.223  -1.214  -0.783  0.00  0.00    +0.000 C 
ATOM      8  C   UNL     1       2.626   0.034  -0.109  0.00  0.00    +0.000 C 
BRANCH   8   9
ATOM      9  N   UNL     1       1.136  -0.048  -0.106  0.00  0.00    +0.000 NA
ATOM     10  H   UNL     1       0.861  -0.925   0.335  0.00  0.00    +0.000 HD
BRANCH   9  11
ATOM     11  C   UNL     1       0.554   0.019  -1.451  0.00  0.00    +0.000 C 
BRANCH  11  12
ATOM     12  C   UNL     1      -0.987   0.045  -1.425  0.00  0.00    +0.000 C 
ATOM     13  C   UNL     1      -1.526   0.128  -2.864  0.00  0.00    +0.000 C 
ATOM     14  C   UNL     1      -1.374   1.527  -3.474  0.00  0.00    +0.000 C 
ATOM     15  N   UNL     1      -2.055   2.540  -2.635  0.00  0.00    +0.000 NA
ATOM     16  C   UNL     1      -1.427   2.555  -1.295  0.00  0.00    +0.000 C 
ATOM     17  C   UNL     1      -1.580   1.200  -0.603  0.00  0.00    +0.000 C 
BRANCH  15  18
ATOM     18  C   UNL     1      -1.914   3.902  -3.237  0.00  0.00    +0.000 C 
BRANCH  18  19
ATOM     19  C   UNL     1      -2.750   4.014  -4.509  0.00  0.00    +0.000 C 
ATOM     20  O   UNL     1      -2.531   4.797  -5.421  0.00  0.00    +0.000 OA
BRANCH  19  21
ATOM     21  O   UNL     1      -3.815   3.170  -4.496  0.00  0.00    +0.000 OA
ATOM     22  H   UNL     1      -3.738   2.630  -3.673  0.00  0.00    +0.000 HD
ENDBRANCH  19  21
ENDBRANCH  18  19
ENDBRANCH  15  18
ENDBRANCH  11  12
ENDBRANCH   9  11
ENDBRANCH   8   9
ENDBRANCH   1   8
BRANCH   4  23
ATOM     23  C   UNL     1       4.347   4.790  -2.906  0.00  0.00    +0.000 C 
BRANCH  23  24
ATOM     24  N   UNL     1       3.782   4.716  -4.235  0.00  0.00    +0.000 N 
ATOM     25  C   UNL     1       2.637   5.386  -4.584  0.00  0.00    +0.000 C 
ATOM     26  O   UNL     1       2.002   6.052  -3.768  0.00  0.00    +0.000 OA
ATOM     27  H   UNL     1       4.183   4.042  -4.880  0.00  0.00    +0.000 HD
BRANCH  25  28
ATOM     28  C   UNL     1       2.232   5.322  -5.995  0.00  0.00    +0.000 A 
ATOM     29  C   UNL     1       1.420   6.325  -6.513  0.00  0.00    +0.000 A 
ATOM     30  S   UNL     1       1.039   6.120  -8.162  0.00  0.00    +0.000 S 
ATOM     31  C   UNL     1       1.904   4.658  -8.234  0.00  0.00    +0.000 A 
ATOM     32  N   UNL     1       1.942   3.927  -9.383  0.00  0.00    +0.000 NA
ATOM     33  C   UNL     1       2.605   2.822  -9.286  0.00  0.00    +0.000 A 
ATOM     34  N   UNL     1       3.254   2.394  -8.159  0.00  0.00    +0.000 N 
ATOM     35  C   UNL     1       3.302   3.140  -7.002  0.00  0.00    +0.000 A 
ATOM     36  O   UNL     1       3.996   2.795  -6.051  0.00  0.00    +0.000 OA
ATOM     37  C   UNL     1       2.516   4.355  -7.031  0.00  0.00    +0.000 A 
ATOM     38  H   UNL     1       3.791   1.539  -8.167  0.00  0.00    +0.000 HD
ENDBRANCH  25  28
ENDBRANCH  23  24
ENDBRANCH   4  23
TORSDOF 10
