REMARK  Name = 
REMARK  10 active torsions:
REMARK  status: ('A' for Active; 'I' for Inactive)
REMARK    1  A    between atoms: C_1  and  C_2
REMARK    2  A    between atoms: C_2  and  C_3
REMARK    3  A    between atoms: C_2  and  C_22
REMARK    4  A    between atoms: C_3  and  N_4
REMARK    5  A    between atoms: N_4  and  C_5
REMARK    6  A    between atoms: C_7  and  C_8
REMARK    7  A    between atoms: C_8  and  C_9
REMARK    8  A    between atoms: C_14  and  O_15
REMARK    9  A    between atoms: O_15  and  C_16
REMARK   10  A    between atoms: C_18  and  C_19
REMARK                            x       y       z     vdW  Elec       q    Type
REMARK                         _______ _______ _______ _____ _____    ______ ____
ROOT
ATOM      1  C   UNL     1      -1.830   9.412   1.732  0.00  0.00    +0.000 A 
ATOM      2  C   UNL     1      -1.446   8.982   0.451  0.00  0.00    +0.000 A 
ATOM      3  C   UNL     1      -0.219   8.318   0.226  0.00  0.00    +0.000 A 
ATOM      4  C   UNL     1       0.644   8.090   1.307  0.00  0.00    +0.000 A 
ATOM      5  C   UNL     1       0.286   8.539   2.572  0.00  0.00    +0.000 A 
ATOM      6  C   UNL     1      -0.930   9.190   2.775  0.00  0.00    +0.000 A 
ENDROOT
BRANCH   1   7
ATOM      7  N   UNL     1      -3.018  10.149   1.889  0.00  0.00    +0.000 N 
ATOM      8  H   UNL     1      -3.779   9.747   1.345  0.00  0.00    +0.000 HD
BRANCH   7   9
ATOM      9  C   UNL     1      -3.392  10.574   3.243  0.00  0.00    +0.000 C 
BRANCH   9  11
ATOM     10  C   UNL     1      -4.540  12.713   2.456  0.00  0.00    +0.000 C 
ATOM     11  C   UNL     1      -4.683  11.420   3.267  0.00  0.00    +0.000 C 
BRANCH  11  12
ATOM     12  C   UNL     1      -5.086  11.715   4.705  0.00  0.00    +0.000 A 
ATOM     13  C   UNL     1      -6.245  11.158   5.254  0.00  0.00    +0.000 A 
ATOM     14  C   UNL     1      -6.578  11.412   6.583  0.00  0.00    +0.000 A 
ATOM     15  C   UNL     1      -5.737  12.217   7.331  0.00  0.00    +0.000 A 
ATOM     16  N   UNL     1      -4.610  12.774   6.843  0.00  0.00    +0.000 NA
ATOM     17  C   UNL     1      -4.312  12.513   5.549  0.00  0.00    +0.000 A 
ENDBRANCH  11  12
ENDBRANCH   9  11
ENDBRANCH   7   9
ENDBRANCH   1   7
BRANCH   3  18
ATOM     18  C   UNL     1       0.193   7.915  -1.174  0.00  0.00    +0.000 C 
BRANCH  18  19
ATOM     19  C   UNL     1       0.465   6.432  -1.411  0.00  0.00    +0.000 C 
ATOM     20  F   UNL     1       0.140   5.645  -0.365  0.00  0.00    +0.000 F 
ATOM     21  F   UNL     1      -0.233   5.986  -2.483  0.00  0.00    +0.000 F 
ATOM     22  F   UNL     1       1.778   6.226  -1.678  0.00  0.00    +0.000 F 
ENDBRANCH  18  19
ENDBRANCH   3  18
BRANCH   5  23
ATOM     23  O   UNL     1       1.037   8.379   3.705  0.00  0.00    +0.000 OA
BRANCH  23  24
ATOM     24  C   UNL     1       2.471   8.446   3.608  0.00  0.00    +0.000 C 
ATOM     25  C   UNL     1       3.124   9.693   2.955  0.00  0.00    +0.000 C 
ATOM     26  C   UNL     1       4.161   9.699   4.105  0.00  0.00    +0.000 C 
ATOM     27  C   UNL     1       5.477   8.980   3.856  0.00  0.00    +0.000 C 
ATOM     28  C   UNL     1       3.140   8.894   4.935  0.00  0.00    +0.000 C 
ENDBRANCH  23  24
ENDBRANCH   5  23
TORSDOF 8
