REMARK  Name = 
REMARK  7 active torsions:
REMARK  status: ('A' for Active; 'I' for Inactive)
REMARK    1  A    between atoms: C_1  and  C_2
REMARK    2  A    between atoms: C_2  and  C_3
REMARK    3  A    between atoms: C_2  and  C_4
REMARK    4  A    between atoms: C_2  and  C_5
REMARK    5  A    between atoms: N_7  and  C_8
REMARK    6  A    between atoms: C_8  and  C_9
REMARK    7  A    between atoms: C_18  and  C_19
REMARK                            x       y       z     vdW  Elec       q    Type
REMARK                         _______ _______ _______ _____ _____    ______ ____
ROOT
ATOM      1  C   UNL     1       2.885  -1.215  -0.734  0.00  0.00    +0.000 A 
ATOM      2  N   UNL     1       2.504  -2.459  -0.408  0.00  0.00    +0.000 NA
ATOM      3  N   UNL     1       3.061  -3.250  -1.341  0.00  0.00    +0.000 N 
ATOM      4  C   UNL     1       3.735  -2.557  -2.317  0.00  0.00    +0.000 A 
ATOM      5  C   UNL     1       4.362  -2.966  -3.503  0.00  0.00    +0.000 A 
ATOM      6  C   UNL     1       5.036  -1.994  -4.250  0.00  0.00    +0.000 A 
ATOM      7  C   UNL     1       5.082  -0.661  -3.831  0.00  0.00    +0.000 A 
ATOM      8  C   UNL     1       4.415  -0.264  -2.661  0.00  0.00    +0.000 A 
ATOM      9  C   UNL     1       3.712  -1.226  -1.902  0.00  0.00    +0.000 A 
ENDROOT
BRANCH   7  10
ATOM     10  C   UNL     1       5.884   0.296  -4.640  0.00  0.00    +0.000 C 
ATOM     11  N   UNL     1       5.575   1.624  -4.548  0.00  0.00    +0.000 N 
ATOM     12  O   UNL     1       6.778  -0.087  -5.390  0.00  0.00    +0.000 OA
ATOM     13  H   UNL     1       4.718   1.963  -4.140  0.00  0.00    +0.000 HD
ATOM     14  H   UNL     1       6.076   2.243  -5.175  0.00  0.00    +0.000 HD
ENDBRANCH   7  10
BRANCH   1  16
ATOM     15  C   UNL     1       1.436  -0.474   1.222  0.00  0.00    +0.000 C 
ATOM     16  C   UNL     1       2.387  -0.026   0.086  0.00  0.00    +0.000 C 
ATOM     17  C   UNL     1       1.596   0.952  -0.809  0.00  0.00    +0.000 C 
ATOM     18  C   UNL     1       3.567   0.723   0.732  0.00  0.00    +0.000 C 
ENDBRANCH   1  16
BRANCH   3  19
ATOM     19  C   UNL     1       2.798  -4.683  -1.293  0.00  0.00    +0.000 C 
BRANCH  19  20
ATOM     20  C   UNL     1       3.801  -5.458  -0.481  0.00  0.00    +0.000 A 
ATOM     21  C   UNL     1       4.535  -6.510  -1.042  0.00  0.00    +0.000 A 
ATOM     22  C   UNL     1       5.341  -7.305  -0.234  0.00  0.00    +0.000 A 
ATOM     23  C   UNL     1       5.398  -7.020   1.121  0.00  0.00    +0.000 A 
ATOM     24  N   UNL     1       4.732  -5.998   1.694  0.00  0.00    +0.000 NA
ATOM     25  C   UNL     1       3.953  -5.240   0.887  0.00  0.00    +0.000 A 
ENDBRANCH  19  20
ENDBRANCH   3  19
TORSDOF 4
