REMARK  Name = 
REMARK  5 active torsions:
REMARK  status: ('A' for Active; 'I' for Inactive)
REMARK    1  A    between atoms: C_2  and  C_4
REMARK    2  A    between atoms: C_7  and  N_8
REMARK    3  A    between atoms: N_8  and  C_9
REMARK    4  A    between atoms: C_9  and  C_10
REMARK    5  A    between atoms: C_14  and  C_15
REMARK                            x       y       z     vdW  Elec       q    Type
REMARK                         _______ _______ _______ _____ _____    ______ ____
ROOT
ATOM      1  C   UNL     1       5.198  -5.415  -2.675  0.00  0.00    +0.000 C 
ATOM      2  C   UNL     1       5.005  -5.153  -4.162  0.00  0.00    +0.000 C 
ATOM      3  C   UNL     1       3.820  -5.485  -3.324  0.00  0.00    +0.000 C 
ENDROOT
BRANCH   1   4
ATOM      4  C   UNL     1       5.740  -6.761  -2.201  0.00  0.00    +0.000 A 
ATOM      5  C   UNL     1       5.115  -7.486  -1.174  0.00  0.00    +0.000 A 
ATOM      6  C   UNL     1       5.533  -8.775  -0.841  0.00  0.00    +0.000 A 
ATOM      7  C   UNL     1       6.585  -9.370  -1.539  0.00  0.00    +0.000 A 
ATOM      8  C   UNL     1       7.249  -8.684  -2.567  0.00  0.00    +0.000 A 
ATOM      9  C   UNL     1       6.831  -7.369  -2.844  0.00  0.00    +0.000 A 
BRANCH   8  10
ATOM     10  C   UNL     1       8.260  -9.330  -3.426  0.00  0.00    +0.000 A 
ATOM     11  C   UNL     1       8.110 -10.651  -3.867  0.00  0.00    +0.000 A 
ATOM     12  C   UNL     1       9.007 -11.197  -4.781  0.00  0.00    +0.000 A 
ATOM     13  C   UNL     1      10.045 -10.406  -5.236  0.00  0.00    +0.000 A 
ATOM     14  N   UNL     1      10.254  -9.139  -4.826  0.00  0.00    +0.000 NA
ATOM     15  C   UNL     1       9.367  -8.640  -3.931  0.00  0.00    +0.000 A 
ENDBRANCH   8  10
ENDBRANCH   1   4
BRANCH   1  16
ATOM     16  N   UNL     1       5.526  -4.285  -1.792  0.00  0.00    +0.000 N 
ATOM     17  H   UNL     1       4.775  -3.848  -1.270  0.00  0.00    +0.000 HD
BRANCH  16  21
ATOM     18  C   UNL     1       9.032  -1.922  -2.051  0.00  0.00    +0.000 A 
ATOM     19  C   UNL     1       8.788  -2.906  -3.012  0.00  0.00    +0.000 A 
ATOM     20  C   UNL     1       7.636  -3.692  -2.928  0.00  0.00    +0.000 A 
ATOM     21  C   UNL     1       6.685  -3.496  -1.917  0.00  0.00    +0.000 A 
ATOM     22  C   UNL     1       6.967  -2.535  -0.934  0.00  0.00    +0.000 A 
ATOM     23  C   UNL     1       8.129  -1.756  -0.998  0.00  0.00    +0.000 A 
BRANCH  18  25
ATOM     24  N   UNL     1      10.792  -0.843  -3.344  0.00  0.00    +0.000 N 
ATOM     25  C   UNL     1      10.237  -1.052  -2.109  0.00  0.00    +0.000 C 
ATOM     26  O   UNL     1      10.700  -0.523  -1.110  0.00  0.00    +0.000 OA
ATOM     27  H   UNL     1      11.554  -0.179  -3.388  0.00  0.00    +0.000 HD
ATOM     28  H   UNL     1      10.310  -1.062  -4.204  0.00  0.00    +0.000 HD
ENDBRANCH  18  25
ENDBRANCH  16  21
ENDBRANCH   1  16
TORSDOF 5
