REMARK  Name = 
REMARK  4 active torsions:
REMARK  status: ('A' for Active; 'I' for Inactive)
REMARK    1  A    between atoms: N_1  and  C_2
REMARK    2  A    between atoms: C_2  and  C_3
REMARK    3  A    between atoms: C_6  and  C_7
REMARK    4  A    between atoms: C_7  and  N_8
REMARK                            x       y       z     vdW  Elec       q    Type
REMARK                         _______ _______ _______ _____ _____    ______ ____
ROOT
ATOM      1  C   UNL     1       2.886  -1.293   0.673  0.00  0.00    +0.000 A 
ATOM      2  C   UNL     1       3.523  -1.380   1.918  0.00  0.00    +0.000 A 
ATOM      3  C   UNL     1       3.850  -2.621   2.470  0.00  0.00    +0.000 A 
ATOM      4  C   UNL     1       3.536  -3.805   1.789  0.00  0.00    +0.000 A 
ATOM      5  C   UNL     1       2.917  -3.717   0.533  0.00  0.00    +0.000 A 
ATOM      6  C   UNL     1       2.594  -2.475  -0.019  0.00  0.00    +0.000 A 
ENDROOT
BRANCH   1   7
ATOM      7  C   UNL     1       2.474   0.044   0.113  0.00  0.00    +0.000 C 
BRANCH   7   8
ATOM      8  N   UNL     1       3.621   0.925  -0.072  0.00  0.00    +0.000 NA
ATOM      9  H   UNL     1       3.315   1.770  -0.551  0.00  0.00    +0.000 HD
ATOM     10  H   UNL     1       4.283   0.466  -0.696  0.00  0.00    +0.000 HD
ENDBRANCH   7   8
ENDBRANCH   1   7
BRANCH   4  11
ATOM     11  C   UNL     1       3.712  -5.154   2.456  0.00  0.00    +0.000 C 
BRANCH  11  12
ATOM     12  N   UNL     1       2.433  -5.591   2.997  0.00  0.00    +0.000 N 
ATOM     13  N   UNL     1       1.597  -6.316   2.224  0.00  0.00    +0.000 NA
ATOM     14  N   UNL     1       0.364  -6.091   2.659  0.00  0.00    +0.000 NA
ATOM     15  C   UNL     1       0.445  -5.281   3.760  0.00  0.00    +0.000 A 
ATOM     16  C   UNL     1      -0.558  -4.678   4.532  0.00  0.00    +0.000 A 
ATOM     17  C   UNL     1      -0.174  -3.887   5.624  0.00  0.00    +0.000 A 
ATOM     18  C   UNL     1       1.174  -3.728   5.961  0.00  0.00    +0.000 A 
ATOM     19  C   UNL     1       2.185  -4.302   5.187  0.00  0.00    +0.000 A 
ATOM     20  C   UNL     1       1.778  -5.047   4.076  0.00  0.00    +0.000 A 
ENDBRANCH  11  12
ENDBRANCH   4  11
TORSDOF 4
