REMARK  Name = 
REMARK  4 active torsions:
REMARK  status: ('A' for Active; 'I' for Inactive)
REMARK    1  A    between atoms: C_2  and  C_4
REMARK    2  A    between atoms: N_10  and  C_11
REMARK    3  A    between atoms: C_11  and  C_12
REMARK    4  A    between atoms: C_17  and  N_18
REMARK                            x       y       z     vdW  Elec       q    Type
REMARK                         _______ _______ _______ _____ _____    ______ ____
ROOT
ATOM      1  C   UNL     1       3.324  -1.062   0.874  0.00  0.00    +0.000 A 
ATOM      2  C   UNL     1       2.879  -2.372   0.733  0.00  0.00    +0.000 A 
ATOM      3  N   UNL     1       3.390  -3.418   1.425  0.00  0.00    +0.000 NA
ATOM      4  C   UNL     1       4.375  -3.054   2.287  0.00  0.00    +0.000 A 
ATOM      5  C   UNL     1       5.124  -3.848   3.181  0.00  0.00    +0.000 A 
ATOM      6  C   UNL     1       5.990  -3.007   3.847  0.00  0.00    +0.000 A 
ATOM      7  N   UNL     1       5.783  -1.722   3.390  0.00  0.00    +0.000 N 
ATOM      8  C   UNL     1       4.806  -1.729   2.420  0.00  0.00    +0.000 A 
ATOM      9  N   UNL     1       4.322  -0.662   1.731  0.00  0.00    +0.000 NA
ENDROOT
BRANCH   1  11
ATOM     10  N   UNL     1       3.193   1.255   0.146  0.00  0.00    +0.000 N 
ATOM     11  C   UNL     1       2.658  -0.004   0.059  0.00  0.00    +0.000 C 
ATOM     12  O   UNL     1       1.691  -0.238  -0.652  0.00  0.00    +0.000 OA
ATOM     13  H   UNL     1       2.799   1.984  -0.431  0.00  0.00    +0.000 HD
ATOM     14  H   UNL     1       4.072   1.416   0.624  0.00  0.00    +0.000 HD
ENDBRANCH   1  11
BRANCH   7  15
ATOM     15  C   UNL     1       6.522  -0.558   3.857  0.00  0.00    +0.000 C 
BRANCH  15  16
ATOM     16  C   UNL     1       5.819   0.110   5.006  0.00  0.00    +0.000 A 
ATOM     17  N   UNL     1       6.059  -0.390   6.256  0.00  0.00    +0.000 NA
ATOM     18  C   UNL     1       5.417   0.228   7.271  0.00  0.00    +0.000 A 
ATOM     19  C   UNL     1       4.578   1.304   7.063  0.00  0.00    +0.000 A 
ATOM     20  N   UNL     1       4.336   1.808   5.832  0.00  0.00    +0.000 NA
ATOM     21  C   UNL     1       4.954   1.194   4.803  0.00  0.00    +0.000 A 
BRANCH  21  22
ATOM     22  N   UNL     1       4.694   1.737   3.544  0.00  0.00    +0.000 N 
ATOM     23  H   UNL     1       4.004   2.472   3.689  0.00  0.00    +0.000 HD
ATOM     24  H   UNL     1       4.339   1.016   2.914  0.00  0.00    +0.000 HD
ENDBRANCH  21  22
ENDBRANCH  15  16
ENDBRANCH   7  15
TORSDOF 4
