REMARK  Name = 
REMARK  8 active torsions:
REMARK  status: ('A' for Active; 'I' for Inactive)
REMARK    1  A    between atoms: C_2  and  C_21
REMARK    2  A    between atoms: N_3  and  C_4
REMARK    3  A    between atoms: C_4  and  C_5
REMARK    4  A    between atoms: C_8  and  C_9
REMARK    5  A    between atoms: C_9  and  C_10
REMARK    6  A    between atoms: C_10  and  O_11
REMARK    7  A    between atoms: C_10  and  C_12
REMARK    8  A    between atoms: C_12  and  C_13
REMARK                            x       y       z     vdW  Elec       q    Type
REMARK                         _______ _______ _______ _____ _____    ______ ____
ROOT
ATOM      1  C   UNL     1       3.124   0.003  -3.557  0.00  0.00    +0.000 A 
ATOM      2  C   UNL     1       3.552   1.200  -4.130  0.00  0.00    +0.000 A 
ATOM      3  C   UNL     1       4.455   1.183  -5.189  0.00  0.00    +0.000 A 
ATOM      4  C   UNL     1       4.897  -0.041  -5.675  0.00  0.00    +0.000 A 
ATOM      5  N   UNL     1       4.441  -1.219  -5.181  0.00  0.00    +0.000 NA
ATOM      6  C   UNL     1       3.580  -1.174  -4.135  0.00  0.00    +0.000 A 
ENDROOT
BRANCH   1   7
ATOM      7  C   UNL     1       2.197  -0.005  -2.377  0.00  0.00    +0.000 C 
BRANCH   7  10
ATOM      8  O   UNL     1       0.595   2.286  -2.743  0.00  0.00    +0.000 OA
ATOM      9  C   UNL     1       0.122   1.179  -2.985  0.00  0.00    +0.000 C 
ATOM     10  N   UNL     1       0.817   0.015  -2.781  0.00  0.00    +0.000 N 
ATOM     11  H   UNL     1       0.448  -0.850  -3.157  0.00  0.00    +0.000 HD
BRANCH   9  12
ATOM     12  C   UNL     1      -1.250   1.020  -3.471  0.00  0.00    +0.000 A 
ATOM     13  C   UNL     1      -2.209   1.985  -3.191  0.00  0.00    +0.000 A 
ATOM     14  S   UNL     1      -3.743   1.625  -3.847  0.00  0.00    +0.000 S 
ATOM     15  C   UNL     1      -3.165   0.189  -4.555  0.00  0.00    +0.000 A 
ATOM     16  N   UNL     1      -3.980  -0.598  -5.310  0.00  0.00    +0.000 NA
ATOM     17  C   UNL     1      -3.399  -1.632  -5.821  0.00  0.00    +0.000 A 
ATOM     18  N   UNL     1      -2.080  -1.957  -5.637  0.00  0.00    +0.000 N 
ATOM     19  C   UNL     1      -1.241  -1.236  -4.824  0.00  0.00    +0.000 A 
ATOM     20  O   UNL     1      -0.111  -1.632  -4.571  0.00  0.00    +0.000 OA
ATOM     21  C   UNL     1      -1.833  -0.032  -4.269  0.00  0.00    +0.000 A 
ATOM     22  H   UNL     1      -1.692  -2.800  -6.036  0.00  0.00    +0.000 HD
ENDBRANCH   9  12
ENDBRANCH   7  10
ENDBRANCH   1   7
BRANCH   4  23
ATOM     23  C   UNL     1       5.901  -0.118  -6.803  0.00  0.00    +0.000 C 
BRANCH  23  24
ATOM     24  C   UNL     1       5.278  -0.245  -8.208  0.00  0.00    +0.000 C 
BRANCH  24  25
ATOM     25  O   UNL     1       4.464  -1.423  -8.279  0.00  0.00    +0.000 OA
ATOM     26  H   UNL     1       3.846  -1.398  -7.524  0.00  0.00    +0.000 HD
ENDBRANCH  24  25
BRANCH  24  27
ATOM     27  C   UNL     1       4.475   0.989  -8.642  0.00  0.00    +0.000 C 
BRANCH  27  28
ATOM     28  C   UNL     1       3.945   0.853 -10.053  0.00  0.00    +0.000 A 
ATOM     29  C   UNL     1       2.699   0.269 -10.280  0.00  0.00    +0.000 A 
ATOM     30  C   UNL     1       2.238   0.140 -11.587  0.00  0.00    +0.000 A 
ATOM     31  C   UNL     1       3.032   0.592 -12.631  0.00  0.00    +0.000 A 
ATOM     32  C   UNL     1       4.260   1.156 -12.321  0.00  0.00    +0.000 A 
ATOM     33  N   UNL     1       4.732   1.302 -11.061  0.00  0.00    +0.000 NA
ENDBRANCH  27  28
ENDBRANCH  24  27
ENDBRANCH  23  24
ENDBRANCH   4  23
TORSDOF 8
