REMARK  Name = 
REMARK  4 active torsions:
REMARK  status: ('A' for Active; 'I' for Inactive)
REMARK    1  A    between atoms: N_1  and  C_2
REMARK    2  A    between atoms: C_2  and  C_3
REMARK    3  A    between atoms: C_6  and  C_7
REMARK    4  A    between atoms: C_7  and  N_8
REMARK                            x       y       z     vdW  Elec       q    Type
REMARK                         _______ _______ _______ _____ _____    ______ ____
ROOT
ATOM      1  C   UNL     1       2.910   1.444   0.390  0.00  0.00    +0.000 A 
ATOM      2  C   UNL     1       2.424   2.527  -0.356  0.00  0.00    +0.000 A 
ATOM      3  C   UNL     1       2.779   3.838  -0.027  0.00  0.00    +0.000 A 
ATOM      4  C   UNL     1       3.638   4.095   1.049  0.00  0.00    +0.000 A 
ATOM      5  C   UNL     1       4.122   3.013   1.798  0.00  0.00    +0.000 A 
ATOM      6  C   UNL     1       3.765   1.703   1.471  0.00  0.00    +0.000 A 
ENDROOT
BRANCH   1   7
ATOM      7  C   UNL     1       2.494   0.034   0.057  0.00  0.00    +0.000 C 
BRANCH   7   8
ATOM      8  N   UNL     1       2.890  -0.348  -1.293  0.00  0.00    +0.000 NA
ATOM      9  H   UNL     1       2.683  -1.333  -1.436  0.00  0.00    +0.000 HD
ATOM     10  H   UNL     1       3.901  -0.250  -1.375  0.00  0.00    +0.000 HD
ENDBRANCH   7   8
ENDBRANCH   1   7
BRANCH   4  11
ATOM     11  C   UNL     1       4.033   5.510   1.400  0.00  0.00    +0.000 C 
BRANCH  11  12
ATOM     12  N   UNL     1       3.084   6.068   2.358  0.00  0.00    +0.000 N 
ATOM     13  C   UNL     1       3.431   7.357   2.798  0.00  0.00    +0.000 A 
ATOM     14  C   UNL     1       2.593   7.997   3.708  0.00  0.00    +0.000 A 
ATOM     15  C   UNL     1       2.910   9.281   4.152  0.00  0.00    +0.000 A 
ATOM     16  C   UNL     1       4.058   9.897   3.676  0.00  0.00    +0.000 A 
ATOM     17  C   UNL     1       4.831   9.203   2.766  0.00  0.00    +0.000 A 
ATOM     18  N   UNL     1       4.539   7.962   2.320  0.00  0.00    +0.000 NA
ATOM     19  H   UNL     1       2.961   5.462   3.163  0.00  0.00    +0.000 HD
ENDBRANCH  11  12
ENDBRANCH   4  11
TORSDOF 4
