REMARK  Name = 
REMARK  6 active torsions:
REMARK  status: ('A' for Active; 'I' for Inactive)
REMARK    1  A    between atoms: N_1  and  C_2
REMARK    2  A    between atoms: C_2  and  C_3
REMARK    3  A    between atoms: C_7  and  C_8
REMARK    4  A    between atoms: C_8  and  C_9
REMARK    5  A    between atoms: C_9  and  N_10
REMARK    6  A    between atoms: C_15  and  C_16
REMARK                            x       y       z     vdW  Elec       q    Type
REMARK                         _______ _______ _______ _____ _____    ______ ____
ROOT
ATOM      1  N   UNL     1       3.680   3.336   6.484  0.00  0.00    +0.000 N 
ATOM      2  C   UNL     1       3.581   4.521   7.203  0.00  0.00    +0.000 A 
ATOM      3  N   UNL     1       4.351   4.604   8.296  0.00  0.00    +0.000 NA
ATOM      4  C   UNL     1       4.276   5.735   9.027  0.00  0.00    +0.000 A 
ATOM      5  C   UNL     1       3.472   6.792   8.700  0.00  0.00    +0.000 A 
ATOM      6  C   UNL     1       2.731   6.611   7.559  0.00  0.00    +0.000 A 
ATOM      7  N   UNL     1       2.762   5.493   6.794  0.00  0.00    +0.000 NA
ATOM      8  H   UNL     1       4.555   2.908   6.772  0.00  0.00    +0.000 HD
ENDROOT
BRANCH   6   9
ATOM      9  C   UNL     1       1.814   7.699   7.098  0.00  0.00    +0.000 C 
ATOM     10  N   UNL     1       1.118   7.437   5.950  0.00  0.00    +0.000 N 
ATOM     11  O   UNL     1       1.692   8.756   7.703  0.00  0.00    +0.000 OA
ATOM     12  H   UNL     1       1.223   6.540   5.489  0.00  0.00    +0.000 HD
ATOM     13  H   UNL     1       0.459   8.118   5.601  0.00  0.00    +0.000 HD
ENDBRANCH   6   9
BRANCH   1  14
ATOM     14  C   UNL     1       3.486   3.486   5.050  0.00  0.00    +0.000 C 
BRANCH  14  15
ATOM     15  C   UNL     1       3.598   2.129   4.343  0.00  0.00    +0.000 C 
BRANCH  15  20
ATOM     16  C   UNL     1       1.815   2.525   0.985  0.00  0.00    +0.000 A 
ATOM     17  C   UNL     1       2.906   2.754   0.135  0.00  0.00    +0.000 A 
ATOM     18  C   UNL     1       4.210   2.738   0.631  0.00  0.00    +0.000 A 
ATOM     19  C   UNL     1       4.440   2.509   1.987  0.00  0.00    +0.000 A 
ATOM     20  C   UNL     1       3.367   2.281   2.857  0.00  0.00    +0.000 A 
ATOM     21  C   UNL     1       2.060   2.279   2.345  0.00  0.00    +0.000 A 
BRANCH  16  22
ATOM     22  C   UNL     1       0.403   2.606   0.462  0.00  0.00    +0.000 C 
BRANCH  22  23
ATOM     23  N   UNL     1       0.179   1.703  -0.660  0.00  0.00    +0.000 NA
ATOM     24  H   UNL     1      -0.811   1.707  -0.896  0.00  0.00    +0.000 HD
ATOM     25  H   UNL     1       0.402   0.754  -0.364  0.00  0.00    +0.000 HD
ENDBRANCH  22  23
ENDBRANCH  16  22
ENDBRANCH  15  20
ENDBRANCH  14  15
ENDBRANCH   1  14
TORSDOF 6
