REMARK  Name = 
REMARK  6 active torsions:
REMARK  status: ('A' for Active; 'I' for Inactive)
REMARK    1  A    between atoms: N_1  and  C_2
REMARK    2  A    between atoms: C_2  and  C_3
REMARK    3  A    between atoms: C_3  and  C_4
REMARK    4  A    between atoms: C_4  and  C_5
REMARK    5  A    between atoms: C_4  and  C_15
REMARK    6  A    between atoms: C_5  and  C_6
REMARK                            x       y       z     vdW  Elec       q    Type
REMARK                         _______ _______ _______ _____ _____    ______ ____
ROOT
ATOM      1  C   UNL     1       4.395   0.136   1.559  0.00  0.00    +0.000 C 
ENDROOT
BRANCH   1   2
ATOM      2  C   UNL     1       4.982   0.090   2.972  0.00  0.00    +0.000 A 
ATOM      3  C   UNL     1       6.213  -0.540   3.192  0.00  0.00    +0.000 A 
ATOM      4  C   UNL     1       6.738  -0.565   4.477  0.00  0.00    +0.000 A 
ATOM      5  N   UNL     1       6.136  -0.012   5.551  0.00  0.00    +0.000 NA
ATOM      6  C   UNL     1       4.954   0.597   5.324  0.00  0.00    +0.000 A 
ATOM      7  C   UNL     1       4.348   0.673   4.078  0.00  0.00    +0.000 A 
ENDBRANCH   1   2
BRANCH   1   8
ATOM      8  C   UNL     1       2.846   0.204   1.562  0.00  0.00    +0.000 C 
BRANCH   8   9
ATOM      9  C   UNL     1       2.159   0.027   0.208  0.00  0.00    +0.000 C 
BRANCH   9  10
ATOM     10  N   UNL     1       2.473  -1.253  -0.412  0.00  0.00    +0.000 NA
ATOM     11  H   UNL     1       1.933  -1.349  -1.273  0.00  0.00    +0.000 HD
ATOM     12  H   UNL     1       2.155  -2.010   0.194  0.00  0.00    +0.000 HD
ENDBRANCH   9  10
ENDBRANCH   8   9
ENDBRANCH   1   8
BRANCH   1  13
ATOM     13  C   UNL     1       5.082   1.206   0.662  0.00  0.00    +0.000 C 
BRANCH  13  14
ATOM     14  C   UNL     1       4.828   2.625   1.073  0.00  0.00    +0.000 A 
ATOM     15  C   UNL     1       5.245   3.311   2.200  0.00  0.00    +0.000 A 
ATOM     16  N   UNL     1       4.701   4.563   2.263  0.00  0.00    +0.000 NA
ATOM     17  C   UNL     1       4.004   4.691   1.157  0.00  0.00    +0.000 A 
ATOM     18  C   UNL     1       3.206   5.769   0.681  0.00  0.00    +0.000 A 
ATOM     19  C   UNL     1       2.646   5.701  -0.541  0.00  0.00    +0.000 A 
ATOM     20  C   UNL     1       2.853   4.548  -1.402  0.00  0.00    +0.000 A 
ATOM     21  C   UNL     1       3.567   3.507  -0.940  0.00  0.00    +0.000 A 
ATOM     22  N   UNL     1       4.114   3.562   0.344  0.00  0.00    +0.000 N 
ENDBRANCH  13  14
ENDBRANCH   1  13
TORSDOF 6
