REMARK  Name = 
REMARK  10 active torsions:
REMARK  status: ('A' for Active; 'I' for Inactive)
REMARK    1  A    between atoms: C_1  and  C_2
REMARK    2  A    between atoms: C_2  and  N_3
REMARK    3  A    between atoms: N_3  and  C_4
REMARK    4  A    between atoms: N_3  and  C_6
REMARK    5  A    between atoms: C_4  and  C_5
REMARK    6  A    between atoms: C_6  and  C_7
REMARK    7  A    between atoms: C_10  and  O_11
REMARK    8  A    between atoms: O_11  and  C_12
REMARK    9  A    between atoms: C_12  and  C_13
REMARK   10  A    between atoms: C_21  and  C_22
REMARK                            x       y       z     vdW  Elec       q    Type
REMARK                         _______ _______ _______ _____ _____    ______ ____
ROOT
ATOM      1  C   UNL     1       4.850  -2.515   1.278  0.00  0.00    +0.000 A 
ATOM      2  N   UNL     1       5.435  -2.406   2.516  0.00  0.00    +0.000 NA
ATOM      3  C   UNL     1       5.784  -3.535   3.154  0.00  0.00    +0.000 A 
ATOM      4  C   UNL     1       5.580  -4.804   2.653  0.00  0.00    +0.000 A 
ATOM      5  C   UNL     1       5.082  -4.908   1.359  0.00  0.00    +0.000 A 
ATOM      6  C   UNL     1       4.781  -3.753   0.615  0.00  0.00    +0.000 A 
ENDROOT
BRANCH   6   7
ATOM      7  C   UNL     1       4.331  -3.933  -0.801  0.00  0.00    +0.000 C 
ATOM      8  N   UNL     1       4.768  -5.040  -1.512  0.00  0.00    +0.000 N 
ATOM      9  O   UNL     1       3.620  -3.147  -1.354  0.00  0.00    +0.000 OA
ATOM     10  H   UNL     1       5.554  -5.620  -1.265  0.00  0.00    +0.000 HD
ATOM     11  H   UNL     1       4.543  -4.996  -2.503  0.00  0.00    +0.000 HD
ENDBRANCH   6   7
BRANCH   1  12
ATOM     12  C   UNL     1       4.223  -1.186   0.797  0.00  0.00    +0.000 C 
BRANCH  12  13
ATOM     13  N   UNL     1       2.789  -0.963   1.143  0.00  0.00    +0.000 NA
BRANCH  13  15
ATOM     14  C   UNL     1       1.218  -0.891   3.146  0.00  0.00    +0.000 C 
ATOM     15  C   UNL     1       2.643  -0.953   2.610  0.00  0.00    +0.000 C 
ENDBRANCH  13  15
BRANCH  13  16
ATOM     16  C   UNL     1       2.198   0.227   0.485  0.00  0.00    +0.000 C 
ATOM     17  C   UNL     1       2.688   1.651   0.751  0.00  0.00    +0.000 C 
ENDBRANCH  13  16
ENDBRANCH  12  13
ENDBRANCH   1  12
BRANCH   4  18
ATOM     18  O   UNL     1       5.846  -5.916   3.417  0.00  0.00    +0.000 OA
BRANCH  18  19
ATOM     19  C   UNL     1       6.895  -5.707   4.400  0.00  0.00    +0.000 C 
BRANCH  19  20
ATOM     20  C   UNL     1       7.612  -6.989   4.720  0.00  0.00    +0.000 A 
ATOM     21  C   UNL     1       7.265  -8.215   4.144  0.00  0.00    +0.000 A 
ATOM     22  C   UNL     1       7.974  -9.374   4.473  0.00  0.00    +0.000 A 
ATOM     23  C   UNL     1       9.035  -9.321   5.377  0.00  0.00    +0.000 A 
ATOM     24  C   UNL     1       9.388  -8.104   5.955  0.00  0.00    +0.000 A 
ATOM     25  C   UNL     1       8.677  -6.956   5.625  0.00  0.00    +0.000 A 
ATOM     26  F   UNL     1       9.031  -5.792   6.191  0.00  0.00    +0.000 F 
ENDBRANCH  19  20
ENDBRANCH  18  19
ENDBRANCH   4  18
TORSDOF 8
