REMARK  Name = 
REMARK  7 active torsions:
REMARK  status: ('A' for Active; 'I' for Inactive)
REMARK    1  A    between atoms: C_2  and  C_4
REMARK    2  A    between atoms: C_7  and  N_8
REMARK    3  A    between atoms: N_8  and  C_9
REMARK    4  A    between atoms: C_9  and  C_10
REMARK    5  A    between atoms: C_13  and  O_14
REMARK    6  A    between atoms: O_14  and  C_15
REMARK    7  A    between atoms: C_22  and  O_23
REMARK                            x       y       z     vdW  Elec       q    Type
REMARK                         _______ _______ _______ _____ _____    ______ ____
ROOT
ATOM      1  C   UNL     1       5.908  -3.331   4.323  0.00  0.00    +0.000 C 
ATOM      2  C   UNL     1       5.966  -2.305   5.450  0.00  0.00    +0.000 C 
ATOM      3  C   UNL     1       6.819  -2.102   4.244  0.00  0.00    +0.000 C 
ENDROOT
BRANCH   1   4
ATOM      4  C   UNL     1       6.549  -4.696   4.574  0.00  0.00    +0.000 A 
ATOM      5  C   UNL     1       7.380  -5.299   3.613  0.00  0.00    +0.000 A 
ATOM      6  C   UNL     1       8.044  -6.503   3.860  0.00  0.00    +0.000 A 
ATOM      7  C   UNL     1       7.936  -7.114   5.100  0.00  0.00    +0.000 A 
ATOM      8  C   UNL     1       7.049  -6.582   6.043  0.00  0.00    +0.000 A 
ATOM      9  C   UNL     1       6.361  -5.395   5.776  0.00  0.00    +0.000 A 
BRANCH   7  10
ATOM     10  O   UNL     1       8.596  -8.237   5.493  0.00  0.00    +0.000 OA
BRANCH  10  11
ATOM     11  C   UNL     1       9.908  -8.472   4.997  0.00  0.00    +0.000 C 
ATOM     12  F   UNL     1      10.421  -7.469   4.257  0.00  0.00    +0.000 F 
ATOM     13  F   UNL     1      10.736  -8.666   6.051  0.00  0.00    +0.000 F 
ATOM     14  F   UNL     1       9.903  -9.600   4.255  0.00  0.00    +0.000 F 
ENDBRANCH  10  11
ENDBRANCH   7  10
ENDBRANCH   1   4
BRANCH   1  15
ATOM     15  N   UNL     1       4.614  -3.398   3.614  0.00  0.00    +0.000 N 
ATOM     16  H   UNL     1       3.911  -3.986   4.061  0.00  0.00    +0.000 HD
BRANCH  15  20
ATOM     17  C   UNL     1       4.057  -3.245  -0.477  0.00  0.00    +0.000 A 
ATOM     18  N   UNL     1       5.337  -3.179  -0.041  0.00  0.00    +0.000 NA
ATOM     19  C   UNL     1       5.497  -3.234   1.301  0.00  0.00    +0.000 A 
ATOM     20  C   UNL     1       4.472  -3.396   2.216  0.00  0.00    +0.000 A 
ATOM     21  C   UNL     1       3.213  -3.416   1.630  0.00  0.00    +0.000 A 
ATOM     22  N   UNL     1       2.968  -3.355   0.303  0.00  0.00    +0.000 NA
BRANCH  17  24
ATOM     23  N   UNL     1       5.015  -2.994  -2.705  0.00  0.00    +0.000 N 
ATOM     24  C   UNL     1       3.858  -3.140  -1.972  0.00  0.00    +0.000 C 
ATOM     25  O   UNL     1       2.767  -3.172  -2.527  0.00  0.00    +0.000 OA
ATOM     26  H   UNL     1       4.956  -2.903  -3.708  0.00  0.00    +0.000 HD
ATOM     27  H   UNL     1       5.911  -2.971  -2.232  0.00  0.00    +0.000 HD
ENDBRANCH  17  24
ENDBRANCH  15  20
ENDBRANCH   1  15
BRANCH   3  28
ATOM     28  O   UNL     1       8.232  -2.304   4.436  0.00  0.00    +0.000 OA
ATOM     29  H   UNL     1       8.505  -2.117   5.352  0.00  0.00    +0.000 HD
ENDBRANCH   3  28
TORSDOF 7
