REMARK  Name = 
REMARK  3 active torsions:
REMARK  status: ('A' for Active; 'I' for Inactive)
REMARK    1  A    between atoms: C_4  and  C_5
REMARK    2  A    between atoms: N_10  and  C_11
REMARK    3  A    between atoms: C_11  and  C_12
REMARK                            x       y       z     vdW  Elec       q    Type
REMARK                         _______ _______ _______ _____ _____    ______ ____
ROOT
ATOM      1  C   UNL     1      -2.865   0.537  -0.225  0.00  0.00    +0.000 A 
ATOM      2  N   UNL     1      -3.695  -0.028   0.653  0.00  0.00    +0.000 NA
ATOM      3  C   UNL     1      -4.969   0.269   0.448  0.00  0.00    +0.000 A 
ATOM      4  N   UNL     1      -5.456   1.020  -0.535  0.00  0.00    +0.000 NA
ATOM      5  C   UNL     1      -4.546   1.533  -1.360  0.00  0.00    +0.000 A 
ATOM      6  N   UNL     1      -4.949   2.300  -2.446  0.00  0.00    +0.000 N 
ATOM      7  N   UNL     1      -3.245   1.341  -1.222  0.00  0.00    +0.000 NA
ATOM      8  H   UNL     1      -4.777   3.275  -2.227  0.00  0.00    +0.000 HD
ENDROOT
BRANCH   1  12
ATOM      9  C   UNL     1       1.332  -0.355   0.076  0.00  0.00    +0.000 A 
ATOM     10  C   UNL     1       0.447  -0.878   1.013  0.00  0.00    +0.000 A 
ATOM     11  C   UNL     1      -0.916  -0.578   0.930  0.00  0.00    +0.000 A 
ATOM     12  C   UNL     1      -1.424   0.244  -0.093  0.00  0.00    +0.000 A 
ATOM     13  C   UNL     1      -0.498   0.770  -1.014  0.00  0.00    +0.000 A 
ATOM     14  C   UNL     1       0.862   0.478  -0.933  0.00  0.00    +0.000 A 
ENDBRANCH   1  12
BRANCH   6  15
ATOM     15  C   UNL     1      -6.298   2.032  -2.907  0.00  0.00    +0.000 C 
BRANCH  15  16
ATOM     16  C   UNL     1      -6.407   2.411  -4.364  0.00  0.00    +0.000 A 
ATOM     17  C   UNL     1      -5.578   1.806  -5.318  0.00  0.00    +0.000 A 
ATOM     18  C   UNL     1      -5.739   2.142  -6.652  0.00  0.00    +0.000 A 
ATOM     19  N   UNL     1      -6.659   3.026  -7.097  0.00  0.00    +0.000 NA
ATOM     20  C   UNL     1      -7.445   3.602  -6.164  0.00  0.00    +0.000 A 
ATOM     21  C   UNL     1      -7.359   3.332  -4.806  0.00  0.00    +0.000 A 
ENDBRANCH  15  16
ENDBRANCH   6  15
TORSDOF 3
