REMARK  Name = 
REMARK  4 active torsions:
REMARK  status: ('A' for Active; 'I' for Inactive)
REMARK    1  A    between atoms: C_1  and  C_14
REMARK    2  A    between atoms: C_2  and  C_3
REMARK    3  A    between atoms: C_7  and  N_8
REMARK    4  A    between atoms: N_8  and  C_9
REMARK                            x       y       z     vdW  Elec       q    Type
REMARK                         _______ _______ _______ _____ _____    ______ ____
ROOT
ATOM      1  C   UNL     1      -1.734   0.049   0.152  0.00  0.00    +0.000 A 
ATOM      2  C   UNL     1      -2.386  -1.176   0.172  0.00  0.00    +0.000 A 
ATOM      3  C   UNL     1      -3.769  -1.173   0.278  0.00  0.00    +0.000 A 
ATOM      4  C   UNL     1      -4.435   0.048   0.326  0.00  0.00    +0.000 A 
ATOM      5  C   UNL     1      -3.704   1.236   0.295  0.00  0.00    +0.000 A 
ATOM      6  N   UNL     1      -2.359   1.248   0.219  0.00  0.00    +0.000 NA
ENDROOT
BRANCH   1   8
ATOM      7  C   UNL     1       0.895   0.115   0.039  0.00  0.00    +0.000 C 
ATOM      8  C   UNL     1      -0.303   0.104   0.078  0.00  0.00    +0.000 C 
BRANCH   7   9
ATOM      9  C   UNL     1       2.327   0.116   0.006  0.00  0.00    +0.000 A 
ATOM     10  C   UNL     1       3.025   1.321  -0.012  0.00  0.00    +0.000 A 
ATOM     11  C   UNL     1       4.408   1.272  -0.045  0.00  0.00    +0.000 A 
ATOM     12  N   UNL     1       5.119   0.123  -0.057  0.00  0.00    +0.000 NA
ATOM     13  C   UNL     1       4.415  -1.029  -0.034  0.00  0.00    +0.000 A 
ATOM     14  C   UNL     1       3.031  -1.085  -0.001  0.00  0.00    +0.000 A 
ENDBRANCH   7   9
ENDBRANCH   1   8
BRANCH   5  15
ATOM     15  N   UNL     1      -4.432   2.447   0.329  0.00  0.00    +0.000 N 
ATOM     16  H   UNL     1      -4.906   2.556  -0.566  0.00  0.00    +0.000 HD
BRANCH  15  17
ATOM     17  C   UNL     1      -3.875   3.673   0.828  0.00  0.00    +0.000 C 
ATOM     18  C   UNL     1      -4.855   4.866   0.729  0.00  0.00    +0.000 C 
ATOM     19  N   UNL     1      -3.722   5.719   0.295  0.00  0.00    +0.000 NA
ATOM     20  C   UNL     1      -3.011   4.489  -0.151  0.00  0.00    +0.000 C 
ATOM     21  H   UNL     1      -3.257   6.183   1.077  0.00  0.00    +0.000 HD
ENDBRANCH  15  17
ENDBRANCH   5  15
TORSDOF 4
