REMARK  Name = 
REMARK  5 active torsions:
REMARK  status: ('A' for Active; 'I' for Inactive)
REMARK    1  A    between atoms: C_1  and  N_2
REMARK    2  A    between atoms: N_5  and  C_6
REMARK    3  A    between atoms: C_10  and  C_11
REMARK    4  A    between atoms: C_11  and  C_12
REMARK    5  A    between atoms: C_12  and  N_13
REMARK                            x       y       z     vdW  Elec       q    Type
REMARK                         _______ _______ _______ _____ _____    ______ ____
ROOT
ATOM      1  C   UNL     1      -3.040   0.014   0.801  0.00  0.00    +0.000 A 
ATOM      2  C   UNL     1      -3.200  -0.709   1.991  0.00  0.00    +0.000 A 
ATOM      3  C   UNL     1      -4.396  -0.688   2.709  0.00  0.00    +0.000 A 
ATOM      4  C   UNL     1      -5.466   0.077   2.260  0.00  0.00    +0.000 A 
ATOM      5  C   UNL     1      -5.352   0.838   1.092  0.00  0.00    +0.000 A 
ATOM      6  C   UNL     1      -4.140   0.782   0.379  0.00  0.00    +0.000 A 
ENDROOT
BRANCH   1  11
ATOM      7  C   UNL     1       0.672  -0.809  -3.260  0.00  0.00    +0.000 C 
ATOM      8  N   UNL     1       0.219  -0.393  -1.935  0.00  0.00    +0.000 NA
ATOM      9  C   UNL     1      -0.804   0.674  -2.046  0.00  0.00    +0.000 C 
ATOM     10  C   UNL     1      -1.350   1.110  -0.667  0.00  0.00    +0.000 C 
ATOM     11  N   UNL     1      -1.893  -0.065   0.036  0.00  0.00    +0.000 N 
ATOM     12  C   UNL     1      -0.918  -1.154   0.190  0.00  0.00    +0.000 C 
ATOM     13  C   UNL     1      -0.358  -1.543  -1.201  0.00  0.00    +0.000 C 
ENDBRANCH   1  11
BRANCH   5  14
ATOM     14  C   UNL     1      -6.465   1.717   0.551  0.00  0.00    +0.000 C 
BRANCH  14  15
ATOM     15  C   UNL     1      -7.733   1.724   1.406  0.00  0.00    +0.000 C 
BRANCH  15  16
ATOM     16  N   UNL     1      -8.760   2.619   0.871  0.00  0.00    +0.000 N 
ATOM     17  C   UNL     1      -9.921   2.602   1.678  0.00  0.00    +0.000 A 
ATOM     18  C   UNL     1     -11.001   3.396   1.312  0.00  0.00    +0.000 A 
ATOM     19  C   UNL     1     -12.149   3.403   2.107  0.00  0.00    +0.000 A 
ATOM     20  C   UNL     1     -12.189   2.616   3.249  0.00  0.00    +0.000 A 
ATOM     21  C   UNL     1     -11.073   1.859   3.551  0.00  0.00    +0.000 A 
ATOM     22  N   UNL     1      -9.954   1.845   2.799  0.00  0.00    +0.000 NA
ATOM     23  H   UNL     1      -9.031   2.375  -0.077  0.00  0.00    +0.000 HD
ENDBRANCH  15  16
ENDBRANCH  14  15
ENDBRANCH   5  14
TORSDOF 4
