REMARK  Name = 
REMARK  7 active torsions:
REMARK  status: ('A' for Active; 'I' for Inactive)
REMARK    1  A    between atoms: C_1  and  C_2
REMARK    2  A    between atoms: C_2  and  C_3
REMARK    3  A    between atoms: C_2  and  C_4
REMARK    4  A    between atoms: C_2  and  C_5
REMARK    5  A    between atoms: C_10  and  C_11
REMARK    6  A    between atoms: N_16  and  C_17
REMARK    7  A    between atoms: C_17  and  C_18
REMARK                            x       y       z     vdW  Elec       q    Type
REMARK                         _______ _______ _______ _____ _____    ______ ____
ROOT
ATOM      1  C   UNL     1       2.870  -1.491   0.756  0.00  0.00    +0.000 A 
ATOM      2  N   UNL     1       2.770  -2.808   0.660  0.00  0.00    +0.000 NA
ATOM      3  C   UNL     1       3.225  -3.321   1.815  0.00  0.00    +0.000 A 
ATOM      4  N   UNL     1       3.171  -4.628   2.157  0.00  0.00    +0.000 NA
ATOM      5  C   UNL     1       3.650  -4.862   3.399  0.00  0.00    +0.000 A 
ATOM      6  C   UNL     1       4.166  -3.867   4.225  0.00  0.00    +0.000 A 
ATOM      7  N   UNL     1       4.242  -2.525   3.898  0.00  0.00    +0.000 NA
ATOM      8  C   UNL     1       3.730  -2.327   2.652  0.00  0.00    +0.000 A 
ATOM      9  N   UNL     1       3.557  -1.152   1.934  0.00  0.00    +0.000 N 
ENDROOT
BRANCH   6  10
ATOM     10  C   UNL     1       4.688  -4.297   5.552  0.00  0.00    +0.000 C 
ATOM     11  N   UNL     1       5.227  -3.320   6.343  0.00  0.00    +0.000 N 
ATOM     12  O   UNL     1       4.650  -5.461   5.924  0.00  0.00    +0.000 OA
ATOM     13  H   UNL     1       5.263  -2.357   6.018  0.00  0.00    +0.000 HD
ATOM     14  H   UNL     1       5.611  -3.572   7.240  0.00  0.00    +0.000 HD
ENDBRANCH   6  10
BRANCH   1  16
ATOM     15  C   UNL     1       1.026  -1.416  -0.930  0.00  0.00    +0.000 C 
ATOM     16  C   UNL     1       2.248  -0.630  -0.358  0.00  0.00    +0.000 C 
ATOM     17  C   UNL     1       3.261  -0.463  -1.503  0.00  0.00    +0.000 C 
ATOM     18  C   UNL     1       1.708   0.739   0.064  0.00  0.00    +0.000 C 
ENDBRANCH   1  16
BRANCH   9  19
ATOM     19  C   UNL     1       3.878   0.162   2.460  0.00  0.00    +0.000 C 
BRANCH  19  20
ATOM     20  C   UNL     1       5.335   0.478   2.926  0.00  0.00    +0.000 C 
ATOM     21  C   UNL     1       5.372   1.941   3.444  0.00  0.00    +0.000 C 
ATOM     22  C   UNL     1       6.648   2.727   3.174  0.00  0.00    +0.000 C 
ATOM     23  O   UNL     1       7.150   2.447   1.876  0.00  0.00    +0.000 OA
ATOM     24  C   UNL     1       7.568   1.091   1.784  0.00  0.00    +0.000 C 
ATOM     25  C   UNL     1       6.360   0.167   1.822  0.00  0.00    +0.000 C 
ENDBRANCH  19  20
ENDBRANCH   9  19
TORSDOF 4
