REMARK  Name = 
REMARK  4 active torsions:
REMARK  status: ('A' for Active; 'I' for Inactive)
REMARK    1  A    between atoms: C_1  and  C_2
REMARK    2  A    between atoms: C_4  and  C_5
REMARK    3  A    between atoms: C_6  and  C_7
REMARK    4  A    between atoms: C_15  and  C_16
REMARK                            x       y       z     vdW  Elec       q    Type
REMARK                         _______ _______ _______ _____ _____    ______ ____
ROOT
ATOM      1  C   UNL     1       2.413  -0.056  -0.007  0.00  0.00    +0.000 C 
ATOM      2  C   UNL     1       0.913  -0.122  -0.006  0.00  0.00    +0.000 A 
ATOM      3  N   UNL     1       0.286   1.093  -0.001  0.00  0.00    +0.000 NA
ATOM      4  C   UNL     1      -1.065   1.131   0.023  0.00  0.00    +0.000 A 
ATOM      5  C   UNL     1      -1.833  -0.026   0.006  0.00  0.00    +0.000 A 
ATOM      6  C   UNL     1      -1.191  -1.265   0.007  0.00  0.00    +0.000 A 
ATOM      7  C   UNL     1       0.207  -1.331   0.015  0.00  0.00    +0.000 A 
ENDROOT
BRANCH   7   8
ATOM      8  C   UNL     1       0.901  -2.650   0.012  0.00  0.00    +0.000 C 
ATOM      9  N   UNL     1       0.247  -3.710   0.582  0.00  0.00    +0.000 N 
ATOM     10  O   UNL     1       2.016  -2.811  -0.464  0.00  0.00    +0.000 OA
ATOM     11  H   UNL     1      -0.603  -3.635   1.118  0.00  0.00    +0.000 HD
ATOM     12  H   UNL     1       0.760  -4.584   0.628  0.00  0.00    +0.000 HD
ENDBRANCH   7   8
BRANCH   4  13
ATOM     13  C   UNL     1      -1.640   2.483   0.015  0.00  0.00    +0.000 C 
ATOM     14  C   UNL     1      -2.825   2.813   0.556  0.00  0.00    +0.000 C 
BRANCH  14  15
ATOM     15  C   UNL     1      -3.434   4.148   0.565  0.00  0.00    +0.000 A 
ATOM     16  C   UNL     1      -2.702   5.330   0.611  0.00  0.00    +0.000 A 
ATOM     17  C   UNL     1      -3.387   6.545   0.665  0.00  0.00    +0.000 A 
ATOM     18  C   UNL     1      -4.776   6.545   0.677  0.00  0.00    +0.000 A 
ATOM     19  C   UNL     1      -5.426   5.325   0.643  0.00  0.00    +0.000 A 
ATOM     20  N   UNL     1      -4.788   4.133   0.597  0.00  0.00    +0.000 NA
ENDBRANCH  14  15
ENDBRANCH   4  13
TORSDOF 3
