REMARK  Name = 
REMARK  5 active torsions:
REMARK  status: ('A' for Active; 'I' for Inactive)
REMARK    1  A    between atoms: N_1  and  C_2
REMARK    2  A    between atoms: C_2  and  C_3
REMARK    3  A    between atoms: C_3  and  N_4
REMARK    4  A    between atoms: C_7  and  C_8
REMARK    5  A    between atoms: C_8  and  N_9
REMARK                            x       y       z     vdW  Elec       q    Type
REMARK                         _______ _______ _______ _____ _____    ______ ____
ROOT
ATOM      1  N   UNL     1       4.479   1.255   0.946  0.00  0.00    +0.000 NA
ATOM      2  C   UNL     1       5.078  -0.021   0.523  0.00  0.00    +0.000 C 
ATOM      3  C   UNL     1       6.606   0.039   0.490  0.00  0.00    +0.000 C 
ATOM      4  C   UNL     1       7.105   1.135  -0.458  0.00  0.00    +0.000 C 
ATOM      5  C   UNL     1       6.500   2.458   0.047  0.00  0.00    +0.000 C 
ATOM      6  C   UNL     1       4.971   2.401   0.155  0.00  0.00    +0.000 C 
ENDROOT
BRANCH   1   7
ATOM      7  C   UNL     1       2.997   1.206   0.876  0.00  0.00    +0.000 C 
BRANCH   7   8
ATOM      8  C   UNL     1       2.329   0.155   1.794  0.00  0.00    +0.000 C 
BRANCH   8   9
ATOM      9  N   UNL     1       0.868   0.147   1.647  0.00  0.00    +0.000 NA
ATOM     10  H   UNL     1       0.478  -0.549   2.282  0.00  0.00    +0.000 HD
ATOM     11  H   UNL     1       0.625  -0.166   0.707  0.00  0.00    +0.000 HD
ENDBRANCH   8   9
ENDBRANCH   7   8
ENDBRANCH   1   7
BRANCH   4  12
ATOM     12  C   UNL     1       6.765   0.883  -1.951  0.00  0.00    +0.000 C 
BRANCH  12  13
ATOM     13  N   UNL     1       7.301  -0.348  -2.528  0.00  0.00    +0.000 N 
ATOM     14  C   UNL     1       8.646  -0.627  -2.586  0.00  0.00    +0.000 A 
ATOM     15  C   UNL     1       8.802  -1.870  -3.148  0.00  0.00    +0.000 A 
ATOM     16  C   UNL     1       7.507  -2.362  -3.484  0.00  0.00    +0.000 A 
ATOM     17  C   UNL     1       7.043  -3.554  -4.059  0.00  0.00    +0.000 A 
ATOM     18  C   UNL     1       5.685  -3.647  -4.282  0.00  0.00    +0.000 A 
ATOM     19  N   UNL     1       4.798  -2.664  -4.012  0.00  0.00    +0.000 NA
ATOM     20  C   UNL     1       5.235  -1.508  -3.458  0.00  0.00    +0.000 A 
ATOM     21  C   UNL     1       6.589  -1.364  -3.146  0.00  0.00    +0.000 A 
ENDBRANCH  12  13
ENDBRANCH   4  12
TORSDOF 5
