REMARK  Name = 
REMARK  6 active torsions:
REMARK  status: ('A' for Active; 'I' for Inactive)
REMARK    1  A    between atoms: C_2  and  C_4
REMARK    2  A    between atoms: C_7  and  O_8
REMARK    3  A    between atoms: O_8  and  C_9
REMARK    4  A    between atoms: C_9  and  C_10
REMARK    5  A    between atoms: C_10  and  C_13
REMARK    6  A    between atoms: C_17  and  C_18
REMARK                            x       y       z     vdW  Elec       q    Type
REMARK                         _______ _______ _______ _____ _____    ______ ____
ROOT
ATOM      1  C   UNL     1       5.929  -7.231  -0.504  0.00  0.00    +0.000 C 
ATOM      2  F   UNL     1       7.193  -6.895  -0.898  0.00  0.00    +0.000 F 
ATOM      3  F   UNL     1       6.014  -7.463   0.839  0.00  0.00    +0.000 F 
ENDROOT
BRANCH   1   4
ATOM      4  C   UNL     1       5.421  -8.455  -1.250  0.00  0.00    +0.000 A 
ATOM      5  C   UNL     1       4.552  -9.353  -0.619  0.00  0.00    +0.000 A 
ATOM      6  C   UNL     1       4.066 -10.462  -1.306  0.00  0.00    +0.000 A 
ATOM      7  C   UNL     1       4.433 -10.675  -2.636  0.00  0.00    +0.000 A 
ATOM      8  C   UNL     1       5.297  -9.793  -3.313  0.00  0.00    +0.000 A 
ATOM      9  C   UNL     1       5.788  -8.687  -2.591  0.00  0.00    +0.000 A 
BRANCH   8  10
ATOM     10  C   UNL     1       5.628 -10.014  -4.735  0.00  0.00    +0.000 A 
ATOM     11  C   UNL     1       6.838  -9.653  -5.318  0.00  0.00    +0.000 A 
ATOM     12  C   UNL     1       7.026  -9.863  -6.681  0.00  0.00    +0.000 A 
ATOM     13  C   UNL     1       5.997 -10.431  -7.404  0.00  0.00    +0.000 A 
ATOM     14  N   UNL     1       4.836 -10.792  -6.832  0.00  0.00    +0.000 NA
ATOM     15  N   UNL     1       4.654 -10.581  -5.489  0.00  0.00    +0.000 NA
ENDBRANCH   8  10
ENDBRANCH   1   4
BRANCH   1  16
ATOM     16  C   UNL     1       4.999  -6.028  -0.745  0.00  0.00    +0.000 C 
BRANCH  16  17
ATOM     17  O   UNL     1       5.411  -4.903   0.049  0.00  0.00    +0.000 OA
BRANCH  17  21
ATOM     18  C   UNL     1       3.302  -1.304  -0.090  0.00  0.00    +0.000 A 
ATOM     19  C   UNL     1       2.876  -2.359  -0.904  0.00  0.00    +0.000 A 
ATOM     20  C   UNL     1       3.554  -3.584  -0.883  0.00  0.00    +0.000 A 
ATOM     21  C   UNL     1       4.662  -3.763  -0.053  0.00  0.00    +0.000 A 
ATOM     22  C   UNL     1       5.089  -2.704   0.753  0.00  0.00    +0.000 A 
ATOM     23  C   UNL     1       4.419  -1.476   0.733  0.00  0.00    +0.000 A 
BRANCH  18  25
ATOM     24  N   UNL     1       1.286   0.022  -0.423  0.00  0.00    +0.000 N 
ATOM     25  C   UNL     1       2.616   0.013  -0.097  0.00  0.00    +0.000 C 
ATOM     26  O   UNL     1       3.197   1.046   0.206  0.00  0.00    +0.000 OA
ATOM     27  H   UNL     1       0.809   0.909  -0.320  0.00  0.00    +0.000 HD
ATOM     28  H   UNL     1       0.723  -0.814  -0.419  0.00  0.00    +0.000 HD
ENDBRANCH  18  25
ENDBRANCH  17  21
ENDBRANCH  16  17
ENDBRANCH   1  16
TORSDOF 6
