REMARK  Name = 
REMARK  4 active torsions:
REMARK  status: ('A' for Active; 'I' for Inactive)
REMARK    1  A    between atoms: C_2  and  C_4
REMARK    2  A    between atoms: C_7  and  C_8
REMARK    3  A    between atoms: C_8  and  C_9
REMARK    4  A    between atoms: C_13  and  C_14
REMARK                            x       y       z     vdW  Elec       q    Type
REMARK                         _______ _______ _______ _____ _____    ______ ____
ROOT
ATOM      1  C   UNL     1       5.451  -4.684  -0.331  0.00  0.00    +0.000 C 
ATOM      2  C   UNL     1       6.181  -5.182  -1.583  0.00  0.00    +0.000 C 
ATOM      3  C   UNL     1       5.271  -6.121  -0.875  0.00  0.00    +0.000 C 
ENDROOT
BRANCH   1   7
ATOM      4  C   UNL     1       2.044  -2.133  -1.024  0.00  0.00    +0.000 A 
ATOM      5  C   UNL     1       3.302  -1.537  -0.904  0.00  0.00    +0.000 A 
ATOM      6  C   UNL     1       4.425  -2.345  -0.660  0.00  0.00    +0.000 A 
ATOM      7  C   UNL     1       4.271  -3.730  -0.527  0.00  0.00    +0.000 A 
ATOM      8  N   UNL     1       3.038  -4.294  -0.625  0.00  0.00    +0.000 NA
ATOM      9  C   UNL     1       1.966  -3.504  -0.863  0.00  0.00    +0.000 A 
BRANCH   4  11
ATOM     10  N   UNL     1       0.858  -0.230  -1.975  0.00  0.00    +0.000 N 
ATOM     11  C   UNL     1       0.778  -1.406  -1.290  0.00  0.00    +0.000 C 
ATOM     12  O   UNL     1      -0.304  -1.862  -0.941  0.00  0.00    +0.000 OA
ATOM     13  H   UNL     1      -0.034   0.152  -2.269  0.00  0.00    +0.000 HD
ATOM     14  H   UNL     1       1.677   0.045  -2.496  0.00  0.00    +0.000 HD
ENDBRANCH   4  11
ENDBRANCH   1   7
BRANCH   1  15
ATOM     15  C   UNL     1       6.196  -4.690   1.005  0.00  0.00    +0.000 A 
ATOM     16  C   UNL     1       5.595  -5.238   2.148  0.00  0.00    +0.000 A 
ATOM     17  C   UNL     1       6.376  -5.721   3.194  0.00  0.00    +0.000 A 
ATOM     18  C   UNL     1       7.769  -5.640   3.117  0.00  0.00    +0.000 A 
ATOM     19  C   UNL     1       8.400  -4.988   2.047  0.00  0.00    +0.000 A 
ATOM     20  C   UNL     1       7.581  -4.456   1.038  0.00  0.00    +0.000 A 
BRANCH  19  21
ATOM     21  C   UNL     1       9.866  -4.975   1.877  0.00  0.00    +0.000 A 
ATOM     22  C   UNL     1      10.637  -6.119   2.126  0.00  0.00    +0.000 A 
ATOM     23  C   UNL     1      12.001  -6.083   1.882  0.00  0.00    +0.000 A 
ATOM     24  N   UNL     1      12.651  -5.003   1.402  0.00  0.00    +0.000 NA
ATOM     25  C   UNL     1      11.901  -3.911   1.158  0.00  0.00    +0.000 A 
ATOM     26  C   UNL     1      10.534  -3.849   1.378  0.00  0.00    +0.000 A 
ENDBRANCH  19  21
ENDBRANCH   1  15
TORSDOF 4
