REMARK  Name = 
REMARK  4 active torsions:
REMARK  status: ('A' for Active; 'I' for Inactive)
REMARK    1  A    between atoms: N_1  and  C_2
REMARK    2  A    between atoms: C_2  and  C_3
REMARK    3  A    between atoms: N_9  and  C_10
REMARK    4  A    between atoms: C_10  and  C_11
REMARK                            x       y       z     vdW  Elec       q    Type
REMARK                         _______ _______ _______ _____ _____    ______ ____
ROOT
ATOM      1  C   UNL     1       2.752   0.929  -1.180  0.00  0.00    +0.000 A 
ATOM      2  C   UNL     1       3.455   0.640  -2.347  0.00  0.00    +0.000 A 
ATOM      3  N   UNL     1       3.830   1.529  -3.293  0.00  0.00    +0.000 NA
ATOM      4  C   UNL     1       3.478   2.812  -3.038  0.00  0.00    +0.000 A 
ATOM      5  C   UNL     1       3.709   3.962  -3.825  0.00  0.00    +0.000 A 
ATOM      6  C   UNL     1       3.187   5.040  -3.145  0.00  0.00    +0.000 A 
ATOM      7  N   UNL     1       2.647   4.578  -1.965  0.00  0.00    +0.000 N 
ATOM      8  C   UNL     1       2.793   3.208  -1.889  0.00  0.00    +0.000 A 
ATOM      9  C   UNL     1       2.403   2.262  -0.934  0.00  0.00    +0.000 A 
ENDROOT
BRANCH   1  10
ATOM     10  C   UNL     1       2.397  -0.153  -0.200  0.00  0.00    +0.000 C 
BRANCH  10  11
ATOM     11  N   UNL     1       0.954  -0.316  -0.072  0.00  0.00    +0.000 NA
ATOM     12  H   UNL     1       0.758  -1.098   0.551  0.00  0.00    +0.000 HD
ATOM     13  H   UNL     1       0.565  -0.571  -0.980  0.00  0.00    +0.000 HD
ENDBRANCH  10  11
ENDBRANCH   1  10
BRANCH   7  14
ATOM     14  C   UNL     1       2.076   5.437  -0.933  0.00  0.00    +0.000 C 
BRANCH  14  15
ATOM     15  C   UNL     1       0.618   5.711  -1.198  0.00  0.00    +0.000 A 
ATOM     16  C   UNL     1       0.228   6.827  -1.954  0.00  0.00    +0.000 A 
ATOM     17  C   UNL     1      -1.116   7.035  -2.271  0.00  0.00    +0.000 A 
ATOM     18  C   UNL     1      -2.083   6.128  -1.837  0.00  0.00    +0.000 A 
ATOM     19  C   UNL     1      -1.706   5.032  -1.071  0.00  0.00    +0.000 A 
ATOM     20 CL   UNL     1      -2.899   3.911  -0.534  0.00  0.00    +0.000 Cl
ATOM     21  C   UNL     1      -0.368   4.821  -0.743  0.00  0.00    +0.000 A 
ENDBRANCH  14  15
ENDBRANCH   7  14
TORSDOF 4
