REMARK  Name = 
REMARK  5 active torsions:
REMARK  status: ('A' for Active; 'I' for Inactive)
REMARK    1  A    between atoms: C_2  and  C_4
REMARK    2  A    between atoms: C_7  and  O_8
REMARK    3  A    between atoms: O_8  and  C_9
REMARK    4  A    between atoms: C_9  and  C_10
REMARK    5  A    between atoms: C_14  and  C_15
REMARK                            x       y       z     vdW  Elec       q    Type
REMARK                         _______ _______ _______ _____ _____    ______ ____
ROOT
ATOM      1  C   UNL     1       5.097   2.492   5.316  0.00  0.00    +0.000 C 
ATOM      2  C   UNL     1       4.950   1.375   6.334  0.00  0.00    +0.000 C 
ATOM      3  C   UNL     1       3.785   2.254   6.025  0.00  0.00    +0.000 C 
ENDROOT
BRANCH   1   4
ATOM      4  C   UNL     1       5.920   3.727   5.661  0.00  0.00    +0.000 A 
ATOM      5  C   UNL     1       7.312   3.674   5.774  0.00  0.00    +0.000 A 
ATOM      6  C   UNL     1       8.069   4.831   5.946  0.00  0.00    +0.000 A 
ATOM      7  C   UNL     1       7.443   6.079   5.994  0.00  0.00    +0.000 A 
ATOM      8  C   UNL     1       6.050   6.191   5.901  0.00  0.00    +0.000 A 
ATOM      9  C   UNL     1       5.309   4.998   5.761  0.00  0.00    +0.000 A 
BRANCH   8  10
ATOM     10  C   UNL     1       5.393   7.512   5.851  0.00  0.00    +0.000 A 
ATOM     11  C   UNL     1       4.124   7.768   6.372  0.00  0.00    +0.000 A 
ATOM     12  N   UNL     1       3.493   8.966   6.256  0.00  0.00    +0.000 NA
ATOM     13  C   UNL     1       4.181   9.912   5.584  0.00  0.00    +0.000 A 
ATOM     14  C   UNL     1       5.445   9.682   5.072  0.00  0.00    +0.000 A 
ATOM     15  N   UNL     1       6.078   8.494   5.204  0.00  0.00    +0.000 NA
ENDBRANCH   8  10
ENDBRANCH   1   4
BRANCH   1  16
ATOM     16  O   UNL     1       5.305   1.913   4.004  0.00  0.00    +0.000 OA
BRANCH  16  20
ATOM     17  C   UNL     1       3.882   3.761   0.611  0.00  0.00    +0.000 A 
ATOM     18  C   UNL     1       4.716   2.645   0.510  0.00  0.00    +0.000 A 
ATOM     19  C   UNL     1       5.192   2.055   1.676  0.00  0.00    +0.000 A 
ATOM     20  C   UNL     1       4.809   2.582   2.901  0.00  0.00    +0.000 A 
ATOM     21  N   UNL     1       3.987   3.643   3.039  0.00  0.00    +0.000 NA
ATOM     22  C   UNL     1       3.563   4.224   1.884  0.00  0.00    +0.000 A 
BRANCH  17  24
ATOM     23  N   UNL     1       3.244   3.760  -1.733  0.00  0.00    +0.000 N 
ATOM     24  C   UNL     1       3.378   4.473  -0.575  0.00  0.00    +0.000 C 
ATOM     25  O   UNL     1       3.063   5.659  -0.518  0.00  0.00    +0.000 OA
ATOM     26  H   UNL     1       2.861   4.247  -2.532  0.00  0.00    +0.000 HD
ATOM     27  H   UNL     1       3.271   2.746  -1.770  0.00  0.00    +0.000 HD
ENDBRANCH  17  24
ENDBRANCH  16  20
ENDBRANCH   1  16
TORSDOF 5
