REMARK  Name = 
REMARK  6 active torsions:
REMARK  status: ('A' for Active; 'I' for Inactive)
REMARK    1  A    between atoms: C_2  and  C_21
REMARK    2  A    between atoms: N_3  and  C_4
REMARK    3  A    between atoms: C_4  and  C_5
REMARK    4  A    between atoms: C_8  and  C_9
REMARK    5  A    between atoms: C_9  and  C_10
REMARK    6  A    between atoms: C_10  and  C_11
REMARK                            x       y       z     vdW  Elec       q    Type
REMARK                         _______ _______ _______ _____ _____    ______ ____
ROOT
ATOM      1  C   UNL     1       2.233   2.402  -0.549  0.00  0.00    +0.000 C 
ENDROOT
BRANCH   1   2
ATOM      2  C   UNL     1       3.175   3.535  -0.862  0.00  0.00    +0.000 A 
ATOM      3  C   UNL     1       2.701   4.850  -0.887  0.00  0.00    +0.000 A 
ATOM      4  C   UNL     1       3.564   5.910  -1.164  0.00  0.00    +0.000 A 
ATOM      5  C   UNL     1       4.925   5.682  -1.417  0.00  0.00    +0.000 A 
ATOM      6  C   UNL     1       5.392   4.363  -1.428  0.00  0.00    +0.000 A 
ATOM      7  C   UNL     1       4.524   3.298  -1.162  0.00  0.00    +0.000 A 
BRANCH   5   8
ATOM      8  C   UNL     1       5.866   6.838  -1.686  0.00  0.00    +0.000 C 
BRANCH   8   9
ATOM      9  C   UNL     1       5.899   7.821  -0.517  0.00  0.00    +0.000 C 
BRANCH   9  10
ATOM     10  C   UNL     1       6.810   9.015  -0.748  0.00  0.00    +0.000 C 
ATOM     11  O   UNL     1       7.501   9.108  -1.762  0.00  0.00    +0.000 OA
ATOM     12  N   UNL     1       6.818   9.981   0.261  0.00  0.00    +0.000 N 
ATOM     13  C   UNL     1       7.533  11.236   0.028  0.00  0.00    +0.000 C 
ATOM     14  C   UNL     1       8.215  11.752   1.295  0.00  0.00    +0.000 C 
ATOM     15  C   UNL     1       7.262  11.785   2.488  0.00  0.00    +0.000 C 
ATOM     16  C   UNL     1       6.589  10.431   2.675  0.00  0.00    +0.000 C 
ATOM     17  C   UNL     1       5.892   9.989   1.395  0.00  0.00    +0.000 C 
ENDBRANCH   9  10
ENDBRANCH   8   9
ENDBRANCH   5   8
ENDBRANCH   1   2
BRANCH   1  20
ATOM     18  O   UNL     1      -0.282   3.111  -1.635  0.00  0.00    +0.000 OA
ATOM     19  C   UNL     1       0.426   2.306  -2.233  0.00  0.00    +0.000 C 
ATOM     20  N   UNL     1       1.628   1.873  -1.745  0.00  0.00    +0.000 N 
ATOM     21  H   UNL     1       2.250   1.352  -2.350  0.00  0.00    +0.000 HD
BRANCH  19  22
ATOM     22  C   UNL     1      -0.002   1.701  -3.504  0.00  0.00    +0.000 A 
ATOM     23  C   UNL     1      -1.348   1.676  -3.840  0.00  0.00    +0.000 A 
ATOM     24  S   UNL     1      -1.666   0.914  -5.332  0.00  0.00    +0.000 S 
ATOM     25  C   UNL     1      -0.009   0.636  -5.607  0.00  0.00    +0.000 A 
ATOM     26  N   UNL     1       0.419   0.032  -6.748  0.00  0.00    +0.000 NA
ATOM     27  C   UNL     1       1.703  -0.070  -6.847  0.00  0.00    +0.000 A 
ATOM     28  N   UNL     1       2.596   0.365  -5.904  0.00  0.00    +0.000 N 
ATOM     29  C   UNL     1       2.205   0.893  -4.699  0.00  0.00    +0.000 A 
ATOM     30  O   UNL     1       3.025   1.123  -3.815  0.00  0.00    +0.000 OA
ATOM     31  C   UNL     1       0.773   1.089  -4.561  0.00  0.00    +0.000 A 
ATOM     32  H   UNL     1       3.588   0.222  -6.025  0.00  0.00    +0.000 HD
ENDBRANCH  19  22
ENDBRANCH   1  20
TORSDOF 6
