REMARK  Name = 
REMARK  6 active torsions:
REMARK  status: ('A' for Active; 'I' for Inactive)
REMARK    1  A    between atoms: C_2  and  C_19
REMARK    2  A    between atoms: N_3  and  C_4
REMARK    3  A    between atoms: C_4  and  C_5
REMARK    4  A    between atoms: C_8  and  C_9
REMARK    5  A    between atoms: C_9  and  O_10
REMARK    6  A    between atoms: O_10  and  C_11
REMARK                            x       y       z     vdW  Elec       q    Type
REMARK                         _______ _______ _______ _____ _____    ______ ____
ROOT
ATOM      1  O   UNL     1      -0.078   3.165  -1.674  0.00  0.00    +0.000 OA
ATOM      2  C   UNL     1       0.588   2.299  -2.224  0.00  0.00    +0.000 C 
ATOM      3  N   UNL     1       1.764   1.814  -1.709  0.00  0.00    +0.000 N 
ATOM      4  H   UNL     1       2.348   1.218  -2.279  0.00  0.00    +0.000 HD
ENDROOT
BRANCH   2   5
ATOM      5  C   UNL     1       0.145   1.653  -3.467  0.00  0.00    +0.000 A 
ATOM      6  C   UNL     1      -1.202   1.577  -3.794  0.00  0.00    +0.000 A 
ATOM      7  S   UNL     1      -1.495   0.774  -5.269  0.00  0.00    +0.000 S 
ATOM      8  C   UNL     1       0.171   0.536  -5.536  0.00  0.00    +0.000 A 
ATOM      9  N   UNL     1       0.626  -0.089  -6.655  0.00  0.00    +0.000 NA
ATOM     10  C   UNL     1       1.912  -0.172  -6.737  0.00  0.00    +0.000 A 
ATOM     11  N   UNL     1       2.785   0.313  -5.795  0.00  0.00    +0.000 N 
ATOM     12  C   UNL     1       2.372   0.877  -4.625  0.00  0.00    +0.000 A 
ATOM     13  O   UNL     1       3.186   1.153  -3.745  0.00  0.00    +0.000 OA
ATOM     14  C   UNL     1       0.937   1.038  -4.501  0.00  0.00    +0.000 A 
ATOM     15  H   UNL     1       3.786   0.178  -5.897  0.00  0.00    +0.000 HD
ENDBRANCH   2   5
BRANCH   3  16
ATOM     16  C   UNL     1       2.390   2.339  -0.524  0.00  0.00    +0.000 C 
BRANCH  16  17
ATOM     17  C   UNL     1       3.336   3.475  -0.818  0.00  0.00    +0.000 A 
ATOM     18  C   UNL     1       2.856   4.791  -0.807  0.00  0.00    +0.000 A 
ATOM     19  C   UNL     1       3.717   5.871  -1.020  0.00  0.00    +0.000 A 
ATOM     20  C   UNL     1       5.079   5.656  -1.265  0.00  0.00    +0.000 A 
ATOM     21  C   UNL     1       5.560   4.340  -1.289  0.00  0.00    +0.000 A 
ATOM     22  C   UNL     1       4.695   3.258  -1.086  0.00  0.00    +0.000 A 
BRANCH  20  23
ATOM     23  C   UNL     1       6.009   6.815  -1.526  0.00  0.00    +0.000 C 
BRANCH  23  24
ATOM     24  O   UNL     1       6.567   7.297  -0.302  0.00  0.00    +0.000 OA
BRANCH  24  25
ATOM     25  C   UNL     1       7.414   8.371  -0.413  0.00  0.00    +0.000 A 
ATOM     26  C   UNL     1       7.812   8.973  -1.603  0.00  0.00    +0.000 A 
ATOM     27  C   UNL     1       8.663  10.066  -1.538  0.00  0.00    +0.000 A 
ATOM     28  N   UNL     1       9.137  10.583  -0.386  0.00  0.00    +0.000 NA
ATOM     29  C   UNL     1       8.741   9.978   0.753  0.00  0.00    +0.000 A 
ATOM     30  C   UNL     1       7.894   8.882   0.791  0.00  0.00    +0.000 A 
ENDBRANCH  24  25
ENDBRANCH  23  24
ENDBRANCH  20  23
ENDBRANCH  16  17
ENDBRANCH   3  16
TORSDOF 6
