REMARK  Name = 
REMARK  10 active torsions:
REMARK  status: ('A' for Active; 'I' for Inactive)
REMARK    1  A    between atoms: C_1  and  O_2
REMARK    2  A    between atoms: O_2  and  C_3
REMARK    3  A    between atoms: C_10  and  C_11
REMARK    4  A    between atoms: N_13  and  C_14
REMARK    5  A    between atoms: C_14  and  C_15
REMARK    6  A    between atoms: C_18  and  C_19
REMARK    7  A    between atoms: C_19  and  N_20
REMARK    8  A    between atoms: N_20  and  C_21
REMARK    9  A    between atoms: N_20  and  C_22
REMARK   10  A    between atoms: C_22  and  C_23
REMARK                            x       y       z     vdW  Elec       q    Type
REMARK                         _______ _______ _______ _____ _____    ______ ____
ROOT
ATOM      1  C   UNL     1       2.894  -2.907  -1.638  0.00  0.00    +0.000 C 
ENDROOT
BRANCH   1   2
ATOM      2  C   UNL     1       1.732  -3.263  -0.749  0.00  0.00    +0.000 A 
ATOM      3  C   UNL     1       1.481  -4.591  -0.389  0.00  0.00    +0.000 A 
ATOM      4  C   UNL     1       0.474  -4.896   0.532  0.00  0.00    +0.000 A 
ATOM      5  C   UNL     1      -0.289  -3.873   1.115  0.00  0.00    +0.000 A 
ATOM      6  C   UNL     1      -0.093  -2.555   0.685  0.00  0.00    +0.000 A 
ATOM      7  C   UNL     1       0.901  -2.254  -0.247  0.00  0.00    +0.000 A 
BRANCH   5   8
ATOM      8  C   UNL     1      -1.292  -4.170   2.210  0.00  0.00    +0.000 C 
BRANCH   8   9
ATOM      9  N   UNL     1      -0.710  -4.860   3.381  0.00  0.00    +0.000 NA
ATOM     10  C   UNL     1       0.323  -4.042   4.031  0.00  0.00    +0.000 C 
BRANCH   9  11
ATOM     11  C   UNL     1      -1.756  -5.178   4.374  0.00  0.00    +0.000 C 
BRANCH  11  12
ATOM     12  C   UNL     1      -2.795  -6.150   3.880  0.00  0.00    +0.000 A 
ATOM     13  C   UNL     1      -2.448  -7.425   3.424  0.00  0.00    +0.000 A 
ATOM     14  C   UNL     1      -3.443  -8.303   3.009  0.00  0.00    +0.000 A 
ATOM     15  C   UNL     1      -4.759  -7.875   3.061  0.00  0.00    +0.000 A 
ATOM     16  N   UNL     1      -5.135  -6.647   3.479  0.00  0.00    +0.000 NA
ATOM     17  C   UNL     1      -4.146  -5.816   3.878  0.00  0.00    +0.000 A 
ENDBRANCH  11  12
ENDBRANCH   9  11
ENDBRANCH   8   9
ENDBRANCH   5   8
ENDBRANCH   1   2
BRANCH   1  20
ATOM     18  C   UNL     1       3.466  -2.573  -3.984  0.00  0.00    +0.000 C 
ATOM     19  O   UNL     1       4.624  -2.292  -3.672  0.00  0.00    +0.000 OA
ATOM     20  N   UNL     1       2.536  -2.888  -3.032  0.00  0.00    +0.000 N 
ATOM     21  H   UNL     1       1.588  -3.131  -3.290  0.00  0.00    +0.000 HD
BRANCH  18  29
ATOM     22  C   UNL     1       0.485  -3.275  -5.580  0.00  0.00    +0.000 A 
ATOM     23  N   UNL     1      -0.516  -3.509  -6.453  0.00  0.00    +0.000 NA
ATOM     24  C   UNL     1      -0.274  -3.334  -7.754  0.00  0.00    +0.000 A 
ATOM     25  N   UNL     1       0.872  -2.949  -8.308  0.00  0.00    +0.000 NA
ATOM     26  C   UNL     1       1.848  -2.743  -7.407  0.00  0.00    +0.000 A 
ATOM     27  S   UNL     1       3.379  -2.243  -7.944  0.00  0.00    +0.000 S 
ATOM     28  C   UNL     1       3.974  -2.209  -6.354  0.00  0.00    +0.000 A 
ATOM     29  C   UNL     1       3.038  -2.570  -5.390  0.00  0.00    +0.000 A 
ATOM     30  C   UNL     1       1.761  -2.885  -6.023  0.00  0.00    +0.000 A 
BRANCH  22  32
ATOM     31  C   UNL     1      -1.172  -3.291  -3.939  0.00  0.00    +0.000 C 
ATOM     32  O   UNL     1       0.218  -3.444  -4.235  0.00  0.00    +0.000 OA
ENDBRANCH  22  32
ENDBRANCH  18  29
ENDBRANCH   1  20
TORSDOF 8
