REMARK  Name = 
REMARK  5 active torsions:
REMARK  status: ('A' for Active; 'I' for Inactive)
REMARK    1  A    between atoms: C_1  and  O_2
REMARK    2  A    between atoms: O_2  and  C_3
REMARK    3  A    between atoms: C_8  and  C_9
REMARK    4  A    between atoms: C_9  and  N_10
REMARK    5  A    between atoms: C_15  and  C_16
REMARK                            x       y       z     vdW  Elec       q    Type
REMARK                         _______ _______ _______ _____ _____    ______ ____
ROOT
ATOM      1  N   UNL     1       3.359   1.982   1.230  0.00  0.00    +0.000 N 
ATOM      2  C   UNL     1       2.349   2.434   2.050  0.00  0.00    +0.000 A 
ATOM      3  C   UNL     1       1.680   3.444   1.395  0.00  0.00    +0.000 A 
ATOM      4  C   UNL     1       2.309   3.627   0.135  0.00  0.00    +0.000 A 
ATOM      5  C   UNL     1       2.133   4.517  -0.939  0.00  0.00    +0.000 A 
ATOM      6  C   UNL     1       3.005   4.411  -2.027  0.00  0.00    +0.000 A 
ATOM      7  C   UNL     1       3.977   3.409  -1.998  0.00  0.00    +0.000 A 
ATOM      8  N   UNL     1       4.194   2.529  -0.984  0.00  0.00    +0.000 NA
ATOM      9  C   UNL     1       3.338   2.690   0.049  0.00  0.00    +0.000 A 
ENDROOT
BRANCH   6  10
ATOM     10  C   UNL     1       2.970   5.317  -3.201  0.00  0.00    +0.000 C 
ATOM     11  N   UNL     1       2.083   6.358  -3.202  0.00  0.00    +0.000 N 
ATOM     12  O   UNL     1       3.730   5.161  -4.154  0.00  0.00    +0.000 OA
ATOM     13  H   UNL     1       1.460   6.597  -2.446  0.00  0.00    +0.000 HD
ATOM     14  H   UNL     1       2.114   6.987  -3.996  0.00  0.00    +0.000 HD
ENDBRANCH   6  10
BRANCH   1  15
ATOM     15  C   UNL     1       4.439   1.106   1.661  0.00  0.00    +0.000 C 
BRANCH  15  21
ATOM     16  C   UNL     1       3.644  -1.211   2.379  0.00  0.00    +0.000 A 
ATOM     17  C   UNL     1       3.597  -2.591   2.148  0.00  0.00    +0.000 A 
ATOM     18  C   UNL     1       4.086  -3.130   0.955  0.00  0.00    +0.000 A 
ATOM     19  C   UNL     1       4.596  -2.292  -0.030  0.00  0.00    +0.000 A 
ATOM     20  C   UNL     1       4.647  -0.916   0.189  0.00  0.00    +0.000 A 
ATOM     21  C   UNL     1       4.201  -0.362   1.403  0.00  0.00    +0.000 A 
BRANCH  16  23
ATOM     22  C   UNL     1       2.837  -1.444   4.612  0.00  0.00    +0.000 C 
ATOM     23  O   UNL     1       3.182  -0.602   3.518  0.00  0.00    +0.000 OA
ENDBRANCH  16  23
ENDBRANCH  15  21
ENDBRANCH   1  15
TORSDOF 4
