REMARK  Name = 
REMARK  7 active torsions:
REMARK  status: ('A' for Active; 'I' for Inactive)
REMARK    1  A    between atoms: C_2  and  C_20
REMARK    2  A    between atoms: N_3  and  C_4
REMARK    3  A    between atoms: C_4  and  C_5
REMARK    4  A    between atoms: C_8  and  C_9
REMARK    5  A    between atoms: C_9  and  C_10
REMARK    6  A    between atoms: C_10  and  N_11
REMARK    7  A    between atoms: N_11  and  C_12
REMARK                            x       y       z     vdW  Elec       q    Type
REMARK                         _______ _______ _______ _____ _____    ______ ____
ROOT
ATOM      1  C   UNL     1       2.214  -2.142   1.189  0.00  0.00    +0.000 C 
ENDROOT
BRANCH   1   2
ATOM      2  C   UNL     1       3.150  -3.146   1.816  0.00  0.00    +0.000 A 
ATOM      3  C   UNL     1       4.269  -2.707   2.523  0.00  0.00    +0.000 A 
ATOM      4  C   UNL     1       5.096  -3.644   3.116  0.00  0.00    +0.000 A 
ATOM      5  C   UNL     1       4.791  -5.009   3.029  0.00  0.00    +0.000 A 
ATOM      6  C   UNL     1       3.661  -5.348   2.296  0.00  0.00    +0.000 A 
ATOM      7  N   UNL     1       2.846  -4.461   1.682  0.00  0.00    +0.000 NA
BRANCH   5   8
ATOM      8  C   UNL     1       5.643  -6.082   3.652  0.00  0.00    +0.000 C 
BRANCH   8   9
ATOM      9  C   UNL     1       6.411  -5.652   4.915  0.00  0.00    +0.000 C 
BRANCH   9  10
ATOM     10  N   UNL     1       5.564  -5.201   6.025  0.00  0.00    +0.000 NA
ATOM     11  H   UNL     1       4.906  -5.929   6.304  0.00  0.00    +0.000 HD
BRANCH  10  12
ATOM     12  C   UNL     1       6.354  -4.725   7.173  0.00  0.00    +0.000 C 
ATOM     13  C   UNL     1       7.267  -5.792   7.801  0.00  0.00    +0.000 C 
ATOM     14  C   UNL     1       7.938  -5.266   9.062  0.00  0.00    +0.000 C 
ATOM     15  O   UNL     1       6.961  -4.817   9.996  0.00  0.00    +0.000 OA
ATOM     16  C   UNL     1       6.193  -3.732   9.480  0.00  0.00    +0.000 C 
ATOM     17  C   UNL     1       5.411  -4.155   8.241  0.00  0.00    +0.000 C 
ENDBRANCH  10  12
ENDBRANCH   9  10
ENDBRANCH   8   9
ENDBRANCH   5   8
ENDBRANCH   1   2
BRANCH   1  20
ATOM     18  O   UNL     1       3.825   0.006   0.568  0.00  0.00    +0.000 OA
ATOM     19  C   UNL     1       3.419  -0.690  -0.361  0.00  0.00    +0.000 C 
ATOM     20  N   UNL     1       2.595  -1.767  -0.156  0.00  0.00    +0.000 N 
ATOM     21  H   UNL     1       2.381  -2.406  -0.913  0.00  0.00    +0.000 HD
BRANCH  19  22
ATOM     22  C   UNL     1       3.744  -0.388  -1.750  0.00  0.00    +0.000 A 
ATOM     23  C   UNL     1       2.896  -0.621  -2.822  0.00  0.00    +0.000 A 
ATOM     24  S   UNL     1       3.521  -0.037  -4.305  0.00  0.00    +0.000 S 
ATOM     25  C   UNL     1       4.939   0.538  -3.552  0.00  0.00    +0.000 A 
ATOM     26  N   UNL     1       5.911   1.172  -4.258  0.00  0.00    +0.000 NA
ATOM     27  C   UNL     1       6.915   1.562  -3.543  0.00  0.00    +0.000 A 
ATOM     28  N   UNL     1       7.040   1.368  -2.192  0.00  0.00    +0.000 N 
ATOM     29  C   UNL     1       6.130   0.651  -1.450  0.00  0.00    +0.000 A 
ATOM     30  O   UNL     1       6.381   0.335  -0.296  0.00  0.00    +0.000 OA
ATOM     31  C   UNL     1       4.946   0.262  -2.198  0.00  0.00    +0.000 A 
ATOM     32  H   UNL     1       7.876   1.642  -1.699  0.00  0.00    +0.000 HD
ENDBRANCH  19  22
ENDBRANCH   1  20
TORSDOF 7
