REMARK  Name = 
REMARK  7 active torsions:
REMARK  status: ('A' for Active; 'I' for Inactive)
REMARK    1  A    between atoms: N_1  and  C_2
REMARK    2  A    between atoms: C_2  and  C_3
REMARK    3  A    between atoms: C_6  and  O_7
REMARK    4  A    between atoms: O_7  and  C_8
REMARK    5  A    between atoms: C_8  and  C_9
REMARK    6  A    between atoms: C_12  and  S_13
REMARK    7  A    between atoms: S_13  and  N_14
REMARK                            x       y       z     vdW  Elec       q    Type
REMARK                         _______ _______ _______ _____ _____    ______ ____
ROOT
ATOM      1  C   UNL     1       3.901   3.179   5.568  0.00  0.00    +0.000 C 
ENDROOT
BRANCH   1   2
ATOM      2  C   UNL     1       4.259   3.367   7.023  0.00  0.00    +0.000 A 
ATOM      3  C   UNL     1       5.464   2.844   7.523  0.00  0.00    +0.000 A 
ATOM      4  C   UNL     1       5.825   3.044   8.856  0.00  0.00    +0.000 A 
ATOM      5  C   UNL     1       4.979   3.783   9.687  0.00  0.00    +0.000 A 
ATOM      6  C   UNL     1       3.769   4.294   9.210  0.00  0.00    +0.000 A 
ATOM      7  C   UNL     1       3.417   4.091   7.879  0.00  0.00    +0.000 A 
BRANCH   5   8
ATOM      8  S   UNL     1       5.445   4.119  11.355  0.00  0.00    +0.000 S 
ATOM      9  O   UNL     1       4.266   4.403  12.139  0.00  0.00    +0.000 OA
ATOM     10  O   UNL     1       6.456   3.176  11.774  0.00  0.00    +0.000 OA
BRANCH   8  11
ATOM     11  N   UNL     1       6.237   5.590  11.155  0.00  0.00    +0.000 NA
ATOM     12  H   UNL     1       5.734   6.333  11.636  0.00  0.00    +0.000 HD
ATOM     13  H   UNL     1       7.220   5.500  11.403  0.00  0.00    +0.000 HD
ENDBRANCH   8  11
ENDBRANCH   5   8
ENDBRANCH   1   2
BRANCH   1  14
ATOM     14  O   UNL     1       3.817   1.786   5.280  0.00  0.00    +0.000 OA
BRANCH  14  18
ATOM     15  C   UNL     1       2.766   0.505   1.438  0.00  0.00    +0.000 A 
ATOM     16  C   UNL     1       2.892   1.879   1.686  0.00  0.00    +0.000 A 
ATOM     17  C   UNL     1       3.248   2.350   2.952  0.00  0.00    +0.000 A 
ATOM     18  C   UNL     1       3.484   1.452   3.994  0.00  0.00    +0.000 A 
ATOM     19  C   UNL     1       3.376   0.081   3.748  0.00  0.00    +0.000 A 
ATOM     20  C   UNL     1       3.020  -0.391   2.482  0.00  0.00    +0.000 A 
BRANCH  15  21
ATOM     21  C   UNL     1       2.325   0.014   0.084  0.00  0.00    +0.000 C 
BRANCH  21  22
ATOM     22  N   UNL     1       3.226   0.466  -0.969  0.00  0.00    +0.000 NA
ATOM     23  H   UNL     1       2.973   0.009  -1.843  0.00  0.00    +0.000 HD
ATOM     24  H   UNL     1       4.171   0.157  -0.743  0.00  0.00    +0.000 HD
ENDBRANCH  21  22
ENDBRANCH  15  21
ENDBRANCH  14  18
ENDBRANCH   1  14
TORSDOF 7
