REMARK  Name = 
REMARK  5 active torsions:
REMARK  status: ('A' for Active; 'I' for Inactive)
REMARK    1  A    between atoms: C_1  and  C_2
REMARK    2  A    between atoms: C_2  and  O_3
REMARK    3  A    between atoms: C_2  and  C_14
REMARK    4  A    between atoms: O_3  and  C_4
REMARK    5  A    between atoms: C_9  and  C_10
REMARK                            x       y       z     vdW  Elec       q    Type
REMARK                         _______ _______ _______ _____ _____    ______ ____
ROOT
ATOM      1  C   UNL     1       2.814   0.423   2.424  0.00  0.00    +0.000 A 
ATOM      2  C   UNL     1       2.146   1.641   2.515  0.00  0.00    +0.000 A 
ATOM      3  C   UNL     1       2.231   2.402   3.681  0.00  0.00    +0.000 A 
ATOM      4  C   UNL     1       2.994   1.955   4.753  0.00  0.00    +0.000 A 
ATOM      5  F   UNL     1       3.035   2.722   5.855  0.00  0.00    +0.000 F 
ATOM      6  C   UNL     1       3.684   0.747   4.682  0.00  0.00    +0.000 A 
ATOM      7  C   UNL     1       3.588  -0.019   3.509  0.00  0.00    +0.000 A 
ENDROOT
BRANCH   6   8
ATOM      8  C   UNL     1       4.504   0.233   5.814  0.00  0.00    +0.000 C 
ATOM      9  N   UNL     1       4.531   0.959   6.972  0.00  0.00    +0.000 N 
ATOM     10  O   UNL     1       5.133  -0.816   5.724  0.00  0.00    +0.000 OA
ATOM     11  H   UNL     1       4.030   1.830   7.094  0.00  0.00    +0.000 HD
ATOM     12  H   UNL     1       5.078   0.604   7.746  0.00  0.00    +0.000 HD
ENDBRANCH   6   8
BRANCH   1  13
ATOM     13  O   UNL     1       2.728  -0.445   1.373  0.00  0.00    +0.000 OA
BRANCH  13  15
ATOM     14  C   UNL     1       0.919   0.063  -0.207  0.00  0.00    +0.000 C 
ATOM     15  C   UNL     1       2.426   0.062   0.061  0.00  0.00    +0.000 C 
BRANCH  15  16
ATOM     16  C   UNL     1       3.102  -0.846  -0.962  0.00  0.00    +0.000 A 
ATOM     17  C   UNL     1       3.152  -2.228  -0.772  0.00  0.00    +0.000 A 
ATOM     18  C   UNL     1       3.801  -3.020  -1.716  0.00  0.00    +0.000 A 
ATOM     19  C   UNL     1       4.366  -2.420  -2.833  0.00  0.00    +0.000 A 
ATOM     20  C   UNL     1       4.244  -1.048  -2.968  0.00  0.00    +0.000 A 
ATOM     21  N   UNL     1       3.624  -0.252  -2.067  0.00  0.00    +0.000 NA
ENDBRANCH  15  16
ENDBRANCH  13  15
ENDBRANCH   1  13
TORSDOF 4
