REMARK  Name = 
REMARK  8 active torsions:
REMARK  status: ('A' for Active; 'I' for Inactive)
REMARK    1  A    between atoms: C_1  and  C_2
REMARK    2  A    between atoms: C_2  and  C_3
REMARK    3  A    between atoms: C_2  and  C_4
REMARK    4  A    between atoms: C_2  and  O_5
REMARK    5  A    between atoms: O_5  and  C_6
REMARK    6  A    between atoms: C_11  and  N_12
REMARK    7  A    between atoms: N_12  and  C_13
REMARK    8  A    between atoms: C_13  and  C_14
REMARK                            x       y       z     vdW  Elec       q    Type
REMARK                         _______ _______ _______ _____ _____    ______ ____
ROOT
ATOM      1  C   UNL     1       4.350   1.080  -1.189  0.00  0.00    +0.000 C 
ATOM      2  O   UNL     1       4.864  -0.030  -1.210  0.00  0.00    +0.000 OA
ATOM      3  N   UNL     1       4.717   2.086  -2.059  0.00  0.00    +0.000 N 
ATOM      4  C   UNL     1       5.881   1.877  -2.911  0.00  0.00    +0.000 C 
ATOM      5  C   UNL     1       6.974   2.879  -2.541  0.00  0.00    +0.000 C 
ATOM      6  C   UNL     1       6.457   4.331  -2.621  0.00  0.00    +0.000 C 
ATOM      7  C   UNL     1       5.225   4.455  -1.703  0.00  0.00    +0.000 C 
ATOM      8  C   UNL     1       4.150   3.428  -2.052  0.00  0.00    +0.000 C 
ENDROOT
BRANCH   6   9
ATOM      9  N   UNL     1       6.195   4.662  -4.036  0.00  0.00    +0.000 NA
ATOM     10  H   UNL     1       5.493   4.036  -4.421  0.00  0.00    +0.000 HD
BRANCH   9  11
ATOM     11  C   UNL     1       5.804   6.071  -4.296  0.00  0.00    +0.000 C 
ATOM     12  C   UNL     1       4.344   6.469  -4.173  0.00  0.00    +0.000 C 
ATOM     13  C   UNL     1       4.941   6.305  -5.531  0.00  0.00    +0.000 C 
BRANCH  11  14
ATOM     14  C   UNL     1       6.860   7.131  -3.969  0.00  0.00    +0.000 A 
ATOM     15  C   UNL     1       7.877   7.428  -4.881  0.00  0.00    +0.000 A 
ATOM     16  C   UNL     1       8.795   8.433  -4.592  0.00  0.00    +0.000 A 
ATOM     17  C   UNL     1       8.696   9.111  -3.386  0.00  0.00    +0.000 A 
ATOM     18  C   UNL     1       7.683   8.750  -2.517  0.00  0.00    +0.000 A 
ATOM     19  N   UNL     1       6.772   7.789  -2.781  0.00  0.00    +0.000 NA
ENDBRANCH  11  14
ENDBRANCH   9  11
ENDBRANCH   6   9
BRANCH   1  20
ATOM     20  O   UNL     1       3.390   1.464  -0.303  0.00  0.00    +0.000 OA
BRANCH  20  22
ATOM     21  C   UNL     1       4.126   0.127   1.629  0.00  0.00    +0.000 C 
ATOM     22  C   UNL     1       2.962   0.518   0.709  0.00  0.00    +0.000 C 
ATOM     23  C   UNL     1       2.275  -0.692   0.062  0.00  0.00    +0.000 C 
ATOM     24  C   UNL     1       1.919   1.257   1.566  0.00  0.00    +0.000 C 
ENDBRANCH  20  22
ENDBRANCH   1  20
TORSDOF 5
