REMARK  Name = 
REMARK  6 active torsions:
REMARK  status: ('A' for Active; 'I' for Inactive)
REMARK    1  A    between atoms: C_2  and  C_19
REMARK    2  A    between atoms: N_3  and  C_4
REMARK    3  A    between atoms: C_4  and  C_5
REMARK    4  A    between atoms: C_8  and  C_9
REMARK    5  A    between atoms: C_9  and  N_10
REMARK    6  A    between atoms: N_10  and  C_11
REMARK                            x       y       z     vdW  Elec       q    Type
REMARK                         _______ _______ _______ _____ _____    ______ ____
ROOT
ATOM      1  C   UNL     1       2.379  -1.080  -2.143  0.00  0.00    +0.000 C 
ENDROOT
BRANCH   1   2
ATOM      2  C   UNL     1       3.337  -1.748  -3.126  0.00  0.00    +0.000 C 
ATOM      3  C   UNL     1       3.477  -3.256  -2.840  0.00  0.00    +0.000 C 
ATOM      4  C   UNL     1       4.473  -3.914  -3.789  0.00  0.00    +0.000 C 
ATOM      5  C   UNL     1       5.841  -3.217  -3.745  0.00  0.00    +0.000 C 
ATOM      6  C   UNL     1       5.689  -1.717  -4.032  0.00  0.00    +0.000 C 
ATOM      7  C   UNL     1       4.703  -1.059  -3.075  0.00  0.00    +0.000 C 
BRANCH   5   8
ATOM      8  C   UNL     1       6.809  -3.882  -4.737  0.00  0.00    +0.000 C 
BRANCH   8   9
ATOM      9  N   UNL     1       8.128  -3.258  -4.651  0.00  0.00    +0.000 NA
ATOM     10  H   UNL     1       8.474  -3.311  -3.694  0.00  0.00    +0.000 HD
BRANCH   9  11
ATOM     11  C   UNL     1       9.110  -3.800  -5.598  0.00  0.00    +0.000 C 
ATOM     12  C   UNL     1       9.422  -5.290  -5.393  0.00  0.00    +0.000 C 
ATOM     13  C   UNL     1      10.185  -5.536  -4.094  0.00  0.00    +0.000 C 
ATOM     14  N   UNL     1      11.439  -4.780  -4.061  0.00  0.00    +0.000 NA
ATOM     15  C   UNL     1      11.191  -3.341  -4.194  0.00  0.00    +0.000 C 
ATOM     16  C   UNL     1      10.422  -3.003  -5.473  0.00  0.00    +0.000 C 
ATOM     17  H   UNL     1      12.027  -5.084  -4.838  0.00  0.00    +0.000 HD
ENDBRANCH   9  11
ENDBRANCH   8   9
ENDBRANCH   5   8
ENDBRANCH   1   2
BRANCH   1  20
ATOM     18  O   UNL     1       0.262  -0.175  -3.837  0.00  0.00    +0.000 OA
ATOM     19  C   UNL     1       0.072  -1.100  -3.055  0.00  0.00    +0.000 C 
ATOM     20  N   UNL     1       1.052  -1.630  -2.260  0.00  0.00    +0.000 N 
ATOM     21  H   UNL     1       0.830  -2.396  -1.638  0.00  0.00    +0.000 HD
BRANCH  19  22
ATOM     22  C   UNL     1      -1.226  -1.766  -2.938  0.00  0.00    +0.000 A 
ATOM     23  C   UNL     1      -2.099  -1.827  -4.012  0.00  0.00    +0.000 A 
ATOM     24  S   UNL     1      -3.533  -2.690  -3.663  0.00  0.00    +0.000 S 
ATOM     25  C   UNL     1      -3.041  -2.975  -2.058  0.00  0.00    +0.000 A 
ATOM     26  N   UNL     1      -3.822  -3.680  -1.192  0.00  0.00    +0.000 NA
ATOM     27  C   UNL     1      -3.326  -3.808  -0.007  0.00  0.00    +0.000 A 
ATOM     28  N   UNL     1      -2.120  -3.290   0.399  0.00  0.00    +0.000 N 
ATOM     29  C   UNL     1      -1.306  -2.564  -0.433  0.00  0.00    +0.000 A 
ATOM     30  O   UNL     1      -0.234  -2.128  -0.031  0.00  0.00    +0.000 OA
ATOM     31  C   UNL     1      -1.808  -2.416  -1.789  0.00  0.00    +0.000 A 
ATOM     32  H   UNL     1      -1.785  -3.426   1.339  0.00  0.00    +0.000 HD
ENDBRANCH  19  22
ENDBRANCH   1  20
TORSDOF 6
