REMARK  Name = 
REMARK  7 active torsions:
REMARK  status: ('A' for Active; 'I' for Inactive)
REMARK    1  A    between atoms: C_1  and  C_2
REMARK    2  A    between atoms: C_5  and  O_6
REMARK    3  A    between atoms: O_6  and  C_7
REMARK    4  A    between atoms: C_9  and  O_10
REMARK    5  A    between atoms: O_10  and  C_11
REMARK    6  A    between atoms: C_11  and  C_12
REMARK    7  A    between atoms: C_12  and  C_15
REMARK                            x       y       z     vdW  Elec       q    Type
REMARK                         _______ _______ _______ _____ _____    ______ ____
ROOT
ATOM      1  C   UNL     1       1.277   2.428   1.811  0.00  0.00    +0.000 A 
ATOM      2  C   UNL     1       0.120   2.200   1.084  0.00  0.00    +0.000 A 
ATOM      3  C   UNL     1      -0.756   3.268   0.891  0.00  0.00    +0.000 A 
ATOM      4  C   UNL     1      -0.458   4.493   1.483  0.00  0.00    +0.000 A 
ATOM      5  C   UNL     1       0.712   4.610   2.210  0.00  0.00    +0.000 A 
ATOM      6  N   UNL     1       1.595   3.610   2.378  0.00  0.00    +0.000 NA
ENDROOT
BRANCH   1   7
ATOM      7  O   UNL     1       2.153   1.373   1.974  0.00  0.00    +0.000 OA
BRANCH   7  12
ATOM      8  C   UNL     1       3.852   2.232  -0.409  0.00  0.00    +0.000 C 
ATOM      9  C   UNL     1       4.456   1.934   0.949  0.00  0.00    +0.000 C 
ATOM     10  N   UNL     1       4.843   0.503   1.075  0.00  0.00    +0.000 NA
ATOM     11  C   UNL     1       4.503   0.571   2.513  0.00  0.00    +0.000 C 
ATOM     12  C   UNL     1       3.542   1.743   2.199  0.00  0.00    +0.000 C 
ATOM     13  H   UNL     1       5.817   0.295   0.868  0.00  0.00    +0.000 HD
ENDBRANCH   7  12
ENDBRANCH   1   7
BRANCH   3  14
ATOM     14  O   UNL     1      -1.859   3.015   0.112  0.00  0.00    +0.000 OA
BRANCH  14  15
ATOM     15  C   UNL     1      -2.666   4.164  -0.204  0.00  0.00    +0.000 C 
BRANCH  15  16
ATOM     16  C   UNL     1      -3.831   3.836  -1.145  0.00  0.00    +0.000 C 
ATOM     17  F   UNL     1      -4.622   2.896  -0.540  0.00  0.00    +0.000 F 
ATOM     18  F   UNL     1      -4.623   4.956  -1.204  0.00  0.00    +0.000 F 
BRANCH  16  19
ATOM     19  C   UNL     1      -3.359   3.421  -2.531  0.00  0.00    +0.000 A 
ATOM     20  C   UNL     1      -3.754   2.190  -3.058  0.00  0.00    +0.000 A 
ATOM     21  C   UNL     1      -3.350   1.837  -4.346  0.00  0.00    +0.000 A 
ATOM     22  C   UNL     1      -2.568   2.719  -5.078  0.00  0.00    +0.000 A 
ATOM     23 CL   UNL     1      -2.052   2.322  -6.665  0.00  0.00    +0.000 Cl
ATOM     24  C   UNL     1      -2.220   3.926  -4.496  0.00  0.00    +0.000 A 
ATOM     25  N   UNL     1      -2.595   4.298  -3.245  0.00  0.00    +0.000 NA
ENDBRANCH  16  19
ENDBRANCH  15  16
ENDBRANCH  14  15
ENDBRANCH   3  14
TORSDOF 6
