REMARK  Name = 
REMARK  7 active torsions:
REMARK  status: ('A' for Active; 'I' for Inactive)
REMARK    1  A    between atoms: C_1  and  C_2
REMARK    2  A    between atoms: C_2  and  N_3
REMARK    3  A    between atoms: C_2  and  C_11
REMARK    4  A    between atoms: C_4  and  C_6
REMARK    5  A    between atoms: C_14  and  C_15
REMARK    6  A    between atoms: C_15  and  N_16
REMARK    7  A    between atoms: C_17  and  C_19
REMARK                            x       y       z     vdW  Elec       q    Type
REMARK                         _______ _______ _______ _____ _____    ______ ____
ROOT
ATOM      1  C   UNL     1       2.797   1.125   0.742  0.00  0.00    +0.000 A 
ATOM      2  C   UNL     1       2.706   2.443   0.265  0.00  0.00    +0.000 A 
ATOM      3  C   UNL     1       3.012   3.533   1.089  0.00  0.00    +0.000 A 
ATOM      4  C   UNL     1       3.441   3.332   2.406  0.00  0.00    +0.000 A 
ATOM      5  C   UNL     1       3.555   2.020   2.879  0.00  0.00    +0.000 A 
ATOM      6  C   UNL     1       3.254   0.930   2.054  0.00  0.00    +0.000 A 
ENDROOT
BRANCH   1   8
ATOM      7  C   UNL     1       1.706  -1.179   0.547  0.00  0.00    +0.000 C 
ATOM      8  C   UNL     1       2.410  -0.025  -0.176  0.00  0.00    +0.000 C 
BRANCH   8   9
ATOM      9  N   UNL     1       3.573  -0.489  -0.910  0.00  0.00    +0.000 N 
ATOM     10  C   UNL     1       3.469  -1.020  -2.179  0.00  0.00    +0.000 C 
ATOM     11  O   UNL     1       2.393  -1.174  -2.743  0.00  0.00    +0.000 OA
ATOM     12  H   UNL     1       4.471  -0.457  -0.453  0.00  0.00    +0.000 HD
BRANCH  10  13
ATOM     13  C   UNL     1       4.715  -1.376  -2.805  0.00  0.00    +0.000 A 
ATOM     14  C   UNL     1       6.042  -1.245  -2.442  0.00  0.00    +0.000 A 
ATOM     15  C   UNL     1       6.776  -1.786  -3.516  0.00  0.00    +0.000 A 
ATOM     16  N   UNL     1       5.987  -2.228  -4.495  0.00  0.00    +0.000 NA
ATOM     17  N   UNL     1       4.747  -1.961  -4.047  0.00  0.00    +0.000 N 
ATOM     18  H   UNL     1       3.950  -2.198  -4.629  0.00  0.00    +0.000 HD
ENDBRANCH  10  13
ENDBRANCH   8   9
ENDBRANCH   1   8
BRANCH   4  19
ATOM     19  C   UNL     1       3.714   4.498   3.322  0.00  0.00    +0.000 C 
BRANCH  19  20
ATOM     20  N   UNL     1       2.518   4.887   4.027  0.00  0.00    +0.000 N 
ATOM     21  C   UNL     1       2.493   5.975   4.860  0.00  0.00    +0.000 C 
ATOM     22  O   UNL     1       3.479   6.688   5.032  0.00  0.00    +0.000 OA
ATOM     23  H   UNL     1       1.779   4.194   4.092  0.00  0.00    +0.000 HD
BRANCH  21  24
ATOM     24  C   UNL     1       1.202   6.286   5.487  0.00  0.00    +0.000 A 
ATOM     25  C   UNL     1       0.934   7.581   5.911  0.00  0.00    +0.000 A 
ATOM     26  S   UNL     1      -0.636   7.782   6.547  0.00  0.00    +0.000 S 
ATOM     27  C   UNL     1      -0.994   6.133   6.330  0.00  0.00    +0.000 A 
ATOM     28  N   UNL     1      -2.202   5.625   6.698  0.00  0.00    +0.000 NA
ATOM     29  C   UNL     1      -2.328   4.355   6.503  0.00  0.00    +0.000 A 
ATOM     30  N   UNL     1      -1.357   3.547   5.971  0.00  0.00    +0.000 N 
ATOM     31  C   UNL     1      -0.133   4.020   5.563  0.00  0.00    +0.000 A 
ATOM     32  O   UNL     1       0.701   3.275   5.058  0.00  0.00    +0.000 OA
ATOM     33  C   UNL     1       0.063   5.442   5.766  0.00  0.00    +0.000 A 
ATOM     34  H   UNL     1      -1.520   2.560   5.838  0.00  0.00    +0.000 HD
ENDBRANCH  21  24
ENDBRANCH  19  20
ENDBRANCH   4  19
TORSDOF 6
