REMARK  Name = 
REMARK  10 active torsions:
REMARK  status: ('A' for Active; 'I' for Inactive)
REMARK    1  A    between atoms: N_1  and  C_2
REMARK    2  A    between atoms: C_2  and  C_3
REMARK    3  A    between atoms: C_3  and  N_4
REMARK    4  A    between atoms: N_4  and  C_5
REMARK    5  A    between atoms: C_5  and  C_6
REMARK    6  A    between atoms: C_9  and  C_10
REMARK    7  A    between atoms: C_10  and  N_11
REMARK    8  A    between atoms: C_14  and  C_15
REMARK    9  A    between atoms: C_15  and  N_16
REMARK   10  A    between atoms: C_17  and  C_19
REMARK                            x       y       z     vdW  Elec       q    Type
REMARK                         _______ _______ _______ _____ _____    ______ ____
ROOT
ATOM      1  N   UNL     1      11.335   0.834  -2.322  0.00  0.00    +0.000 NA
ATOM      2  C   UNL     1      11.074   1.972  -3.221  0.00  0.00    +0.000 C 
ATOM      3  C   UNL     1      11.610   3.303  -2.686  0.00  0.00    +0.000 C 
ATOM      4  C   UNL     1      11.130   3.613  -1.262  0.00  0.00    +0.000 C 
ATOM      5  C   UNL     1      11.484   2.415  -0.375  0.00  0.00    +0.000 C 
ATOM      6  C   UNL     1      10.937   1.097  -0.931  0.00  0.00    +0.000 C 
ENDROOT
BRANCH   1   7
ATOM      7  C   UNL     1      10.609  -0.370  -2.806  0.00  0.00    +0.000 C 
BRANCH   7  11
ATOM      8  C   UNL     1      12.029  -2.019  -6.488  0.00  0.00    +0.000 A 
ATOM      9  C   UNL     1      12.640  -2.385  -5.288  0.00  0.00    +0.000 A 
ATOM     10  C   UNL     1      12.188  -1.846  -4.087  0.00  0.00    +0.000 A 
ATOM     11  C   UNL     1      11.126  -0.949  -4.110  0.00  0.00    +0.000 A 
ATOM     12  N   UNL     1      10.517  -0.567  -5.264  0.00  0.00    +0.000 NA
ATOM     13  C   UNL     1      10.982  -1.105  -6.417  0.00  0.00    +0.000 A 
BRANCH   8  14
ATOM     14  C   UNL     1      12.526  -2.538  -7.812  0.00  0.00    +0.000 C 
BRANCH  14  15
ATOM     15  N   UNL     1      12.467  -4.001  -7.886  0.00  0.00    +0.000 NA
ATOM     16  H   UNL     1      13.062  -4.372  -7.141  0.00  0.00    +0.000 HD
BRANCH  15  17
ATOM     17  C   UNL     1      13.034  -4.509  -9.145  0.00  0.00    +0.000 C 
BRANCH  17  18
ATOM     18  C   UNL     1      14.554  -4.277  -9.288  0.00  0.00    +0.000 C 
BRANCH  18  19
ATOM     19  N   UNL     1      15.289  -4.736  -8.104  0.00  0.00    +0.000 NA
ATOM     20  H   UNL     1      16.284  -4.558  -8.244  0.00  0.00    +0.000 HD
ATOM     21  H   UNL     1      15.195  -5.749  -8.029  0.00  0.00    +0.000 HD
ENDBRANCH  18  19
ENDBRANCH  17  18
ENDBRANCH  15  17
ENDBRANCH  14  15
ENDBRANCH   8  14
ENDBRANCH   7  11
ENDBRANCH   1   7
BRANCH   4  22
ATOM     22  C   UNL     1       9.627   3.942  -1.173  0.00  0.00    +0.000 C 
BRANCH  22  23
ATOM     23  N   UNL     1       9.265   5.125  -1.924  0.00  0.00    +0.000 N 
ATOM     24  C   UNL     1       9.373   6.396  -1.418  0.00  0.00    +0.000 C 
ATOM     25  O   UNL     1       9.807   6.621  -0.292  0.00  0.00    +0.000 OA
ATOM     26  H   UNL     1       8.779   4.981  -2.803  0.00  0.00    +0.000 HD
BRANCH  24  27
ATOM     27  C   UNL     1       9.000   7.488  -2.326  0.00  0.00    +0.000 A 
ATOM     28  C   UNL     1       9.538   8.754  -2.137  0.00  0.00    +0.000 A 
ATOM     29  S   UNL     1       9.046   9.889  -3.311  0.00  0.00    +0.000 S 
ATOM     30  C   UNL     1       8.045   8.746  -4.076  0.00  0.00    +0.000 A 
ATOM     31  N   UNL     1       7.300   9.085  -5.162  0.00  0.00    +0.000 NA
ATOM     32  C   UNL     1       6.554   8.132  -5.612  0.00  0.00    +0.000 A 
ATOM     33  N   UNL     1       6.490   6.872  -5.081  0.00  0.00    +0.000 N 
ATOM     34  C   UNL     1       7.262   6.468  -4.018  0.00  0.00    +0.000 A 
ATOM     35  O   UNL     1       7.240   5.308  -3.619  0.00  0.00    +0.000 OA
ATOM     36  C   UNL     1       8.101   7.508  -3.456  0.00  0.00    +0.000 A 
ATOM     37  H   UNL     1       5.895   6.168  -5.493  0.00  0.00    +0.000 HD
ENDBRANCH  24  27
ENDBRANCH  22  23
ENDBRANCH   4  22
TORSDOF 10
