REMARK  Name = 
REMARK  7 active torsions:
REMARK  status: ('A' for Active; 'I' for Inactive)
REMARK    1  A    between atoms: C_2  and  C_3
REMARK    2  A    between atoms: C_2  and  C_25
REMARK    3  A    between atoms: C_3  and  C_4
REMARK    4  A    between atoms: C_4  and  C_5
REMARK    5  A    between atoms: C_8  and  C_9
REMARK    6  A    between atoms: C_9  and  N_10
REMARK    7  A    between atoms: C_11  and  C_13
REMARK                            x       y       z     vdW  Elec       q    Type
REMARK                         _______ _______ _______ _____ _____    ______ ____
ROOT
ATOM      1  C   UNL     1       2.707   3.524   1.220  0.00  0.00    +0.000 A 
ATOM      2  C   UNL     1       2.145   4.763   0.907  0.00  0.00    +0.000 A 
ATOM      3  C   UNL     1       2.778   5.936   1.315  0.00  0.00    +0.000 A 
ATOM      4  C   UNL     1       3.971   5.850   2.029  0.00  0.00    +0.000 A 
ATOM      5  N   UNL     1       4.526   4.658   2.362  0.00  0.00    +0.000 NA
ATOM      6  C   UNL     1       3.888   3.535   1.955  0.00  0.00    +0.000 A 
ENDROOT
BRANCH   1   7
ATOM      7  C   UNL     1       2.037   2.229   0.844  0.00  0.00    +0.000 C 
BRANCH   7   8
ATOM      8  C   UNL     1       1.827   2.054  -0.664  0.00  0.00    +0.000 C 
BRANCH   8  10
ATOM      9  O   UNL     1       0.817  -0.068  -0.090  0.00  0.00    +0.000 OA
ATOM     10  C   UNL     1       1.113   0.747  -0.963  0.00  0.00    +0.000 C 
BRANCH  10  11
ATOM     11  C   UNL     1       0.760   0.464  -2.376  0.00  0.00    +0.000 A 
ATOM     12  C   UNL     1       0.049  -0.684  -2.695  0.00  0.00    +0.000 A 
ATOM     13  N   UNL     1      -0.305  -0.991  -3.970  0.00  0.00    +0.000 NA
ATOM     14  C   UNL     1       0.087  -0.100  -4.909  0.00  0.00    +0.000 A 
ATOM     15  C   UNL     1       0.799   1.047  -4.591  0.00  0.00    +0.000 A 
ATOM     16  N   UNL     1       1.151   1.360  -3.320  0.00  0.00    +0.000 NA
ENDBRANCH  10  11
ENDBRANCH   8  10
ENDBRANCH   7   8
ENDBRANCH   1   7
BRANCH   4  17
ATOM     17  C   UNL     1       4.659   7.104   2.515  0.00  0.00    +0.000 C 
BRANCH  17  18
ATOM     18  N   UNL     1       4.191   7.486   3.830  0.00  0.00    +0.000 N 
ATOM     19  C   UNL     1       4.126   8.795   4.227  0.00  0.00    +0.000 C 
ATOM     20  O   UNL     1       4.393   9.721   3.465  0.00  0.00    +0.000 OA
ATOM     21  H   UNL     1       4.195   6.746   4.527  0.00  0.00    +0.000 HD
BRANCH  19  22
ATOM     22  C   UNL     1       3.645   9.050   5.592  0.00  0.00    +0.000 A 
ATOM     23  C   UNL     1       3.079  10.279   5.900  0.00  0.00    +0.000 A 
ATOM     24  S   UNL     1       2.527  10.396   7.509  0.00  0.00    +0.000 S 
ATOM     25  C   UNL     1       3.072   8.823   7.867  0.00  0.00    +0.000 A 
ATOM     26  N   UNL     1       2.928   8.301   9.114  0.00  0.00    +0.000 NA
ATOM     27  C   UNL     1       3.417   7.114   9.254  0.00  0.00    +0.000 A 
ATOM     28  N   UNL     1       4.029   6.400   8.257  0.00  0.00    +0.000 N 
ATOM     29  C   UNL     1       4.168   6.874   6.974  0.00  0.00    +0.000 A 
ATOM     30  O   UNL     1       4.678   6.192   6.093  0.00  0.00    +0.000 OA
ATOM     31  C   UNL     1       3.649   8.212   6.768  0.00  0.00    +0.000 A 
ATOM     32  H   UNL     1       4.384   5.470   8.428  0.00  0.00    +0.000 HD
ENDBRANCH  19  22
ENDBRANCH  17  18
ENDBRANCH   4  17
TORSDOF 7
