REMARK  Name = 
REMARK  13 active torsions:
REMARK  status: ('A' for Active; 'I' for Inactive)
REMARK    1  A    between atoms: C_1  and  O_2
REMARK    2  A    between atoms: O_2  and  C_3
REMARK    3  A    between atoms: C_3  and  C_4
REMARK    4  A    between atoms: C_4  and  C_5
REMARK    5  A    between atoms: C_5  and  N_6
REMARK    6  A    between atoms: C_5  and  C_29
REMARK    7  A    between atoms: N_6  and  C_7
REMARK    8  A    between atoms: C_7  and  C_8
REMARK    9  A    between atoms: C_11  and  C_12
REMARK   10  A    between atoms: C_12  and  N_13
REMARK   11  A    between atoms: C_14  and  C_16
REMARK   12  A    between atoms: C_23  and  O_24
REMARK   13  A    between atoms: O_24  and  C_25
REMARK                            x       y       z     vdW  Elec       q    Type
REMARK                         _______ _______ _______ _____ _____    ______ ____
ROOT
ATOM      1  C   UNL     1       2.613   3.962   3.273  0.00  0.00    +0.000 A 
ATOM      2  C   UNL     1       2.273   2.991   4.224  0.00  0.00    +0.000 A 
ATOM      3  C   UNL     1       1.887   3.363   5.514  0.00  0.00    +0.000 A 
ATOM      4  C   UNL     1       1.838   4.715   5.880  0.00  0.00    +0.000 A 
ATOM      5  C   UNL     1       2.212   5.685   4.941  0.00  0.00    +0.000 A 
ATOM      6  C   UNL     1       2.590   5.312   3.650  0.00  0.00    +0.000 A 
ENDROOT
BRANCH   1   7
ATOM      7  C   UNL     1       3.024   3.570   1.871  0.00  0.00    +0.000 C 
BRANCH   7   8
ATOM      8  N   UNL     1       1.944   2.887   1.164  0.00  0.00    +0.000 NA
ATOM      9  H   UNL     1       1.638   2.072   1.690  0.00  0.00    +0.000 HD
BRANCH   8  10
ATOM     10  C   UNL     1       2.265   2.480  -0.214  0.00  0.00    +0.000 C 
BRANCH  10  11
ATOM     11  C   UNL     1       2.445   3.716  -1.104  0.00  0.00    +0.000 A 
ATOM     12  C   UNL     1       1.309   4.383  -1.596  0.00  0.00    +0.000 A 
ATOM     13  C   UNL     1       1.434   5.563  -2.333  0.00  0.00    +0.000 A 
ATOM     14  C   UNL     1       2.694   6.102  -2.584  0.00  0.00    +0.000 A 
ATOM     15  C   UNL     1       3.829   5.455  -2.109  0.00  0.00    +0.000 A 
ATOM     16  C   UNL     1       3.706   4.270  -1.380  0.00  0.00    +0.000 A 
ENDBRANCH  10  11
BRANCH  10  17
ATOM     17  C   UNL     1       3.418   1.449  -0.342  0.00  0.00    +0.000 C 
BRANCH  17  18
ATOM     18  C   UNL     1       3.276   0.181   0.497  0.00  0.00    +0.000 C 
BRANCH  18  20
ATOM     19  C   UNL     1       2.012  -1.756   0.893  0.00  0.00    +0.000 C 
ATOM     20  O   UNL     1       2.122  -0.563   0.121  0.00  0.00    +0.000 OA
ENDBRANCH  18  20
ENDBRANCH  17  18
ENDBRANCH  10  17
ENDBRANCH   8  10
ENDBRANCH   7   8
ENDBRANCH   1   7
BRANCH   4  21
ATOM     21  C   UNL     1       1.435   5.122   7.271  0.00  0.00    +0.000 C 
BRANCH  21  22
ATOM     22  N   UNL     1       2.580   5.167   8.145  0.00  0.00    +0.000 N 
ATOM     23  C   UNL     1       2.448   5.453   9.477  0.00  0.00    +0.000 C 
ATOM     24  O   UNL     1       1.348   5.614  10.000  0.00  0.00    +0.000 OA
ATOM     25  H   UNL     1       3.496   5.189   7.715  0.00  0.00    +0.000 HD
BRANCH  23  26
ATOM     26  C   UNL     1       3.685   5.488  10.266  0.00  0.00    +0.000 A 
ATOM     27  C   UNL     1       3.614   5.276  11.637  0.00  0.00    +0.000 A 
ATOM     28  S   UNL     1       5.131   5.285  12.404  0.00  0.00    +0.000 S 
ATOM     29  C   UNL     1       5.925   5.626  10.942  0.00  0.00    +0.000 A 
ATOM     30  N   UNL     1       7.260   5.770  10.930  0.00  0.00    +0.000 NA
ATOM     31  C   UNL     1       7.738   6.053   9.719  0.00  0.00    +0.000 A 
ATOM     32  N   UNL     1       7.039   6.201   8.588  0.00  0.00    +0.000 NA
ATOM     33  C   UNL     1       5.701   6.049   8.648  0.00  0.00    +0.000 A 
ATOM     34  C   UNL     1       5.064   5.729   9.857  0.00  0.00    +0.000 A 
BRANCH  33  35
ATOM     35  O   UNL     1       4.958   6.208   7.493  0.00  0.00    +0.000 OA
ATOM     36  C   UNL     1       5.742   6.507   6.341  0.00  0.00    +0.000 C 
ENDBRANCH  33  35
ENDBRANCH  23  26
ENDBRANCH  21  22
ENDBRANCH   4  21
TORSDOF 11
