REMARK  Name = 
REMARK  9 active torsions:
REMARK  status: ('A' for Active; 'I' for Inactive)
REMARK    1  A    between atoms: C_1  and  C_2
REMARK    2  A    between atoms: C_4  and  O_5
REMARK    3  A    between atoms: O_5  and  C_6
REMARK    4  A    between atoms: C_6  and  C_7
REMARK    5  A    between atoms: C_7  and  C_8
REMARK    6  A    between atoms: C_7  and  C_10
REMARK    7  A    between atoms: C_14  and  C_15
REMARK    8  A    between atoms: C_21  and  C_22
REMARK    9  A    between atoms: C_22  and  N_23
REMARK                            x       y       z     vdW  Elec       q    Type
REMARK                         _______ _______ _______ _____ _____    ______ ____
ROOT
ATOM      1  C   UNL     1      -2.119   4.823   0.004  0.00  0.00    +0.000 C 
ATOM      2  C   UNL     1      -3.093   4.790   1.183  0.00  0.00    +0.000 C 
ATOM      3  F   UNL     1      -1.339   5.945   0.188  0.00  0.00    +0.000 F 
ENDROOT
BRANCH   1   4
ATOM      4  C   UNL     1      -2.845   4.882  -1.338  0.00  0.00    +0.000 A 
ATOM      5  C   UNL     1      -2.275   5.587  -2.386  0.00  0.00    +0.000 A 
ATOM      6  C   UNL     1      -2.967   5.602  -3.576  0.00  0.00    +0.000 A 
ATOM      7  N   UNL     1      -4.132   4.965  -3.763  0.00  0.00    +0.000 NA
ATOM      8  C   UNL     1      -4.605   4.291  -2.698  0.00  0.00    +0.000 A 
ATOM      9  N   UNL     1      -4.017   4.219  -1.480  0.00  0.00    +0.000 NA
BRANCH   8  10
ATOM     10  C   UNL     1      -5.902   3.532  -2.870  0.00  0.00    +0.000 C 
ATOM     11  N   UNL     1      -6.351   2.843  -1.769  0.00  0.00    +0.000 N 
ATOM     12  O   UNL     1      -6.542   3.501  -3.917  0.00  0.00    +0.000 OA
ATOM     13  H   UNL     1      -5.802   2.823  -0.915  0.00  0.00    +0.000 HD
ATOM     14  H   UNL     1      -7.186   2.282  -1.859  0.00  0.00    +0.000 HD
ENDBRANCH   8  10
ENDBRANCH   1   4
BRANCH   1  15
ATOM     15  C   UNL     1      -1.159   3.625   0.046  0.00  0.00    +0.000 C 
BRANCH  15  16
ATOM     16  O   UNL     1      -1.853   2.376   0.008  0.00  0.00    +0.000 OA
BRANCH  16  20
ATOM     17  C   UNL     1       2.540   0.134   0.297  0.00  0.00    +0.000 C 
ATOM     18  C   UNL     1       1.040   0.029   0.202  0.00  0.00    +0.000 A 
ATOM     19  C   UNL     1       0.316   1.236   0.154  0.00  0.00    +0.000 A 
ATOM     20  C   UNL     1      -1.075   1.251   0.048  0.00  0.00    +0.000 A 
ATOM     21  C   UNL     1      -1.758   0.044  -0.023  0.00  0.00    +0.000 A 
ATOM     22  C   UNL     1      -1.056  -1.165   0.019  0.00  0.00    +0.000 A 
ATOM     23  C   UNL     1       0.348  -1.196   0.135  0.00  0.00    +0.000 A 
BRANCH  23  24
ATOM     24  C   UNL     1       1.028  -2.548   0.123  0.00  0.00    +0.000 C 
BRANCH  24  25
ATOM     25  N   UNL     1       0.588  -3.406   1.220  0.00  0.00    +0.000 NA
ATOM     26  H   UNL     1       0.913  -3.010   2.102  0.00  0.00    +0.000 HD
ATOM     27  H   UNL     1       1.032  -4.317   1.132  0.00  0.00    +0.000 HD
ENDBRANCH  24  25
ENDBRANCH  23  24
ENDBRANCH  16  20
ENDBRANCH  15  16
ENDBRANCH   1  15
TORSDOF 7
