REMARK  Name = 
REMARK  10 active torsions:
REMARK  status: ('A' for Active; 'I' for Inactive)
REMARK    1  A    between atoms: C_2  and  C_3
REMARK    2  A    between atoms: N_7  and  C_8
REMARK    3  A    between atoms: C_8  and  C_9
REMARK    4  A    between atoms: C_9  and  C_10
REMARK    5  A    between atoms: C_9  and  C_12
REMARK    6  A    between atoms: C_10  and  O_11
REMARK    7  A    between atoms: C_14  and  S_15
REMARK    8  A    between atoms: S_15  and  C_16
REMARK    9  A    between atoms: C_16  and  C_17
REMARK   10  A    between atoms: C_20  and  O_21
REMARK                            x       y       z     vdW  Elec       q    Type
REMARK                         _______ _______ _______ _____ _____    ______ ____
ROOT
ATOM      1  C   UNL     1       5.834   1.028   0.043  0.00  0.00    +0.000 C 
ENDROOT
BRANCH   1   2
ATOM      2  C   UNL     1       6.514   2.386   0.076  0.00  0.00    +0.000 A 
ATOM      3  C   UNL     1       5.803   3.588   0.129  0.00  0.00    +0.000 A 
ATOM      4  C   UNL     1       6.490   4.801   0.083  0.00  0.00    +0.000 A 
ATOM      5  C   UNL     1       7.878   4.775  -0.026  0.00  0.00    +0.000 A 
ATOM      6  C   UNL     1       8.514   3.547  -0.073  0.00  0.00    +0.000 A 
ATOM      7  N   UNL     1       7.867   2.363  -0.028  0.00  0.00    +0.000 NA
BRANCH   4   8
ATOM      8  S   UNL     1       5.649   6.368  -0.073  0.00  0.00    +0.000 S 
BRANCH   8   9
ATOM      9  C   UNL     1       4.759   6.542   1.542  0.00  0.00    +0.000 C 
ATOM     10  C   UNL     1       3.512   5.631   1.647  0.00  0.00    +0.000 C 
ATOM     11  C   UNL     1       2.656   6.864   2.004  0.00  0.00    +0.000 C 
ATOM     12  C   UNL     1       3.785   7.759   1.452  0.00  0.00    +0.000 C 
BRANCH   9  13
ATOM     13  C   UNL     1       5.695   6.589   2.738  0.00  0.00    +0.000 C 
ATOM     14  F   UNL     1       4.965   6.862   3.857  0.00  0.00    +0.000 F 
ENDBRANCH   9  13
BRANCH  11  15
ATOM     15  O   UNL     1       1.393   6.949   1.319  0.00  0.00    +0.000 OA
ATOM     16  H   UNL     1       1.061   7.845   1.502  0.00  0.00    +0.000 HD
ENDBRANCH  11  15
ENDBRANCH   8   9
ENDBRANCH   4   8
ENDBRANCH   1   2
BRANCH   1  17
ATOM     17  C   UNL     1       4.497   0.938   0.801  0.00  0.00    +0.000 C 
BRANCH  17  22
ATOM     18  C   UNL     1       1.125   1.082   4.317  0.00  0.00    +0.000 A 
ATOM     19  C   UNL     1       2.354   0.859   4.883  0.00  0.00    +0.000 A 
ATOM     20  N   UNL     1       3.521   0.939   4.200  0.00  0.00    +0.000 NA
ATOM     21  C   UNL     1       3.443   1.273   2.907  0.00  0.00    +0.000 A 
ATOM     22  N   UNL     1       4.639   1.320   2.204  0.00  0.00    +0.000 N 
ATOM     23  N   UNL     1       2.288   1.531   2.275  0.00  0.00    +0.000 NA
ATOM     24  C   UNL     1       1.149   1.424   2.989  0.00  0.00    +0.000 A 
ATOM     25  H   UNL     1       5.313   0.785   2.743  0.00  0.00    +0.000 HD
BRANCH  18  27
ATOM     26  N   UNL     1      -1.087   0.829   5.624  0.00  0.00    +0.000 NA
ATOM     27  C   UNL     1      -0.090   0.949   5.040  0.00  0.00    +0.000 C 
ENDBRANCH  18  27
ENDBRANCH  17  22
ENDBRANCH   1  17
BRANCH   1  28
ATOM     28  C   UNL     1       5.623   0.607  -1.422  0.00  0.00    +0.000 C 
BRANCH  28  29
ATOM     29  O   UNL     1       5.071  -0.706  -1.513  0.00  0.00    +0.000 OA
ATOM     30  H   UNL     1       5.777  -1.337  -1.290  0.00  0.00    +0.000 HD
ENDBRANCH  28  29
ENDBRANCH   1  28
TORSDOF 10
