REMARK  Name = 
REMARK  4 active torsions:
REMARK  status: ('A' for Active; 'I' for Inactive)
REMARK    1  A    between atoms: C_2  and  C_4
REMARK    2  A    between atoms: N_8  and  C_9
REMARK    3  A    between atoms: C_9  and  C_10
REMARK    4  A    between atoms: C_13  and  C_14
REMARK                            x       y       z     vdW  Elec       q    Type
REMARK                         _______ _______ _______ _____ _____    ______ ____
ROOT
ATOM      1  C   UNL     1       3.014   1.092  -0.707  0.00  0.00    +0.000 A 
ATOM      2  C   UNL     1       3.091   2.301  -0.062  0.00  0.00    +0.000 A 
ATOM      3  N   UNL     1       3.854   3.330  -0.494  0.00  0.00    +0.000 NA
ATOM      4  C   UNL     1       4.572   3.137  -1.611  0.00  0.00    +0.000 A 
ATOM      5  N   UNL     1       5.265   4.241  -2.061  0.00  0.00    +0.000 N 
ATOM      6  N   UNL     1       4.602   1.976  -2.283  0.00  0.00    +0.000 NA
ATOM      7  C   UNL     1       3.823   0.972  -1.813  0.00  0.00    +0.000 A 
ATOM      8  H   UNL     1       5.354   4.884  -1.284  0.00  0.00    +0.000 HD
ENDROOT
BRANCH   1  10
ATOM      9  N   UNL     1       1.031   0.283   0.439  0.00  0.00    +0.000 N 
ATOM     10  C   UNL     1       2.164  -0.022  -0.265  0.00  0.00    +0.000 C 
ATOM     11  O   UNL     1       2.440  -1.179  -0.550  0.00  0.00    +0.000 OA
ATOM     12  H   UNL     1       0.408  -0.492   0.638  0.00  0.00    +0.000 HD
ATOM     13  H   UNL     1       0.628   1.209   0.472  0.00  0.00    +0.000 HD
ENDBRANCH   1  10
BRANCH   5  14
ATOM     14  C   UNL     1       6.484   3.983  -2.796  0.00  0.00    +0.000 C 
BRANCH  14  15
ATOM     15  C   UNL     1       7.118   5.308  -3.174  0.00  0.00    +0.000 A 
ATOM     16  C   UNL     1       8.418   5.632  -2.763  0.00  0.00    +0.000 A 
ATOM     17  C   UNL     1       8.995   6.855  -3.124  0.00  0.00    +0.000 A 
ATOM     18  C   UNL     1       8.284   7.780  -3.903  0.00  0.00    +0.000 A 
ATOM     19  C   UNL     1       6.983   7.456  -4.313  0.00  0.00    +0.000 A 
ATOM     20  C   UNL     1       6.409   6.234  -3.955  0.00  0.00    +0.000 A 
BRANCH  18  21
ATOM     21  C   UNL     1       8.892   9.102  -4.303  0.00  0.00    +0.000 C 
ATOM     22  F   UNL     1      10.158   9.286  -3.833  0.00  0.00    +0.000 F 
ATOM     23  F   UNL     1       8.974   9.251  -5.655  0.00  0.00    +0.000 F 
ATOM     24  F   UNL     1       8.171  10.167  -3.855  0.00  0.00    +0.000 F 
ENDBRANCH  18  21
ENDBRANCH  14  15
ENDBRANCH   5  14
TORSDOF 4
