REMARK  Name = 
REMARK  3 active torsions:
REMARK  status: ('A' for Active; 'I' for Inactive)
REMARK    1  A    between atoms: C_2  and  C_3
REMARK    2  A    between atoms: N_7  and  C_8
REMARK    3  A    between atoms: C_8  and  C_9
REMARK                            x       y       z     vdW  Elec       q    Type
REMARK                         _______ _______ _______ _____ _____    ______ ____
ROOT
ATOM      1  C   UNL     1      -0.325  -1.180  -2.594  0.00  0.00    +0.000 A 
ATOM      2  C   UNL     1      -1.513  -0.712  -3.156  0.00  0.00    +0.000 A 
ATOM      3  C   UNL     1      -2.517  -0.190  -2.324  0.00  0.00    +0.000 A 
ATOM      4  C   UNL     1      -2.312  -0.142  -0.953  0.00  0.00    +0.000 A 
ATOM      5  N   UNL     1      -3.224   0.343  -0.025  0.00  0.00    +0.000 N 
ATOM      6  N   UNL     1      -1.161  -0.597  -0.402  0.00  0.00    +0.000 NA
ATOM      7  C   UNL     1      -0.205  -1.097  -1.221  0.00  0.00    +0.000 A 
ATOM      8  H   UNL     1      -2.831   0.267   0.904  0.00  0.00    +0.000 HD
ENDROOT
BRANCH   5   9
ATOM      9  C   UNL     1      -4.431   1.143  -0.254  0.00  0.00    +0.000 C 
ATOM     10  C   UNL     1      -4.454   2.303  -1.234  0.00  0.00    +0.000 C 
ATOM     11  C   UNL     1      -4.381   2.603   0.224  0.00  0.00    +0.000 C 
BRANCH   9  12
ATOM     12  C   UNL     1      -5.756   0.473   0.157  0.00  0.00    +0.000 A 
ATOM     13  C   UNL     1      -6.003   0.236   1.517  0.00  0.00    +0.000 A 
ATOM     14  C   UNL     1      -7.302   0.008   1.957  0.00  0.00    +0.000 A 
ATOM     15  C   UNL     1      -8.328  -0.033   1.026  0.00  0.00    +0.000 A 
ATOM     16  C   UNL     1      -8.000   0.102  -0.312  0.00  0.00    +0.000 A 
ATOM     17  N   UNL     1      -6.750   0.349  -0.762  0.00  0.00    +0.000 NA
ENDBRANCH   9  12
ENDBRANCH   5   9
BRANCH   1  19
ATOM     18  N   UNL     1       1.594  -2.187  -4.012  0.00  0.00    +0.000 NA
ATOM     19  C   UNL     1       0.731  -1.736  -3.385  0.00  0.00    +0.000 C 
ENDBRANCH   1  19
TORSDOF 3
