REMARK  Name = 
REMARK  8 active torsions:
REMARK  status: ('A' for Active; 'I' for Inactive)
REMARK    1  A    between atoms: C_1  and  C_2
REMARK    2  A    between atoms: C_2  and  C_3
REMARK    3  A    between atoms: C_3  and  N_4
REMARK    4  A    between atoms: C_3  and  C_17
REMARK    5  A    between atoms: C_5  and  C_7
REMARK    6  A    between atoms: C_20  and  C_21
REMARK    7  A    between atoms: C_21  and  O_22
REMARK    8  A    between atoms: O_22  and  C_23
REMARK                            x       y       z     vdW  Elec       q    Type
REMARK                         _______ _______ _______ _____ _____    ______ ____
ROOT
ATOM      1  C   UNL     1       3.006   0.697   1.105  0.00  0.00    +0.000 C 
ENDROOT
BRANCH   1   2
ATOM      2  C   UNL     1       4.519   0.718   1.262  0.00  0.00    +0.000 A 
ATOM      3  C   UNL     1       5.267   1.726   0.635  0.00  0.00    +0.000 A 
ATOM      4  C   UNL     1       6.662   1.745   0.727  0.00  0.00    +0.000 A 
ATOM      5  C   UNL     1       7.338   0.744   1.434  0.00  0.00    +0.000 A 
ATOM      6  C   UNL     1       6.597  -0.249   2.081  0.00  0.00    +0.000 A 
ATOM      7  C   UNL     1       5.206  -0.275   1.976  0.00  0.00    +0.000 A 
BRANCH   5   8
ATOM      8  C   UNL     1       8.847   0.685   1.447  0.00  0.00    +0.000 C 
BRANCH   8   9
ATOM      9  O   UNL     1       9.375   1.444   2.537  0.00  0.00    +0.000 OA
BRANCH   9  10
ATOM     10  C   UNL     1      10.750   1.315   2.620  0.00  0.00    +0.000 A 
ATOM     11  C   UNL     1      11.384   2.024   3.614  0.00  0.00    +0.000 A 
ATOM     12  C   UNL     1      12.748   1.861   3.673  0.00  0.00    +0.000 A 
ATOM     13  N   UNL     1      13.444   1.071   2.837  0.00  0.00    +0.000 NA
ATOM     14  C   UNL     1      12.718   0.429   1.908  0.00  0.00    +0.000 A 
ATOM     15  N   UNL     1      11.394   0.511   1.750  0.00  0.00    +0.000 NA
ENDBRANCH   9  10
ENDBRANCH   8   9
ENDBRANCH   5   8
ENDBRANCH   1   2
BRANCH   1  16
ATOM     16  N   UNL     1       2.675  -0.173  -0.012  0.00  0.00    +0.000 N 
ATOM     17  C   UNL     1       1.610   0.039  -0.846  0.00  0.00    +0.000 C 
ATOM     18  O   UNL     1       0.892   1.032  -0.753  0.00  0.00    +0.000 OA
ATOM     19  H   UNL     1       3.165  -1.062  -0.043  0.00  0.00    +0.000 HD
BRANCH  17  20
ATOM     20  C   UNL     1       1.395  -0.964  -1.896  0.00  0.00    +0.000 A 
ATOM     21  C   UNL     1       0.718  -0.617  -3.057  0.00  0.00    +0.000 A 
ATOM     22  S   UNL     1       0.529  -1.911  -4.152  0.00  0.00    +0.000 S 
ATOM     23  C   UNL     1       1.305  -2.992  -3.092  0.00  0.00    +0.000 A 
ATOM     24  N   UNL     1       1.424  -4.315  -3.403  0.00  0.00    +0.000 NA
ATOM     25  C   UNL     1       2.000  -5.024  -2.491  0.00  0.00    +0.000 A 
ATOM     26  N   UNL     1       2.490  -4.531  -1.311  0.00  0.00    +0.000 N 
ATOM     27  C   UNL     1       2.451  -3.198  -0.983  0.00  0.00    +0.000 A 
ATOM     28  O   UNL     1       2.996  -2.776   0.031  0.00  0.00    +0.000 OA
ATOM     29  C   UNL     1       1.753  -2.362  -1.944  0.00  0.00    +0.000 A 
ATOM     30  H   UNL     1       2.967  -5.136  -0.659  0.00  0.00    +0.000 HD
ENDBRANCH  17  20
ENDBRANCH   1  16
BRANCH   1  32
ATOM     31  C   UNL     1       2.493   1.174   3.562  0.00  0.00    +0.000 C 
ATOM     32  C   UNL     1       2.243   0.255   2.371  0.00  0.00    +0.000 C 
ENDBRANCH   1  32
TORSDOF 7
