REMARK  Name = 
REMARK  11 active torsions:
REMARK  status: ('A' for Active; 'I' for Inactive)
REMARK    1  A    between atoms: C_1  and  C_2
REMARK    2  A    between atoms: C_2  and  C_3
REMARK    3  A    between atoms: C_5  and  O_6
REMARK    4  A    between atoms: O_6  and  C_7
REMARK    5  A    between atoms: C_9  and  O_10
REMARK    6  A    between atoms: O_10  and  C_11
REMARK    7  A    between atoms: C_11  and  C_12
REMARK    8  A    between atoms: C_12  and  C_15
REMARK    9  A    between atoms: C_18  and  C_19
REMARK   10  A    between atoms: C_25  and  S_26
REMARK   11  A    between atoms: S_26  and  C_27
REMARK                            x       y       z     vdW  Elec       q    Type
REMARK                         _______ _______ _______ _____ _____    ______ ____
ROOT
ATOM      1  C   UNL     1      -3.914   0.710   0.858  0.00  0.00    +0.000 A 
ATOM      2  C   UNL     1      -3.583   0.729   2.217  0.00  0.00    +0.000 A 
ATOM      3  C   UNL     1      -4.584   0.718   3.193  0.00  0.00    +0.000 A 
ATOM      4  C   UNL     1      -5.922   0.707   2.799  0.00  0.00    +0.000 A 
ATOM      5  C   UNL     1      -6.241   0.732   1.440  0.00  0.00    +0.000 A 
ATOM      6  C   UNL     1      -5.246   0.716   0.463  0.00  0.00    +0.000 A 
ENDROOT
BRANCH   5   7
ATOM      7  S   UNL     1      -7.936   0.823   0.929  0.00  0.00    +0.000 S 
ATOM      8  C   UNL     1      -8.188   2.571   0.762  0.00  0.00    +0.000 C 
ATOM      9  O   UNL     1      -8.028   0.221  -0.386  0.00  0.00    +0.000 OA
ATOM     10  O   UNL     1      -8.757   0.346   2.026  0.00  0.00    +0.000 OA
ENDBRANCH   5   7
BRANCH   1  11
ATOM     11  O   UNL     1      -2.857   0.732  -0.018  0.00  0.00    +0.000 OA
BRANCH  11  16
ATOM     12  C   UNL     1      -2.999  -1.434  -3.946  0.00  0.00    +0.000 C 
ATOM     13  C   UNL     1      -2.283  -1.438  -2.595  0.00  0.00    +0.000 C 
ATOM     14  C   UNL     1      -1.236  -2.543  -2.515  0.00  0.00    +0.000 C 
ATOM     15  C   UNL     1      -3.242  -1.391  -1.377  0.00  0.00    +0.000 C 
ATOM     16  C   UNL     1      -3.050   0.147  -1.325  0.00  0.00    +0.000 C 
ATOM     17  C   UNL     1      -1.756  -0.048  -2.149  0.00  0.00    +0.000 C 
ENDBRANCH  11  16
ENDBRANCH   1  11
BRANCH   3  18
ATOM     18  O   UNL     1      -4.384   0.725   4.548  0.00  0.00    +0.000 OA
BRANCH  18  19
ATOM     19  C   UNL     1      -3.019   0.818   4.986  0.00  0.00    +0.000 C 
BRANCH  19  20
ATOM     20  C   UNL     1      -2.928   0.863   6.519  0.00  0.00    +0.000 C 
ATOM     21  F   UNL     1      -3.608   1.956   6.979  0.00  0.00    +0.000 F 
ATOM     22  F   UNL     1      -3.596  -0.219   7.028  0.00  0.00    +0.000 F 
BRANCH  20  23
ATOM     23  C   UNL     1      -1.467   0.883   6.968  0.00  0.00    +0.000 A 
ATOM     24  C   UNL     1      -1.119   0.328   8.200  0.00  0.00    +0.000 A 
ATOM     25  C   UNL     1       0.218   0.344   8.605  0.00  0.00    +0.000 A 
ATOM     26  C   UNL     1       1.178   0.926   7.777  0.00  0.00    +0.000 A 
ATOM     27  C   UNL     1       0.756   1.457   6.568  0.00  0.00    +0.000 A 
ATOM     28  N   UNL     1      -0.536   1.458   6.154  0.00  0.00    +0.000 NA
BRANCH  26  29
ATOM     29  C   UNL     1       2.616   0.976   8.110  0.00  0.00    +0.000 C 
ATOM     30  N   UNL     1       2.957   0.941   9.432  0.00  0.00    +0.000 N 
ATOM     31  O   UNL     1       3.468   1.076   7.237  0.00  0.00    +0.000 OA
ATOM     32  H   UNL     1       2.293   1.092  10.178  0.00  0.00    +0.000 HD
ATOM     33  H   UNL     1       3.939   1.069   9.648  0.00  0.00    +0.000 HD
ENDBRANCH  26  29
ENDBRANCH  20  23
ENDBRANCH  19  20
ENDBRANCH  18  19
ENDBRANCH   3  18
TORSDOF 8
