REMARK  Name = 
REMARK  7 active torsions:
REMARK  status: ('A' for Active; 'I' for Inactive)
REMARK    1  A    between atoms: C_1  and  C_2
REMARK    2  A    between atoms: C_2  and  N_3
REMARK    3  A    between atoms: C_2  and  C_17
REMARK    4  A    between atoms: C_4  and  C_6
REMARK    5  A    between atoms: N_12  and  C_13
REMARK    6  A    between atoms: C_20  and  C_21
REMARK    7  A    between atoms: C_21  and  C_22
REMARK                            x       y       z     vdW  Elec       q    Type
REMARK                         _______ _______ _______ _____ _____    ______ ____
ROOT
ATOM      1  C   UNL     1       3.209  -0.085   1.340  0.00  0.00    +0.000 C 
ATOM      2  C   UNL     1       2.524   0.098  -0.019  0.00  0.00    +0.000 C 
ENDROOT
BRANCH   2   3
ATOM      3  C   UNL     1       2.922  -0.964  -1.035  0.00  0.00    +0.000 A 
ATOM      4  C   UNL     1       3.032  -0.601  -2.385  0.00  0.00    +0.000 A 
ATOM      5  C   UNL     1       3.427  -1.532  -3.351  0.00  0.00    +0.000 A 
ATOM      6  C   UNL     1       3.713  -2.855  -2.993  0.00  0.00    +0.000 A 
ATOM      7  C   UNL     1       3.548  -3.239  -1.657  0.00  0.00    +0.000 A 
ATOM      8  C   UNL     1       3.140  -2.309  -0.694  0.00  0.00    +0.000 A 
BRANCH   6   9
ATOM      9  C   UNL     1       4.253  -3.832  -4.014  0.00  0.00    +0.000 C 
BRANCH   9  10
ATOM     10  C   UNL     1       5.763  -3.817  -4.086  0.00  0.00    +0.000 A 
ATOM     11  C   UNL     1       6.528  -4.669  -3.284  0.00  0.00    +0.000 A 
ATOM     12  C   UNL     1       7.910  -4.549  -3.311  0.00  0.00    +0.000 A 
ATOM     13  N   UNL     1       8.573  -3.661  -4.082  0.00  0.00    +0.000 NA
ATOM     14  C   UNL     1       7.818  -2.857  -4.859  0.00  0.00    +0.000 A 
ATOM     15  C   UNL     1       6.433  -2.897  -4.899  0.00  0.00    +0.000 A 
ENDBRANCH   9  10
ENDBRANCH   6   9
ENDBRANCH   2   3
BRANCH   2  16
ATOM     16  N   UNL     1       1.083   0.089   0.104  0.00  0.00    +0.000 N 
ATOM     17  C   UNL     1       0.311   1.168   0.457  0.00  0.00    +0.000 C 
ATOM     18  O   UNL     1       0.764   2.295   0.607  0.00  0.00    +0.000 OA
ATOM     19  H   UNL     1       0.678  -0.834   0.162  0.00  0.00    +0.000 HD
BRANCH  17  20
ATOM     20  C   UNL     1      -1.128   0.882   0.559  0.00  0.00    +0.000 A 
ATOM     21  C   UNL     1      -2.079   1.864   0.318  0.00  0.00    +0.000 A 
ATOM     22  S   UNL     1      -3.684   1.273   0.374  0.00  0.00    +0.000 S 
ATOM     23  C   UNL     1      -3.157  -0.298   0.769  0.00  0.00    +0.000 A 
ATOM     24  N   UNL     1      -4.033  -1.324   0.931  0.00  0.00    +0.000 NA
ATOM     25  C   UNL     1      -3.482  -2.458   1.225  0.00  0.00    +0.000 A 
ATOM     26  N   UNL     1      -2.130  -2.672   1.401  0.00  0.00    +0.000 N 
ATOM     27  C   UNL     1      -1.604  -3.980   1.719  0.00  0.00    +0.000 C 
ATOM     28  C   UNL     1      -1.217  -1.639   1.274  0.00  0.00    +0.000 A 
ATOM     29  O   UNL     1      -0.008  -1.806   1.448  0.00  0.00    +0.000 OA
ATOM     30  C   UNL     1      -1.784  -0.362   0.882  0.00  0.00    +0.000 A 
ENDBRANCH  17  20
ENDBRANCH   2  16
TORSDOF 5
