REMARK  Name = 
REMARK  10 active torsions:
REMARK  status: ('A' for Active; 'I' for Inactive)
REMARK    1  A    between atoms: C_1  and  C_2
REMARK    2  A    between atoms: C_2  and  C_3
REMARK    3  A    between atoms: C_3  and  N_4
REMARK    4  A    between atoms: C_3  and  C_18
REMARK    5  A    between atoms: C_5  and  C_7
REMARK    6  A    between atoms: N_13  and  C_14
REMARK    7  A    between atoms: C_21  and  C_22
REMARK    8  A    between atoms: C_22  and  N_23
REMARK    9  A    between atoms: N_23  and  C_24
REMARK   10  A    between atoms: C_24  and  C_25
REMARK                            x       y       z     vdW  Elec       q    Type
REMARK                         _______ _______ _______ _____ _____    ______ ____
ROOT
ATOM      1  C   UNL     1       3.092  -0.409  -1.411  0.00  0.00    +0.000 C 
ENDROOT
BRANCH   1   2
ATOM      2  C   UNL     1       4.599  -0.370  -1.507  0.00  0.00    +0.000 A 
ATOM      3  C   UNL     1       5.373  -1.503  -1.346  0.00  0.00    +0.000 A 
ATOM      4  N   UNL     1       6.720  -1.523  -1.454  0.00  0.00    +0.000 NA
ATOM      5  C   UNL     1       7.317  -0.342  -1.718  0.00  0.00    +0.000 A 
ATOM      6  N   UNL     1       6.666   0.828  -1.849  0.00  0.00    +0.000 NA
ATOM      7  C   UNL     1       5.326   0.784  -1.720  0.00  0.00    +0.000 A 
BRANCH   5   8
ATOM      8  C   UNL     1       8.810  -0.339  -2.001  0.00  0.00    +0.000 C 
BRANCH   8   9
ATOM      9  N   UNL     1       9.241  -1.184  -3.133  0.00  0.00    +0.000 NA
ATOM     10  H   UNL     1       8.892  -2.130  -2.952  0.00  0.00    +0.000 HD
BRANCH   9  11
ATOM     11  C   UNL     1       8.639  -0.746  -4.400  0.00  0.00    +0.000 C 
BRANCH  11  12
ATOM     12  C   UNL     1       9.080  -1.639  -5.537  0.00  0.00    +0.000 A 
ATOM     13  C   UNL     1      10.232  -1.346  -6.261  0.00  0.00    +0.000 A 
ATOM     14  N   UNL     1      10.704  -2.144  -7.248  0.00  0.00    +0.000 NA
ATOM     15  C   UNL     1       9.987  -3.268  -7.470  0.00  0.00    +0.000 A 
ATOM     16  C   UNL     1       8.844  -3.574  -6.751  0.00  0.00    +0.000 A 
ATOM     17  N   UNL     1       8.364  -2.772  -5.774  0.00  0.00    +0.000 NA
ENDBRANCH  11  12
ENDBRANCH   9  11
ENDBRANCH   8   9
ENDBRANCH   5   8
ENDBRANCH   1   2
BRANCH   1  18
ATOM     18  N   UNL     1       2.699  -0.161  -0.036  0.00  0.00    +0.000 N 
ATOM     19  C   UNL     1       1.525  -0.593   0.523  0.00  0.00    +0.000 C 
ATOM     20  O   UNL     1       0.664  -1.179  -0.128  0.00  0.00    +0.000 OA
ATOM     21  H   UNL     1       3.402   0.250   0.568  0.00  0.00    +0.000 HD
BRANCH  19  22
ATOM     22  C   UNL     1       1.343  -0.290   1.949  0.00  0.00    +0.000 A 
ATOM     23  C   UNL     1       0.069  -0.218   2.496  0.00  0.00    +0.000 A 
ATOM     24  S   UNL     1       0.065   0.101   4.173  0.00  0.00    +0.000 S 
ATOM     25  C   UNL     1       1.765   0.116   4.233  0.00  0.00    +0.000 A 
ATOM     26  N   UNL     1       2.423   0.287   5.407  0.00  0.00    +0.000 NA
ATOM     27  C   UNL     1       3.713   0.255   5.313  0.00  0.00    +0.000 A 
ATOM     28  N   UNL     1       4.424   0.092   4.143  0.00  0.00    +0.000 N 
ATOM     29  C   UNL     1       5.871   0.136   4.132  0.00  0.00    +0.000 C 
ATOM     30  C   UNL     1       3.779  -0.021   2.916  0.00  0.00    +0.000 A 
ATOM     31  O   UNL     1       4.391  -0.032   1.853  0.00  0.00    +0.000 OA
ATOM     32  C   UNL     1       2.329  -0.061   2.986  0.00  0.00    +0.000 A 
ENDBRANCH  19  22
ENDBRANCH   1  18
BRANCH   1  34
ATOM     33  C   UNL     1       2.667   0.331  -3.822  0.00  0.00    +0.000 C 
ATOM     34  C   UNL     1       2.381   0.589  -2.349  0.00  0.00    +0.000 C 
ENDBRANCH   1  34
TORSDOF 8
