REMARK  Name = 
REMARK  10 active torsions:
REMARK  status: ('A' for Active; 'I' for Inactive)
REMARK    1  A    between atoms: C_1  and  O_2
REMARK    2  A    between atoms: O_2  and  C_3
REMARK    3  A    between atoms: C_10  and  C_11
REMARK    4  A    between atoms: N_13  and  C_14
REMARK    5  A    between atoms: C_14  and  C_15
REMARK    6  A    between atoms: C_18  and  N_19
REMARK    7  A    between atoms: N_19  and  C_20
REMARK    8  A    between atoms: C_20  and  C_21
REMARK    9  A    between atoms: C_21  and  C_22
REMARK   10  A    between atoms: N_25  and  C_26
REMARK                            x       y       z     vdW  Elec       q    Type
REMARK                         _______ _______ _______ _____ _____    ______ ____
ROOT
ATOM      1  C   UNL     1       6.221  -0.637  -5.461  0.00  0.00    +0.000 A 
ATOM      2  C   UNL     1       6.568   0.596  -6.020  0.00  0.00    +0.000 A 
ATOM      3  C   UNL     1       7.388   0.656  -7.147  0.00  0.00    +0.000 A 
ATOM      4  C   UNL     1       7.909  -0.508  -7.724  0.00  0.00    +0.000 A 
ATOM      5  C   UNL     1       7.524  -1.739  -7.185  0.00  0.00    +0.000 A 
ATOM      6  C   UNL     1       6.698  -1.808  -6.061  0.00  0.00    +0.000 A 
ENDROOT
BRANCH   4   7
ATOM      7  N   UNL     1       8.706  -0.486  -8.881  0.00  0.00    +0.000 N 
ATOM      8  H   UNL     1       9.176  -1.378  -9.013  0.00  0.00    +0.000 HD
BRANCH   7   9
ATOM      9  C   UNL     1       9.601   0.664  -9.030  0.00  0.00    +0.000 C 
BRANCH   9  10
ATOM     10  C   UNL     1      10.843   0.240  -9.808  0.00  0.00    +0.000 C 
BRANCH  10  11
ATOM     11  C   UNL     1      11.902   1.353  -9.960  0.00  0.00    +0.000 C 
ATOM     12  C   UNL     1      13.121   0.821 -10.727  0.00  0.00    +0.000 C 
ATOM     13  C   UNL     1      13.902  -0.212  -9.907  0.00  0.00    +0.000 C 
ATOM     14  N   UNL     1      14.303   0.301  -8.590  0.00  0.00    +0.000 NA
ATOM     15  C   UNL     1      14.940  -0.763  -7.810  0.00  0.00    +0.000 C 
ATOM     16  C   UNL     1      13.192   0.882  -7.824  0.00  0.00    +0.000 C 
ATOM     17  C   UNL     1      12.417   1.925  -8.631  0.00  0.00    +0.000 C 
ENDBRANCH  10  11
ENDBRANCH   9  10
ENDBRANCH   7   9
ENDBRANCH   4   7
BRANCH   1  18
ATOM     18  C   UNL     1       5.266  -0.703  -4.303  0.00  0.00    +0.000 C 
BRANCH  18  21
ATOM     19  C   UNL     1       2.867  -0.967  -3.912  0.00  0.00    +0.000 C 
ATOM     20  O   UNL     1       3.037  -1.046  -2.698  0.00  0.00    +0.000 OA
ATOM     21  N   UNL     1       3.918  -0.874  -4.782  0.00  0.00    +0.000 N 
ATOM     22  H   UNL     1       3.734  -0.677  -5.758  0.00  0.00    +0.000 HD
BRANCH  19  30
ATOM     23  C   UNL     1       1.594   0.291  -6.796  0.00  0.00    +0.000 A 
ATOM     24  N   UNL     1       0.866   0.728  -7.852  0.00  0.00    +0.000 NA
ATOM     25  C   UNL     1      -0.440   0.437  -7.926  0.00  0.00    +0.000 A 
ATOM     26  C   UNL     1      -1.116  -0.305  -6.984  0.00  0.00    +0.000 A 
ATOM     27  C   UNL     1      -0.363  -0.752  -5.891  0.00  0.00    +0.000 A 
ATOM     28  S   UNL     1      -0.973  -1.681  -4.583  0.00  0.00    +0.000 S 
ATOM     29  C   UNL     1       0.529  -1.685  -3.801  0.00  0.00    +0.000 A 
ATOM     30  C   UNL     1       1.525  -1.029  -4.505  0.00  0.00    +0.000 A 
ATOM     31  C   UNL     1       1.006  -0.471  -5.755  0.00  0.00    +0.000 A 
BRANCH  23  33
ATOM     32  C   UNL     1       3.399   1.237  -7.955  0.00  0.00    +0.000 C 
ATOM     33  O   UNL     1       2.939   0.608  -6.760  0.00  0.00    +0.000 OA
ENDBRANCH  23  33
ENDBRANCH  19  30
ENDBRANCH  18  21
ENDBRANCH   1  18
TORSDOF 8
