REMARK  Name = 
REMARK  8 active torsions:
REMARK  status: ('A' for Active; 'I' for Inactive)
REMARK    1  A    between atoms: C_2  and  C_3
REMARK    2  A    between atoms: C_3  and  N_4
REMARK    3  A    between atoms: C_3  and  C_26
REMARK    4  A    between atoms: N_4  and  C_5
REMARK    5  A    between atoms: C_5  and  C_6
REMARK    6  A    between atoms: C_9  and  C_10
REMARK    7  A    between atoms: C_10  and  N_11
REMARK    8  A    between atoms: C_12  and  C_14
REMARK                            x       y       z     vdW  Elec       q    Type
REMARK                         _______ _______ _______ _____ _____    ______ ____
ROOT
ATOM      1  C   UNL     1       4.441   1.459   3.430  0.00  0.00    +0.000 A 
ATOM      2  C   UNL     1       4.567   2.721   4.014  0.00  0.00    +0.000 A 
ATOM      3  C   UNL     1       4.987   2.832   5.336  0.00  0.00    +0.000 A 
ATOM      4  C   UNL     1       5.254   1.670   6.053  0.00  0.00    +0.000 A 
ATOM      5  N   UNL     1       5.162   0.433   5.503  0.00  0.00    +0.000 NA
ATOM      6  C   UNL     1       4.763   0.358   4.215  0.00  0.00    +0.000 A 
ENDROOT
BRANCH   1   7
ATOM      7  C   UNL     1       3.982   1.295   2.011  0.00  0.00    +0.000 C 
BRANCH   7   8
ATOM      8  N   UNL     1       2.720   0.559   1.950  0.00  0.00    +0.000 NA
ATOM      9  H   UNL     1       2.856  -0.391   2.294  0.00  0.00    +0.000 HD
BRANCH   8  10
ATOM     10  C   UNL     1       2.206   0.455   0.564  0.00  0.00    +0.000 C 
BRANCH  10  11
ATOM     11  C   UNL     1       0.943  -0.404   0.530  0.00  0.00    +0.000 A 
ATOM     12  C   UNL     1      -0.216  -0.001   1.205  0.00  0.00    +0.000 A 
ATOM     13  C   UNL     1      -1.340  -0.817   1.169  0.00  0.00    +0.000 A 
ATOM     14  C   UNL     1      -1.288  -2.015   0.467  0.00  0.00    +0.000 A 
ATOM     15  C   UNL     1      -0.104  -2.348  -0.171  0.00  0.00    +0.000 A 
ATOM     16  N   UNL     1       1.009  -1.580  -0.149  0.00  0.00    +0.000 NA
ENDBRANCH  10  11
BRANCH  10  18
ATOM     17  N   UNL     1       1.637   2.954  -0.514  0.00  0.00    +0.000 NA
ATOM     18  C   UNL     1       1.895   1.821  -0.025  0.00  0.00    +0.000 C 
ENDBRANCH  10  18
ENDBRANCH   8  10
ENDBRANCH   7   8
ENDBRANCH   1   7
BRANCH   4  19
ATOM     19  C   UNL     1       5.685   1.747   7.495  0.00  0.00    +0.000 C 
BRANCH  19  20
ATOM     20  N   UNL     1       7.122   1.789   7.632  0.00  0.00    +0.000 N 
ATOM     21  C   UNL     1       7.810   2.964   7.762  0.00  0.00    +0.000 C 
ATOM     22  O   UNL     1       7.241   4.053   7.790  0.00  0.00    +0.000 OA
ATOM     23  H   UNL     1       7.614   0.938   7.374  0.00  0.00    +0.000 HD
BRANCH  21  24
ATOM     24  C   UNL     1       9.264   2.858   7.938  0.00  0.00    +0.000 A 
ATOM     25  C   UNL     1       9.953   3.888   8.564  0.00  0.00    +0.000 A 
ATOM     26  S   UNL     1      11.628   3.606   8.705  0.00  0.00    +0.000 S 
ATOM     27  C   UNL     1      11.499   2.109   7.906  0.00  0.00    +0.000 A 
ATOM     28  N   UNL     1      12.599   1.348   7.668  0.00  0.00    +0.000 NA
ATOM     29  C   UNL     1      12.359   0.247   7.033  0.00  0.00    +0.000 A 
ATOM     30  N   UNL     1      11.118  -0.162   6.625  0.00  0.00    +0.000 N 
ATOM     31  C   UNL     1       9.972   0.549   6.891  0.00  0.00    +0.000 A 
ATOM     32  O   UNL     1       8.867   0.107   6.597  0.00  0.00    +0.000 OA
ATOM     33  C   UNL     1      10.190   1.814   7.566  0.00  0.00    +0.000 A 
ATOM     34  H   UNL     1      10.992  -1.050   6.160  0.00  0.00    +0.000 HD
ENDBRANCH  21  24
ENDBRANCH  19  20
ENDBRANCH   4  19
TORSDOF 8
