REMARK  Name = 
REMARK  5 active torsions:
REMARK  status: ('A' for Active; 'I' for Inactive)
REMARK    1  A    between atoms: N_1  and  C_2
REMARK    2  A    between atoms: C_2  and  C_3
REMARK    3  A    between atoms: C_3  and  C_4
REMARK    4  A    between atoms: C_7  and  C_8
REMARK    5  A    between atoms: C_9  and  C_10
REMARK                            x       y       z     vdW  Elec       q    Type
REMARK                         _______ _______ _______ _____ _____    ______ ____
ROOT
ATOM      1  C   UNL     1       4.411  -0.909  -1.099  0.00  0.00    +0.000 A 
ATOM      2  C   UNL     1       5.091  -0.339  -2.175  0.00  0.00    +0.000 A 
ATOM      3  C   UNL     1       6.484  -0.305  -2.171  0.00  0.00    +0.000 A 
ATOM      4  C   UNL     1       7.169  -0.843  -1.088  0.00  0.00    +0.000 A 
ATOM      5  N   UNL     1       6.533  -1.442  -0.054  0.00  0.00    +0.000 NA
ATOM      6  C   UNL     1       5.179  -1.453  -0.076  0.00  0.00    +0.000 A 
ENDROOT
BRANCH   4   7
ATOM      7  C   UNL     1       8.632  -0.883  -1.002  0.00  0.00    +0.000 C 
ATOM      8  C   UNL     1       9.464   0.027  -1.538  0.00  0.00    +0.000 C 
BRANCH   8   9
ATOM      9  C   UNL     1      10.930  -0.014  -1.461  0.00  0.00    +0.000 A 
ATOM     10  C   UNL     1      11.640  -1.187  -1.329  0.00  0.00    +0.000 A 
ATOM     11  C   UNL     1      13.007  -1.058  -1.321  0.00  0.00    +0.000 A 
ATOM     12  N   UNL     1      13.641   0.119  -1.449  0.00  0.00    +0.000 NA
ATOM     13  C   UNL     1      12.868   1.194  -1.612  0.00  0.00    +0.000 A 
ATOM     14  N   UNL     1      13.502   2.408  -1.774  0.00  0.00    +0.000 N 
ATOM     15  N   UNL     1      11.533   1.184  -1.610  0.00  0.00    +0.000 NA
ATOM     16  H   UNL     1      14.427   2.366  -1.373  0.00  0.00    +0.000 HD
ATOM     17  H   UNL     1      12.894   3.157  -1.472  0.00  0.00    +0.000 HD
ENDBRANCH   8   9
ENDBRANCH   4   7
BRANCH   1  18
ATOM     18  C   UNL     1       2.907  -0.951  -1.055  0.00  0.00    +0.000 C 
BRANCH  18  19
ATOM     19  C   UNL     1       2.343  -2.208  -1.723  0.00  0.00    +0.000 C 
BRANCH  19  20
ATOM     20  N   UNL     1       0.882  -2.209  -1.677  0.00  0.00    +0.000 NA
ATOM     21  H   UNL     1       0.530  -3.042  -2.148  0.00  0.00    +0.000 HD
ATOM     22  H   UNL     1       0.518  -1.413  -2.201  0.00  0.00    +0.000 HD
ENDBRANCH  19  20
ENDBRANCH  18  19
ENDBRANCH   1  18
TORSDOF 5
