REMARK  Name = 
REMARK  5 active torsions:
REMARK  status: ('A' for Active; 'I' for Inactive)
REMARK    1  A    between atoms: C_1  and  C_2
REMARK    2  A    between atoms: C_6  and  C_7
REMARK    3  A    between atoms: C_11  and  C_12
REMARK    4  A    between atoms: C_12  and  N_13
REMARK    5  A    between atoms: C_18  and  C_19
REMARK                            x       y       z     vdW  Elec       q    Type
REMARK                         _______ _______ _______ _____ _____    ______ ____
ROOT
ATOM      1  C   UNL     1      -1.765   2.563   0.001  0.00  0.00    +0.000 A 
ATOM      2  C   UNL     1      -1.482   3.502  -1.008  0.00  0.00    +0.000 A 
ATOM      3  C   UNL     1      -2.192   4.701  -1.113  0.00  0.00    +0.000 A 
ATOM      4  C   UNL     1      -3.211   4.992  -0.210  0.00  0.00    +0.000 A 
ATOM      5  C   UNL     1      -3.535   4.082   0.802  0.00  0.00    +0.000 A 
ATOM      6  C   UNL     1      -2.795   2.886   0.907  0.00  0.00    +0.000 A 
ENDROOT
BRANCH   1  12
ATOM      7  C   UNL     1       0.446  -1.115   2.667  0.00  0.00    +0.000 C 
ATOM      8  C   UNL     1       0.073  -0.491   1.360  0.00  0.00    +0.000 A 
ATOM      9  C   UNL     1       0.442  -1.067   0.152  0.00  0.00    +0.000 A 
ATOM     10  N   UNL     1       0.125  -0.553  -1.053  0.00  0.00    +0.000 NA
ATOM     11  C   UNL     1      -0.592   0.599  -1.050  0.00  0.00    +0.000 A 
ATOM     12  C   UNL     1      -1.013   1.291   0.090  0.00  0.00    +0.000 A 
ATOM     13  C   UNL     1      -0.663   0.702   1.315  0.00  0.00    +0.000 A 
ENDBRANCH   1  12
BRANCH   5  14
ATOM     14  C   UNL     1      -4.671   4.369   1.763  0.00  0.00    +0.000 C 
BRANCH  14  15
ATOM     15  N   UNL     1      -4.175   5.094   2.912  0.00  0.00    +0.000 N 
ATOM     16  C   UNL     1      -5.147   5.415   3.849  0.00  0.00    +0.000 A 
ATOM     17  N   UNL     1      -6.195   4.601   4.046  0.00  0.00    +0.000 NA
ATOM     18  C   UNL     1      -7.076   4.962   4.992  0.00  0.00    +0.000 A 
ATOM     19  C   UNL     1      -6.961   6.104   5.746  0.00  0.00    +0.000 A 
ATOM     20  C   UNL     1      -5.862   6.888   5.472  0.00  0.00    +0.000 A 
ATOM     21  C   UNL     1      -5.615   8.160   6.226  0.00  0.00    +0.000 C 
ATOM     22  N   UNL     1      -4.958   6.558   4.522  0.00  0.00    +0.000 NA
ATOM     23  H   UNL     1      -3.678   5.952   2.706  0.00  0.00    +0.000 HD
ENDBRANCH  14  15
ENDBRANCH   5  14
TORSDOF 3
