REMARK  Name = 
REMARK  6 active torsions:
REMARK  status: ('A' for Active; 'I' for Inactive)
REMARK    1  A    between atoms: N_1  and  C_2
REMARK    2  A    between atoms: C_2  and  C_3
REMARK    3  A    between atoms: C_3  and  C_4
REMARK    4  A    between atoms: C_7  and  C_8
REMARK    5  A    between atoms: C_8  and  N_9
REMARK    6  A    between atoms: C_14  and  C_15
REMARK                            x       y       z     vdW  Elec       q    Type
REMARK                         _______ _______ _______ _____ _____    ______ ____
ROOT
ATOM      1  N   UNL     1       9.256   0.224   1.276  0.00  0.00    +0.000 N 
ATOM      2  C   UNL     1       9.478   0.899   2.453  0.00  0.00    +0.000 A 
ATOM      3  C   UNL     1      10.252   2.002   2.173  0.00  0.00    +0.000 A 
ATOM      4  C   UNL     1      10.524   1.997   0.780  0.00  0.00    +0.000 A 
ATOM      5  C   UNL     1      11.277   2.840  -0.064  0.00  0.00    +0.000 A 
ATOM      6  C   UNL     1      11.375   2.557  -1.438  0.00  0.00    +0.000 A 
ATOM      7  C   UNL     1      10.706   1.441  -1.958  0.00  0.00    +0.000 A 
ATOM      8  C   UNL     1       9.948   0.594  -1.140  0.00  0.00    +0.000 A 
ATOM      9  C   UNL     1       9.880   0.885   0.231  0.00  0.00    +0.000 A 
ENDROOT
BRANCH   6  10
ATOM     10  C   UNL     1      12.196   3.435  -2.349  0.00  0.00    +0.000 C 
ATOM     11  F   UNL     1      12.781   4.490  -1.713  0.00  0.00    +0.000 F 
ATOM     12  F   UNL     1      13.214   2.757  -2.950  0.00  0.00    +0.000 F 
ATOM     13  F   UNL     1      11.461   3.974  -3.361  0.00  0.00    +0.000 F 
ENDBRANCH   6  10
BRANCH   1  14
ATOM     14  C   UNL     1       8.627  -1.089   1.196  0.00  0.00    +0.000 C 
BRANCH  14  18
ATOM     15  C   UNL     1       4.382  -1.121   0.712  0.00  0.00    +0.000 A 
ATOM     16  C   UNL     1       4.921  -1.089   1.999  0.00  0.00    +0.000 A 
ATOM     17  C   UNL     1       6.304  -1.033   2.172  0.00  0.00    +0.000 A 
ATOM     18  C   UNL     1       7.129  -1.021   1.048  0.00  0.00    +0.000 A 
ATOM     19  N   UNL     1       6.625  -1.031  -0.212  0.00  0.00    +0.000 NA
ATOM     20  C   UNL     1       5.278  -1.062  -0.349  0.00  0.00    +0.000 A 
BRANCH  15  21
ATOM     21  C   UNL     1       2.894  -1.202   0.486  0.00  0.00    +0.000 C 
BRANCH  21  22
ATOM     22  C   UNL     1       2.477  -2.448  -0.310  0.00  0.00    +0.000 C 
BRANCH  22  23
ATOM     23  N   UNL     1       1.027  -2.501  -0.492  0.00  0.00    +0.000 NA
ATOM     24  H   UNL     1       0.788  -3.322  -1.048  0.00  0.00    +0.000 HD
ATOM     25  H   UNL     1       0.716  -1.695  -1.034  0.00  0.00    +0.000 HD
ENDBRANCH  22  23
ENDBRANCH  21  22
ENDBRANCH  15  21
ENDBRANCH  14  18
ENDBRANCH   1  14
TORSDOF 6
