REMARK  Name = 
REMARK  5 active torsions:
REMARK  status: ('A' for Active; 'I' for Inactive)
REMARK    1  A    between atoms: C_2  and  C_3
REMARK    2  A    between atoms: C_6  and  C_7
REMARK    3  A    between atoms: C_7  and  C_8
REMARK    4  A    between atoms: C_8  and  C_9
REMARK    5  A    between atoms: C_13  and  C_14
REMARK                            x       y       z     vdW  Elec       q    Type
REMARK                         _______ _______ _______ _____ _____    ______ ____
ROOT
ATOM      1  C   UNL     1      -3.999  -1.274   0.562  0.00  0.00    +0.000 C 
ENDROOT
BRANCH   1   2
ATOM      2  C   UNL     1      -5.476  -1.603   0.520  0.00  0.00    +0.000 A 
ATOM      3  C   UNL     1      -6.441  -0.638   0.793  0.00  0.00    +0.000 A 
ATOM      4  C   UNL     1      -7.780  -0.996   0.764  0.00  0.00    +0.000 A 
ATOM      5  C   UNL     1      -8.124  -2.310   0.476  0.00  0.00    +0.000 A 
ATOM      6  C   UNL     1      -7.119  -3.239   0.209  0.00  0.00    +0.000 A 
ATOM      7  N   UNL     1      -5.804  -2.895   0.246  0.00  0.00    +0.000 NA
BRANCH   6   8
ATOM      8  C   UNL     1      -7.419  -4.642  -0.139  0.00  0.00    +0.000 A 
ATOM      9  C   UNL     1      -8.565  -4.990  -0.870  0.00  0.00    +0.000 A 
ATOM     10  C   UNL     1      -8.815  -6.324  -1.155  0.00  0.00    +0.000 A 
ATOM     11  N   UNL     1      -8.011  -7.334  -0.773  0.00  0.00    +0.000 NA
ATOM     12  C   UNL     1      -6.901  -6.992  -0.086  0.00  0.00    +0.000 A 
ATOM     13  C   UNL     1      -6.567  -5.687   0.245  0.00  0.00    +0.000 A 
ENDBRANCH   6   8
ENDBRANCH   1   2
BRANCH   1  14
ATOM     14  C   UNL     1      -3.639   0.048  -0.111  0.00  0.00    +0.000 C 
ATOM     15  C   UNL     1      -3.560   1.302   0.758  0.00  0.00    +0.000 C 
ATOM     16  C   UNL     1      -2.299   0.668   0.262  0.00  0.00    +0.000 C 
BRANCH  14  20
ATOM     17  C   UNL     1      -5.262   0.440  -4.071  0.00  0.00    +0.000 A 
ATOM     18  C   UNL     1      -4.301  -0.536  -3.838  0.00  0.00    +0.000 A 
ATOM     19  C   UNL     1      -3.735  -0.646  -2.566  0.00  0.00    +0.000 A 
ATOM     20  C   UNL     1      -4.149   0.211  -1.543  0.00  0.00    +0.000 A 
ATOM     21  N   UNL     1      -5.074   1.180  -1.782  0.00  0.00    +0.000 NA
ATOM     22  C   UNL     1      -5.607   1.274  -3.022  0.00  0.00    +0.000 A 
BRANCH  17  24
ATOM     23  N   UNL     1      -6.407   0.700  -6.377  0.00  0.00    +0.000 NA
ATOM     24  C   UNL     1      -5.892   0.581  -5.342  0.00  0.00    +0.000 C 
ENDBRANCH  17  24
ENDBRANCH  14  20
ENDBRANCH   1  14
TORSDOF 5
