REMARK  Name = 
REMARK  4 active torsions:
REMARK  status: ('A' for Active; 'I' for Inactive)
REMARK    1  A    between atoms: C_2  and  C_4
REMARK    2  A    between atoms: C_7  and  C_8
REMARK    3  A    between atoms: C_8  and  C_9
REMARK    4  A    between atoms: C_9  and  C_10
REMARK                            x       y       z     vdW  Elec       q    Type
REMARK                         _______ _______ _______ _____ _____    ______ ____
ROOT
ATOM      1  C   UNL     1       3.169   0.887   0.666  0.00  0.00    +0.000 A 
ATOM      2  C   UNL     1       2.456   1.824   1.409  0.00  0.00    +0.000 A 
ATOM      3  C   UNL     1       3.148   2.741   2.203  0.00  0.00    +0.000 A 
ATOM      4  C   UNL     1       4.539   2.679   2.275  0.00  0.00    +0.000 A 
ATOM      5  N   UNL     1       5.244   1.766   1.557  0.00  0.00    +0.000 NA
ATOM      6  C   UNL     1       4.551   0.889   0.782  0.00  0.00    +0.000 A 
ENDROOT
BRANCH   1   8
ATOM      7  N   UNL     1       1.277   0.221  -0.709  0.00  0.00    +0.000 N 
ATOM      8  C   UNL     1       2.518  -0.097  -0.227  0.00  0.00    +0.000 C 
ATOM      9  O   UNL     1       3.080  -1.130  -0.559  0.00  0.00    +0.000 OA
ATOM     10  H   UNL     1       0.890  -0.411  -1.399  0.00  0.00    +0.000 HD
ATOM     11  H   UNL     1       0.895   1.154  -0.667  0.00  0.00    +0.000 HD
ENDBRANCH   1   8
BRANCH   4  12
ATOM     12  C   UNL     1       5.358   3.685   3.057  0.00  0.00    +0.000 C 
BRANCH  12  13
ATOM     13  C   UNL     1       4.746   4.140   4.383  0.00  0.00    +0.000 C 
ATOM     14  C   UNL     1       3.831   5.358   4.359  0.00  0.00    +0.000 C 
ATOM     15  C   UNL     1       5.207   5.495   4.923  0.00  0.00    +0.000 C 
BRANCH  13  16
ATOM     16  C   UNL     1       4.538   3.062   5.446  0.00  0.00    +0.000 A 
ATOM     17  C   UNL     1       5.599   2.624   6.252  0.00  0.00    +0.000 A 
ATOM     18  C   UNL     1       5.366   1.678   7.239  0.00  0.00    +0.000 A 
ATOM     19  N   UNL     1       4.160   1.125   7.479  0.00  0.00    +0.000 NA
ATOM     20  C   UNL     1       3.148   1.538   6.693  0.00  0.00    +0.000 A 
ATOM     21  C   UNL     1       3.285   2.486   5.690  0.00  0.00    +0.000 A 
ENDBRANCH  13  16
ENDBRANCH  12  13
ENDBRANCH   4  12
TORSDOF 4
