REMARK  Name = 
REMARK  7 active torsions:
REMARK  status: ('A' for Active; 'I' for Inactive)
REMARK    1  A    between atoms: C_1  and  C_2
REMARK    2  A    between atoms: C_2  and  N_3
REMARK    3  A    between atoms: C_2  and  C_16
REMARK    4  A    between atoms: C_4  and  C_6
REMARK    5  A    between atoms: C_19  and  C_20
REMARK    6  A    between atoms: C_20  and  N_21
REMARK    7  A    between atoms: C_22  and  C_24
REMARK                            x       y       z     vdW  Elec       q    Type
REMARK                         _______ _______ _______ _____ _____    ______ ____
ROOT
ATOM      1  C   UNL     1       2.878  -0.965  -1.263  0.00  0.00    +0.000 C 
ATOM      2  C   UNL     1       2.458  -0.087  -0.080  0.00  0.00    +0.000 C 
ENDROOT
BRANCH   2   3
ATOM      3  C   UNL     1       2.999   1.333  -0.188  0.00  0.00    +0.000 A 
ATOM      4  C   UNL     1       2.111   2.418  -0.208  0.00  0.00    +0.000 A 
ATOM      5  C   UNL     1       2.579   3.736  -0.305  0.00  0.00    +0.000 A 
ATOM      6  C   UNL     1       3.952   4.008  -0.390  0.00  0.00    +0.000 A 
ATOM      7  C   UNL     1       4.844   2.929  -0.330  0.00  0.00    +0.000 A 
ATOM      8  C   UNL     1       4.375   1.610  -0.238  0.00  0.00    +0.000 A 
BRANCH   6   9
ATOM      9  C   UNL     1       4.455   5.429  -0.505  0.00  0.00    +0.000 C 
BRANCH   9  10
ATOM     10  N   UNL     1       4.685   6.004   0.801  0.00  0.00    +0.000 N 
ATOM     11  C   UNL     1       5.202   7.280   0.981  0.00  0.00    +0.000 C 
ATOM     12  O   UNL     1       5.476   8.038   0.065  0.00  0.00    +0.000 OA
ATOM     13  H   UNL     1       4.419   5.450   1.602  0.00  0.00    +0.000 HD
BRANCH  11  14
ATOM     14  C   UNL     1       5.346   7.635   2.462  0.00  0.00    +0.000 C 
ATOM     15  C   UNL     1       5.845   9.030   2.763  0.00  0.00    +0.000 C 
ATOM     16  C   UNL     1       7.346   8.864   2.854  0.00  0.00    +0.000 C 
ATOM     17  O   UNL     1       7.593   7.521   3.281  0.00  0.00    +0.000 OA
ATOM     18  C   UNL     1       6.393   6.753   3.120  0.00  0.00    +0.000 C 
ENDBRANCH  11  14
ENDBRANCH   9  10
ENDBRANCH   6   9
ENDBRANCH   2   3
BRANCH   2  19
ATOM     19  N   UNL     1       2.871  -0.688   1.174  0.00  0.00    +0.000 N 
ATOM     20  C   UNL     1       2.148  -1.667   1.807  0.00  0.00    +0.000 C 
ATOM     21  O   UNL     1       1.087  -2.092   1.360  0.00  0.00    +0.000 OA
ATOM     22  H   UNL     1       3.695  -0.304   1.621  0.00  0.00    +0.000 HD
BRANCH  20  23
ATOM     23  C   UNL     1       2.743  -2.226   3.028  0.00  0.00    +0.000 A 
ATOM     24  C   UNL     1       2.365  -3.490   3.462  0.00  0.00    +0.000 A 
ATOM     25  S   UNL     1       3.174  -3.998   4.875  0.00  0.00    +0.000 S 
ATOM     26  C   UNL     1       4.018  -2.524   4.987  0.00  0.00    +0.000 A 
ATOM     27  N   UNL     1       4.878  -2.286   6.016  0.00  0.00    +0.000 NA
ATOM     28  C   UNL     1       5.415  -1.114   6.000  0.00  0.00    +0.000 A 
ATOM     29  N   UNL     1       5.182  -0.160   5.045  0.00  0.00    +0.000 N 
ATOM     30  C   UNL     1       4.374  -0.379   3.956  0.00  0.00    +0.000 A 
ATOM     31  O   UNL     1       4.279   0.457   3.065  0.00  0.00    +0.000 OA
ATOM     32  C   UNL     1       3.709  -1.669   3.946  0.00  0.00    +0.000 A 
ATOM     33  H   UNL     1       5.657   0.731   5.076  0.00  0.00    +0.000 HD
ENDBRANCH  20  23
ENDBRANCH   2  19
TORSDOF 6
