REMARK  Name = 
REMARK  10 active torsions:
REMARK  status: ('A' for Active; 'I' for Inactive)
REMARK    1  A    between atoms: C_2  and  C_3
REMARK    2  A    between atoms: C_7  and  C_8
REMARK    3  A    between atoms: C_8  and  O_9
REMARK    4  A    between atoms: O_9  and  C_10
REMARK    5  A    between atoms: C_10  and  C_11
REMARK    6  A    between atoms: C_14  and  C_15
REMARK    7  A    between atoms: C_15  and  N_16
REMARK    8  A    between atoms: C_17  and  C_19
REMARK    9  A    between atoms: C_26  and  O_27
REMARK   10  A    between atoms: O_27  and  C_28
REMARK                            x       y       z     vdW  Elec       q    Type
REMARK                         _______ _______ _______ _____ _____    ______ ____
ROOT
ATOM      1  C   UNL     1       5.824   3.353   0.162  0.00  0.00    +0.000 A 
ATOM      2  C   UNL     1       6.682   4.456   0.247  0.00  0.00    +0.000 A 
ATOM      3  C   UNL     1       8.067   4.282   0.349  0.00  0.00    +0.000 A 
ATOM      4  C   UNL     1       8.625   2.998   0.349  0.00  0.00    +0.000 A 
ATOM      5  C   UNL     1       7.763   1.894   0.290  0.00  0.00    +0.000 A 
ATOM      6  C   UNL     1       6.378   2.068   0.197  0.00  0.00    +0.000 A 
ENDROOT
BRANCH   1   7
ATOM      7  C   UNL     1       4.333   3.553   0.042  0.00  0.00    +0.000 C 
BRANCH   7   8
ATOM      8  O   UNL     1       4.063   4.304  -1.139  0.00  0.00    +0.000 OA
BRANCH   8   9
ATOM      9  C   UNL     1       2.667   4.548  -1.303  0.00  0.00    +0.000 C 
BRANCH   9  14
ATOM     10  C   UNL     1       1.026   6.952  -3.765  0.00  0.00    +0.000 A 
ATOM     11  C   UNL     1       1.867   6.847  -4.873  0.00  0.00    +0.000 A 
ATOM     12  C   UNL     1       2.969   5.993  -4.832  0.00  0.00    +0.000 A 
ATOM     13  C   UNL     1       3.235   5.249  -3.680  0.00  0.00    +0.000 A 
ATOM     14  C   UNL     1       2.413   5.361  -2.549  0.00  0.00    +0.000 A 
ATOM     15  C   UNL     1       1.296   6.210  -2.611  0.00  0.00    +0.000 A 
BRANCH  10  17
ATOM     16  C   UNL     1      -1.081   8.528  -3.834  0.00  0.00    +0.000 C 
ATOM     17  C   UNL     1      -0.116   7.812  -3.807  0.00  0.00    +0.000 C 
ENDBRANCH  10  17
ENDBRANCH   9  14
ENDBRANCH   8   9
ENDBRANCH   7   8
ENDBRANCH   1   7
BRANCH   4  18
ATOM     18  C   UNL     1      10.118   2.798   0.433  0.00  0.00    +0.000 C 
BRANCH  18  19
ATOM     19  N   UNL     1      10.561   2.729   1.802  0.00  0.00    +0.000 N 
ATOM     20  C   UNL     1      11.880   2.545   2.130  0.00  0.00    +0.000 C 
ATOM     21  O   UNL     1      12.767   2.501   1.283  0.00  0.00    +0.000 OA
ATOM     22  H   UNL     1       9.853   2.582   2.508  0.00  0.00    +0.000 HD
BRANCH  20  23
ATOM     23  C   UNL     1      12.182   2.470   3.565  0.00  0.00    +0.000 A 
ATOM     24  C   UNL     1      13.434   2.852   4.028  0.00  0.00    +0.000 A 
ATOM     25  S   UNL     1      13.580   2.776   5.724  0.00  0.00    +0.000 S 
ATOM     26  C   UNL     1      11.998   2.176   5.884  0.00  0.00    +0.000 A 
ATOM     27  N   UNL     1      11.510   1.890   7.105  0.00  0.00    +0.000 NA
ATOM     28  C   UNL     1      10.265   1.413   7.059  0.00  0.00    +0.000 A 
ATOM     29  N   UNL     1       9.511   1.202   5.973  0.00  0.00    +0.000 NA
ATOM     30  C   UNL     1      10.048   1.501   4.771  0.00  0.00    +0.000 A 
ATOM     31  C   UNL     1      11.341   2.033   4.669  0.00  0.00    +0.000 A 
BRANCH  30  32
ATOM     32  O   UNL     1       9.306   1.283   3.630  0.00  0.00    +0.000 OA
ATOM     33  C   UNL     1       7.988   0.807   3.868  0.00  0.00    +0.000 C 
ENDBRANCH  30  32
ENDBRANCH  20  23
ENDBRANCH  18  19
ENDBRANCH   4  18
TORSDOF 9
