REMARK  Name = 
REMARK  6 active torsions:
REMARK  status: ('A' for Active; 'I' for Inactive)
REMARK    1  A    between atoms: C_2  and  C_25
REMARK    2  A    between atoms: N_3  and  C_4
REMARK    3  A    between atoms: C_4  and  C_5
REMARK    4  A    between atoms: C_8  and  C_9
REMARK    5  A    between atoms: C_9  and  N_10
REMARK    6  A    between atoms: C_11  and  C_13
REMARK                            x       y       z     vdW  Elec       q    Type
REMARK                         _______ _______ _______ _____ _____    ______ ____
ROOT
ATOM      1  C   UNL     1       3.216   1.316   3.476  0.00  0.00    +0.000 A 
ATOM      2  C   UNL     1       3.322   2.688   3.737  0.00  0.00    +0.000 A 
ATOM      3  C   UNL     1       4.121   3.161   4.788  0.00  0.00    +0.000 A 
ATOM      4  C   UNL     1       4.849   2.272   5.592  0.00  0.00    +0.000 A 
ATOM      5  C   UNL     1       4.741   0.899   5.325  0.00  0.00    +0.000 A 
ATOM      6  C   UNL     1       3.945   0.426   4.273  0.00  0.00    +0.000 A 
ENDROOT
BRANCH   1   7
ATOM      7  C   UNL     1       2.298   0.816   2.394  0.00  0.00    +0.000 C 
BRANCH   7  10
ATOM      8  O   UNL     1       1.000  -0.040   0.109  0.00  0.00    +0.000 OA
ATOM      9  C   UNL     1       2.178   0.295   0.019  0.00  0.00    +0.000 C 
ATOM     10  N   UNL     1       2.923   0.720   1.100  0.00  0.00    +0.000 N 
ATOM     11  H   UNL     1       3.887   1.005   0.950  0.00  0.00    +0.000 HD
BRANCH   9  12
ATOM     12  C   UNL     1       2.870   0.264  -1.297  0.00  0.00    +0.000 A 
ATOM     13  C   UNL     1       2.155  -0.122  -2.424  0.00  0.00    +0.000 A 
ATOM     14  N   UNL     1       2.714  -0.173  -3.659  0.00  0.00    +0.000 NA
ATOM     15  C   UNL     1       4.021   0.169  -3.711  0.00  0.00    +0.000 A 
ATOM     16  C   UNL     1       4.738   0.548  -2.583  0.00  0.00    +0.000 A 
ATOM     17  N   UNL     1       4.186   0.615  -1.346  0.00  0.00    +0.000 NA
ENDBRANCH   9  12
ENDBRANCH   7  10
ENDBRANCH   1   7
BRANCH   4  18
ATOM     18  C   UNL     1       5.742   2.749   6.719  0.00  0.00    +0.000 C 
BRANCH  18  19
ATOM     19  N   UNL     1       5.051   2.821   7.980  0.00  0.00    +0.000 N 
ATOM     20  C   UNL     1       5.682   3.241   9.134  0.00  0.00    +0.000 C 
ATOM     21  O   UNL     1       6.856   3.590   9.158  0.00  0.00    +0.000 OA
ATOM     22  H   UNL     1       4.227   2.239   8.078  0.00  0.00    +0.000 HD
BRANCH  20  23
ATOM     23  C   UNL     1       4.824   3.310  10.329  0.00  0.00    +0.000 A 
ATOM     24  C   UNL     1       5.099   4.225  11.336  0.00  0.00    +0.000 A 
ATOM     25  S   UNL     1       3.970   4.187  12.616  0.00  0.00    +0.000 S 
ATOM     26  C   UNL     1       3.100   2.916  11.891  0.00  0.00    +0.000 A 
ATOM     27  N   UNL     1       2.011   2.372  12.495  0.00  0.00    +0.000 NA
ATOM     28  C   UNL     1       1.474   1.392  11.846  0.00  0.00    +0.000 A 
ATOM     29  N   UNL     1       1.918   0.915  10.643  0.00  0.00    +0.000 N 
ATOM     30  C   UNL     1       2.976   1.474   9.966  0.00  0.00    +0.000 A 
ATOM     31  O   UNL     1       3.287   1.090   8.844  0.00  0.00    +0.000 OA
ATOM     32  C   UNL     1       3.647   2.550  10.673  0.00  0.00    +0.000 A 
ATOM     33  H   UNL     1       1.439   0.163  10.170  0.00  0.00    +0.000 HD
ENDBRANCH  20  23
ENDBRANCH  18  19
ENDBRANCH   4  18
TORSDOF 6
