REMARK  Name = 
REMARK  4 active torsions:
REMARK  status: ('A' for Active; 'I' for Inactive)
REMARK    1  A    between atoms: C_2  and  C_4
REMARK    2  A    between atoms: N_8  and  C_9
REMARK    3  A    between atoms: C_9  and  C_10
REMARK    4  A    between atoms: C_14  and  C_15
REMARK                            x       y       z     vdW  Elec       q    Type
REMARK                         _______ _______ _______ _____ _____    ______ ____
ROOT
ATOM      1  C   UNL     1       0.699  -2.448  -8.151  0.00  0.00    +0.000 A 
ATOM      2  C   UNL     1       1.116  -3.506  -7.353  0.00  0.00    +0.000 A 
ATOM      3  C   UNL     1       2.326  -3.402  -6.669  0.00  0.00    +0.000 A 
ATOM      4  C   UNL     1       3.100  -2.254  -6.795  0.00  0.00    +0.000 A 
ATOM      5  N   UNL     1       4.251  -2.033  -6.094  0.00  0.00    +0.000 N 
ATOM      6  N   UNL     1       2.721  -1.240  -7.600  0.00  0.00    +0.000 NA
ATOM      7  C   UNL     1       1.541  -1.355  -8.265  0.00  0.00    +0.000 A 
ATOM      8  H   UNL     1       4.739  -1.198  -6.388  0.00  0.00    +0.000 HD
ENDROOT
BRANCH   1  10
ATOM      9  N   UNL     1      -1.598  -3.211  -8.329  0.00  0.00    +0.000 N 
ATOM     10  C   UNL     1      -0.593  -2.453  -8.866  0.00  0.00    +0.000 C 
ATOM     11  O   UNL     1      -0.775  -1.777  -9.870  0.00  0.00    +0.000 OA
ATOM     12  H   UNL     1      -2.509  -3.126  -8.763  0.00  0.00    +0.000 HD
ATOM     13  H   UNL     1      -1.564  -3.561  -7.382  0.00  0.00    +0.000 HD
ENDBRANCH   1  10
BRANCH   5  14
ATOM     14  C   UNL     1       4.919  -2.976  -5.228  0.00  0.00    +0.000 C 
BRANCH  14  15
ATOM     15  C   UNL     1       5.810  -3.921  -5.996  0.00  0.00    +0.000 A 
ATOM     16  C   UNL     1       6.892  -3.429  -6.735  0.00  0.00    +0.000 A 
ATOM     17  C   UNL     1       7.737  -4.303  -7.411  0.00  0.00    +0.000 A 
ATOM     18  C   UNL     1       7.529  -5.681  -7.328  0.00  0.00    +0.000 A 
ATOM     19  C   UNL     1       6.484  -6.220  -6.555  0.00  0.00    +0.000 A 
ATOM     20  C   UNL     1       5.609  -5.313  -5.927  0.00  0.00    +0.000 A 
BRANCH  19  21
ATOM     21  C   UNL     1       6.354  -7.678  -6.338  0.00  0.00    +0.000 A 
ATOM     22  C   UNL     1       7.475  -8.507  -6.246  0.00  0.00    +0.000 A 
ATOM     23  C   UNL     1       7.312  -9.861  -5.964  0.00  0.00    +0.000 A 
ATOM     24  C   UNL     1       6.032 -10.362  -5.783  0.00  0.00    +0.000 A 
ATOM     25  C   UNL     1       4.968  -9.483  -5.890  0.00  0.00    +0.000 A 
ATOM     26  N   UNL     1       5.098  -8.162  -6.154  0.00  0.00    +0.000 NA
ENDBRANCH  19  21
ENDBRANCH  14  15
ENDBRANCH   5  14
TORSDOF 4
