REMARK  Name = 
REMARK  9 active torsions:
REMARK  status: ('A' for Active; 'I' for Inactive)
REMARK    1  A    between atoms: C_1  and  C_2
REMARK    2  A    between atoms: C_2  and  N_3
REMARK    3  A    between atoms: C_2  and  C_16
REMARK    4  A    between atoms: C_4  and  C_6
REMARK    5  A    between atoms: C_19  and  C_20
REMARK    6  A    between atoms: C_20  and  O_21
REMARK    7  A    between atoms: O_21  and  C_22
REMARK    8  A    between atoms: C_29  and  C_30
REMARK    9  A    between atoms: C_30  and  O_31
REMARK                            x       y       z     vdW  Elec       q    Type
REMARK                         _______ _______ _______ _____ _____    ______ ____
ROOT
ATOM      1  C   UNL     1       0.000   0.000   0.000  0.00  0.00    +0.000 C 
ATOM      2  C   UNL     1       0.000   0.000   0.000  0.00  0.00    +0.000 C 
ATOM      3  C   UNL     1       0.000   0.000   0.000  0.00  0.00    +0.000 C 
ATOM      4  C   UNL     1       0.000   0.000   0.000  0.00  0.00    +0.000 C 
ATOM      5  C   UNL     1       0.000   0.000   0.000  0.00  0.00    +0.000 C 
ATOM      6  C   UNL     1       0.000   0.000   0.000  0.00  0.00    +0.000 C 
ENDROOT
BRANCH   1   8
ATOM      7  C   UNL     1       0.000   0.000   0.000  0.00  0.00    +0.000 C 
ATOM      8  C   UNL     1       0.000   0.000   0.000  0.00  0.00    +0.000 C 
BRANCH   8   9
ATOM      9  N   UNL     1       0.000   0.000   0.000  0.00  0.00    +0.000 N 
ATOM     10  C   UNL     1       0.000   0.000   0.000  0.00  0.00    +0.000 C 
ATOM     11  O   UNL     1       0.000   0.000   0.000  0.00  0.00    +0.000 OA
ATOM     12  H   UNL     1       0.000   0.000   0.000  0.00  0.00    +0.000 HD
BRANCH  10  13
ATOM     13  C   UNL     1       0.000   0.000   0.000  0.00  0.00    +0.000 A 
ATOM     14  C   UNL     1       0.000   0.000   0.000  0.00  0.00    +0.000 A 
ATOM     15  S   UNL     1       0.000   0.000   0.000  0.00  0.00    +0.000 S 
ATOM     16  C   UNL     1       0.000   0.000   0.000  0.00  0.00    +0.000 A 
ATOM     17  N   UNL     1       0.000   0.000   0.000  0.00  0.00    +0.000 NA
ATOM     18  C   UNL     1       0.000   0.000   0.000  0.00  0.00    +0.000 A 
ATOM     19  N   UNL     1       0.000   0.000   0.000  0.00  0.00    +0.000 N 
ATOM     20  C   UNL     1       0.000   0.000   0.000  0.00  0.00    +0.000 A 
ATOM     21  O   UNL     1       0.000   0.000   0.000  0.00  0.00    +0.000 OA
ATOM     22  C   UNL     1       0.000   0.000   0.000  0.00  0.00    +0.000 A 
ATOM     23  H   UNL     1       0.000   0.000   0.000  0.00  0.00    +0.000 HD
ENDBRANCH  10  13
ENDBRANCH   8   9
ENDBRANCH   1   8
BRANCH   4  24
ATOM     24  C   UNL     1       0.000   0.000   0.000  0.00  0.00    +0.000 C 
BRANCH  24  25
ATOM     25  O   UNL     1       0.000   0.000   0.000  0.00  0.00    +0.000 OA
BRANCH  25  26
ATOM     26  C   UNL     1       0.000   0.000   0.000  0.00  0.00    +0.000 C 
ATOM     27  O   UNL     1       0.000   0.000   0.000  0.00  0.00    +0.000 OA
ATOM     28  N   UNL     1       0.000   0.000   0.000  0.00  0.00    +0.000 N 
ATOM     29  C   UNL     1       0.000   0.000   0.000  0.00  0.00    +0.000 C 
ATOM     30  C   UNL     1       0.000   0.000   0.000  0.00  0.00    +0.000 C 
ATOM     31  C   UNL     1       0.000   0.000   0.000  0.00  0.00    +0.000 C 
ATOM     32  C   UNL     1       0.000   0.000   0.000  0.00  0.00    +0.000 C 
ATOM     33  C   UNL     1       0.000   0.000   0.000  0.00  0.00    +0.000 C 
BRANCH  33  34
ATOM     34  C   UNL     1       0.000   0.000   0.000  0.00  0.00    +0.000 C 
BRANCH  34  35
ATOM     35  O   UNL     1       0.000   0.000   0.000  0.00  0.00    +0.000 OA
ATOM     36  H   UNL     1       0.000   0.000   0.000  0.00  0.00    +0.000 HD
ENDBRANCH  34  35
ENDBRANCH  33  34
ENDBRANCH  25  26
ENDBRANCH  24  25
ENDBRANCH   4  24
TORSDOF 8
