REMARK  Name = 
REMARK  7 active torsions:
REMARK  status: ('A' for Active; 'I' for Inactive)
REMARK    1  A    between atoms: C_2  and  C_4
REMARK    2  A    between atoms: C_7  and  O_8
REMARK    3  A    between atoms: O_8  and  C_9
REMARK    4  A    between atoms: C_9  and  C_10
REMARK    5  A    between atoms: C_10  and  C_13
REMARK    6  A    between atoms: C_17  and  O_18
REMARK    7  A    between atoms: O_18  and  C_19
REMARK                            x       y       z     vdW  Elec       q    Type
REMARK                         _______ _______ _______ _____ _____    ______ ____
ROOT
ATOM      1  C   UNL     1       6.019   2.920   6.334  0.00  0.00    +0.000 C 
ATOM      2  F   UNL     1       7.269   2.466   6.021  0.00  0.00    +0.000 F 
ATOM      3  F   UNL     1       6.028   4.252   6.030  0.00  0.00    +0.000 F 
ENDROOT
BRANCH   1   4
ATOM      4  C   UNL     1       5.686   2.680   7.796  0.00  0.00    +0.000 A 
ATOM      5  C   UNL     1       6.193   1.562   8.474  0.00  0.00    +0.000 A 
ATOM      6  C   UNL     1       5.885   1.353   9.820  0.00  0.00    +0.000 A 
ATOM      7  C   UNL     1       5.065   2.253  10.506  0.00  0.00    +0.000 A 
ATOM      8  C   UNL     1       4.546   3.360   9.840  0.00  0.00    +0.000 A 
ATOM      9  C   UNL     1       4.861   3.575   8.495  0.00  0.00    +0.000 A 
BRANCH   8  10
ATOM     10  O   UNL     1       3.753   4.322  10.411  0.00  0.00    +0.000 OA
BRANCH  10  11
ATOM     11  C   UNL     1       3.011   4.001  11.609  0.00  0.00    +0.000 C 
ATOM     12  C   UNL     1       1.833   3.026  11.486  0.00  0.00    +0.000 C 
ATOM     13  O   UNL     1       0.897   4.004  11.992  0.00  0.00    +0.000 OA
ATOM     14  C   UNL     1       1.928   5.018  11.994  0.00  0.00    +0.000 C 
ENDBRANCH  10  11
ENDBRANCH   8  10
ENDBRANCH   1   4
BRANCH   1  15
ATOM     15  C   UNL     1       4.999   2.214   5.422  0.00  0.00    +0.000 C 
BRANCH  15  16
ATOM     16  O   UNL     1       5.310   2.454   4.039  0.00  0.00    +0.000 OA
BRANCH  16  20
ATOM     17  C   UNL     1       3.006   0.893   1.018  0.00  0.00    +0.000 A 
ATOM     18  C   UNL     1       2.618   0.586   2.316  0.00  0.00    +0.000 A 
ATOM     19  C   UNL     1       3.372   1.093   3.376  0.00  0.00    +0.000 A 
ATOM     20  C   UNL     1       4.483   1.889   3.110  0.00  0.00    +0.000 A 
ATOM     21  C   UNL     1       4.790   2.138   1.774  0.00  0.00    +0.000 A 
ATOM     22  N   UNL     1       4.087   1.662   0.715  0.00  0.00    +0.000 NA
BRANCH  17  24
ATOM     23  N   UNL     1       2.695   0.656  -1.376  0.00  0.00    +0.000 N 
ATOM     24  C   UNL     1       2.211   0.356  -0.132  0.00  0.00    +0.000 C 
ATOM     25  O   UNL     1       1.196  -0.311   0.023  0.00  0.00    +0.000 OA
ATOM     26  H   UNL     1       2.209   0.318  -2.193  0.00  0.00    +0.000 HD
ATOM     27  H   UNL     1       3.544   1.201  -1.466  0.00  0.00    +0.000 HD
ENDBRANCH  17  24
ENDBRANCH  16  20
ENDBRANCH  15  16
ENDBRANCH   1  15
TORSDOF 7
