REMARK  Name = 
REMARK  5 active torsions:
REMARK  status: ('A' for Active; 'I' for Inactive)
REMARK    1  A    between atoms: C_1  and  C_2
REMARK    2  A    between atoms: C_2  and  O_3
REMARK    3  A    between atoms: C_2  and  C_14
REMARK    4  A    between atoms: O_3  and  C_4
REMARK    5  A    between atoms: C_7  and  C_8
REMARK                            x       y       z     vdW  Elec       q    Type
REMARK                         _______ _______ _______ _____ _____    ______ ____
ROOT
ATOM      1  C   UNL     1       3.691  -0.168  -2.040  0.00  0.00    +0.000 A 
ATOM      2  N   UNL     1       4.793  -0.159  -1.249  0.00  0.00    +0.000 NA
ATOM      3  C   UNL     1       5.972  -0.388  -1.884  0.00  0.00    +0.000 A 
ATOM      4  C   UNL     1       6.043  -0.653  -3.245  0.00  0.00    +0.000 A 
ATOM      5  N   UNL     1       4.946  -0.687  -4.050  0.00  0.00    +0.000 NA
ATOM      6  C   UNL     1       3.779  -0.421  -3.414  0.00  0.00    +0.000 A 
ATOM      7 CL   UNL     1       2.414  -0.412  -4.457  0.00  0.00    +0.000 Cl
ENDROOT
BRANCH   4   8
ATOM      8  C   UNL     1       7.363  -0.897  -3.888  0.00  0.00    +0.000 C 
ATOM      9  N   UNL     1       7.325  -1.225  -5.211  0.00  0.00    +0.000 N 
ATOM     10  O   UNL     1       8.414  -0.813  -3.262  0.00  0.00    +0.000 OA
ATOM     11  H   UNL     1       6.437  -1.291  -5.697  0.00  0.00    +0.000 HD
ATOM     12  H   UNL     1       8.187  -1.397  -5.709  0.00  0.00    +0.000 HD
ENDBRANCH   4   8
BRANCH   1  13
ATOM     13  O   UNL     1       2.470   0.157  -1.496  0.00  0.00    +0.000 OA
BRANCH  13  15
ATOM     14  C   UNL     1       0.893  -0.227   0.216  0.00  0.00    +0.000 C 
ATOM     15  C   UNL     1       2.372   0.075  -0.062  0.00  0.00    +0.000 C 
BRANCH  15  16
ATOM     16  C   UNL     1       2.873   1.379   0.624  0.00  0.00    +0.000 C 
ATOM     17  C   UNL     1       2.788   1.285   2.159  0.00  0.00    +0.000 C 
ATOM     18  C   UNL     1       3.232   2.571   2.850  0.00  0.00    +0.000 C 
ATOM     19  C   UNL     1       2.452   3.770   2.321  0.00  0.00    +0.000 C 
ATOM     20  C   UNL     1       2.632   3.907   0.814  0.00  0.00    +0.000 C 
ATOM     21  C   UNL     1       2.182   2.644   0.082  0.00  0.00    +0.000 C 
ENDBRANCH  15  16
ENDBRANCH  13  15
ENDBRANCH   1  13
TORSDOF 4
