REMARK  Name = 
REMARK  5 active torsions:
REMARK  status: ('A' for Active; 'I' for Inactive)
REMARK    1  A    between atoms: C_1  and  C_2
REMARK    2  A    between atoms: N_5  and  C_6
REMARK    3  A    between atoms: C_6  and  C_7
REMARK    4  A    between atoms: C_11  and  C_12
REMARK    5  A    between atoms: C_20  and  C_21
REMARK                            x       y       z     vdW  Elec       q    Type
REMARK                         _______ _______ _______ _____ _____    ______ ____
ROOT
ATOM      1  C   UNL     1      -2.394   0.092  -0.096  0.00  0.00    +0.000 C 
ATOM      2  C   UNL     1      -0.905   0.074   0.061  0.00  0.00    +0.000 A 
ATOM      3  N   UNL     1      -0.244   1.245   0.002  0.00  0.00    +0.000 NA
ATOM      4  C   UNL     1       1.091   1.216   0.138  0.00  0.00    +0.000 A 
ATOM      5  N   UNL     1       1.844   2.403   0.127  0.00  0.00    +0.000 N 
ATOM      6  C   UNL     1       1.765   0.031   0.354  0.00  0.00    +0.000 A 
ATOM      7  C   UNL     1       1.021  -1.135   0.412  0.00  0.00    +0.000 A 
ATOM      8  N   UNL     1      -0.326  -1.122   0.256  0.00  0.00    +0.000 NA
ATOM      9  H   UNL     1       2.617   2.326  -0.526  0.00  0.00    +0.000 HD
ENDROOT
BRANCH   7  10
ATOM     10  C   UNL     1       1.714  -2.461   0.667  0.00  0.00    +0.000 C 
ATOM     11  F   UNL     1       3.066  -2.342   0.830  0.00  0.00    +0.000 F 
ATOM     12  F   UNL     1       1.269  -3.092   1.791  0.00  0.00    +0.000 F 
ATOM     13  F   UNL     1       1.553  -3.352  -0.353  0.00  0.00    +0.000 F 
ENDBRANCH   7  10
BRANCH   5  14
ATOM     14  C   UNL     1       1.074   3.620  -0.085  0.00  0.00    +0.000 C 
BRANCH  14  15
ATOM     15  C   UNL     1       2.006   4.813  -0.133  0.00  0.00    +0.000 A 
ATOM     16  C   UNL     1       2.607   5.197  -1.338  0.00  0.00    +0.000 A 
ATOM     17  C   UNL     1       3.433   6.319  -1.387  0.00  0.00    +0.000 A 
ATOM     18  C   UNL     1       3.648   7.082  -0.236  0.00  0.00    +0.000 A 
ATOM     19  C   UNL     1       3.049   6.742   0.990  0.00  0.00    +0.000 A 
ATOM     20  C   UNL     1       2.263   5.571   1.025  0.00  0.00    +0.000 A 
BRANCH  19  21
ATOM     21  C   UNL     1       3.174   7.605   2.183  0.00  0.00    +0.000 A 
ATOM     22  C   UNL     1       3.258   8.998   2.103  0.00  0.00    +0.000 A 
ATOM     23  N   UNL     1       3.303   9.817   3.185  0.00  0.00    +0.000 NA
ATOM     24  C   UNL     1       3.254   9.187   4.377  0.00  0.00    +0.000 A 
ATOM     25  C   UNL     1       3.174   7.810   4.480  0.00  0.00    +0.000 A 
ATOM     26  N   UNL     1       3.129   6.995   3.398  0.00  0.00    +0.000 NA
ENDBRANCH  19  21
ENDBRANCH  14  15
ENDBRANCH   5  14
TORSDOF 4
