REMARK  Name = 
REMARK  11 active torsions:
REMARK  status: ('A' for Active; 'I' for Inactive)
REMARK    1  A    between atoms: C_1  and  C_2
REMARK    2  A    between atoms: C_2  and  N_3
REMARK    3  A    between atoms: C_2  and  C_22
REMARK    4  A    between atoms: N_3  and  C_4
REMARK    5  A    between atoms: C_4  and  C_5
REMARK    6  A    between atoms: C_9  and  C_10
REMARK    7  A    between atoms: C_10  and  N_11
REMARK    8  A    between atoms: N_11  and  CA_12
REMARK    9  A    between atoms: CA_12  and  C_13
REMARK   10  A    between atoms: CA_12  and  C_15
REMARK   11  A    between atoms: C_13  and  O_14
REMARK                            x       y       z     vdW  Elec       q    Type
REMARK                         _______ _______ _______ _____ _____    ______ ____
ROOT
ATOM      1  C   UNL     1      -0.834  -0.780  -1.275  0.00  0.00    +0.000 A 
ATOM      2  C   UNL     1      -1.506  -1.950  -1.643  0.00  0.00    +0.000 A 
ATOM      3  C   UNL     1      -2.892  -2.016  -1.550  0.00  0.00    +0.000 A 
ATOM      4  C   UNL     1      -3.611  -0.925  -1.052  0.00  0.00    +0.000 A 
ATOM      5  C   UNL     1      -2.946   0.240  -0.641  0.00  0.00    +0.000 A 
ATOM      6  C   UNL     1      -1.558   0.308  -0.783  0.00  0.00    +0.000 A 
ENDROOT
BRANCH   1   7
ATOM      7  C   UNL     1       0.666  -0.697  -1.329  0.00  0.00    +0.000 C 
BRANCH   7   8
ATOM      8  N   UNL     1       1.161  -0.912  -2.684  0.00  0.00    +0.000 NA
ATOM      9  H   UNL     1       0.744  -0.218  -3.304  0.00  0.00    +0.000 HD
BRANCH   8  11
ATOM     10  C   UNL     1       3.258  -1.819  -1.778  0.00  0.00    +0.000 C 
ATOM     11  C   UNL     1       2.626  -0.830  -2.777  0.00  0.00    +0.000 C 
BRANCH  11  12
ATOM     12  C   UNL     1       2.996  -1.160  -4.221  0.00  0.00    +0.000 A 
ATOM     13  C   UNL     1       2.631  -2.347  -4.833  0.00  0.00    +0.000 A 
ATOM     14  S   UNL     1       3.201  -2.511  -6.428  0.00  0.00    +0.000 S 
ATOM     15  C   UNL     1       3.946  -0.985  -6.381  0.00  0.00    +0.000 A 
ATOM     16  N   UNL     1       4.654  -0.525  -7.449  0.00  0.00    +0.000 NA
ATOM     17  C   UNL     1       5.168   0.647  -7.287  0.00  0.00    +0.000 A 
ATOM     18  N   UNL     1       5.018   1.410  -6.165  0.00  0.00    +0.000 N 
ATOM     19  C   UNL     1       4.256   1.015  -5.082  0.00  0.00    +0.000 A 
ATOM     20  O   UNL     1       4.042   1.776  -4.134  0.00  0.00    +0.000 OA
ATOM     21  C   UNL     1       3.722  -0.334  -5.175  0.00  0.00    +0.000 A 
ATOM     22  H   UNL     1       5.409   2.343  -6.119  0.00  0.00    +0.000 HD
ENDBRANCH  11  12
ENDBRANCH   8  11
ENDBRANCH   7   8
ENDBRANCH   1   7
BRANCH   5  23
ATOM     23  C   UNL     1      -3.683   1.414  -0.041  0.00  0.00    +0.000 C 
BRANCH  23  24
ATOM     24  N   UNL     1      -4.372   1.011   1.183  0.00  0.00    +0.000 NA
ATOM     25  H   UNL     1      -3.669   0.629   1.817  0.00  0.00    +0.000 HD
BRANCH  24  26
ATOM     26  CA  UNL     1      -5.054   2.117   1.889  0.00  0.00    +0.000 C 
BRANCH  26  27
ATOM     27  C   UNL     1      -5.640   1.587   3.189  0.00  0.00    +0.000 A 
ATOM     28  C   UNL     1      -6.043   0.250   3.337  0.00  0.00    +0.000 A 
ATOM     29  C   UNL     1      -6.579  -0.195   4.541  0.00  0.00    +0.000 A 
ATOM     30  C   UNL     1      -6.713   0.723   5.567  0.00  0.00    +0.000 A 
ATOM     31  N   UNL     1      -6.352   2.020   5.469  0.00  0.00    +0.000 NA
ATOM     32  C   UNL     1      -5.833   2.423   4.288  0.00  0.00    +0.000 A 
ENDBRANCH  26  27
BRANCH  26  33
ATOM     33  C   UNL     1      -6.161   2.811   1.049  0.00  0.00    +0.000 C 
BRANCH  33  34
ATOM     34  O   UNL     1      -7.187   1.911   0.635  0.00  0.00    +0.000 OA
ATOM     35  H   UNL     1      -6.751   1.053   0.480  0.00  0.00    +0.000 HD
ENDBRANCH  33  34
ENDBRANCH  26  33
ENDBRANCH  24  26
ENDBRANCH  23  24
ENDBRANCH   5  23
TORSDOF 10
