REMARK  Name = 
REMARK  4 active torsions:
REMARK  status: ('A' for Active; 'I' for Inactive)
REMARK    1  A    between atoms: N_1  and  C_2
REMARK    2  A    between atoms: C_2  and  C_3
REMARK    3  A    between atoms: C_6  and  C_7
REMARK    4  A    between atoms: C_7  and  C_8
REMARK                            x       y       z     vdW  Elec       q    Type
REMARK                         _______ _______ _______ _____ _____    ______ ____
ROOT
ATOM      1  C   UNL     1       3.478  -4.492   3.282  0.00  0.00    +0.000 C 
ENDROOT
BRANCH   1   2
ATOM      2  C   UNL     1       4.006  -4.328   4.671  0.00  0.00    +0.000 A 
ATOM      3  C   UNL     1       3.359  -4.725   5.836  0.00  0.00    +0.000 A 
ATOM      4  N   UNL     1       4.245  -4.630   6.880  0.00  0.00    +0.000 N 
ATOM      5  C   UNL     1       5.456  -4.200   6.419  0.00  0.00    +0.000 A 
ATOM      6  N   UNL     1       6.564  -4.096   7.177  0.00  0.00    +0.000 NA
ATOM      7  C   UNL     1       7.636  -3.658   6.478  0.00  0.00    +0.000 A 
ATOM      8  C   UNL     1       7.638  -3.298   5.136  0.00  0.00    +0.000 A 
ATOM      9  C   UNL     1       6.462  -3.431   4.399  0.00  0.00    +0.000 A 
ATOM     10  C   UNL     1       5.326  -3.929   5.061  0.00  0.00    +0.000 A 
ATOM     11  H   UNL     1       4.082  -4.909   7.835  0.00  0.00    +0.000 HD
ENDBRANCH   1   2
BRANCH   1  15
ATOM     12  C   UNL     1       3.312  -0.938   0.919  0.00  0.00    +0.000 A 
ATOM     13  C   UNL     1       2.424  -1.082   1.990  0.00  0.00    +0.000 A 
ATOM     14  C   UNL     1       2.500  -2.203   2.819  0.00  0.00    +0.000 A 
ATOM     15  C   UNL     1       3.465  -3.171   2.557  0.00  0.00    +0.000 A 
ATOM     16  N   UNL     1       4.352  -3.040   1.533  0.00  0.00    +0.000 NA
ATOM     17  C   UNL     1       4.260  -1.940   0.753  0.00  0.00    +0.000 A 
BRANCH  12  18
ATOM     18  C   UNL     1       3.225   0.206  -0.048  0.00  0.00    +0.000 C 
BRANCH  18  19
ATOM     19  N   UNL     1       3.362   1.499   0.610  0.00  0.00    +0.000 NA
ATOM     20  H   UNL     1       3.423   2.229  -0.094  0.00  0.00    +0.000 HD
ATOM     21  H   UNL     1       4.247   1.520   1.122  0.00  0.00    +0.000 HD
ENDBRANCH  18  19
ENDBRANCH  12  18
ENDBRANCH   1  15
TORSDOF 4
