REMARK  Name = 
REMARK  6 active torsions:
REMARK  status: ('A' for Active; 'I' for Inactive)
REMARK    1  A    between atoms: C_1  and  C_2
REMARK    2  A    between atoms: C_2  and  C_3
REMARK    3  A    between atoms: C_5  and  N_6
REMARK    4  A    between atoms: N_6  and  C_7
REMARK    5  A    between atoms: C_7  and  C_8
REMARK    6  A    between atoms: C_11  and  C_12
REMARK                            x       y       z     vdW  Elec       q    Type
REMARK                         _______ _______ _______ _____ _____    ______ ____
ROOT
ATOM      1  C   UNL     1       2.933   1.313  -4.593  0.00  0.00    +0.000 C 
ATOM      2  C   UNL     1       3.820   0.364  -5.383  0.00  0.00    +0.000 C 
ATOM      3  C   UNL     1       3.927   1.832  -5.625  0.00  0.00    +0.000 C 
ENDROOT
BRANCH   1   4
ATOM      4  C   UNL     1       1.475   1.560  -4.955  0.00  0.00    +0.000 A 
ATOM      5  C   UNL     1       0.813   2.737  -4.572  0.00  0.00    +0.000 A 
ATOM      6  C   UNL     1      -0.497   2.994  -4.976  0.00  0.00    +0.000 A 
ATOM      7  C   UNL     1      -1.133   2.047  -5.770  0.00  0.00    +0.000 A 
ATOM      8  N   UNL     1      -0.561   0.880  -6.134  0.00  0.00    +0.000 NA
ATOM      9  C   UNL     1       0.712   0.670  -5.717  0.00  0.00    +0.000 A 
BRANCH   7  10
ATOM     10  C   UNL     1      -2.457   2.281  -6.265  0.00  0.00    +0.000 C 
ATOM     11  N   UNL     1      -3.523   2.515  -6.670  0.00  0.00    +0.000 NA
ENDBRANCH   7  10
ENDBRANCH   1   4
BRANCH   1  12
ATOM     12  N   UNL     1       3.257   1.486  -3.157  0.00  0.00    +0.000 NA
ATOM     13  H   UNL     1       4.268   1.480  -3.012  0.00  0.00    +0.000 HD
BRANCH  12  18
ATOM     14  C   UNL     1       0.910  -0.211   0.288  0.00  0.00    +0.000 C 
ATOM     15  C   UNL     1       2.441  -0.227   0.170  0.00  0.00    +0.000 C 
ATOM     16  C   UNL     1       3.036   0.044   1.559  0.00  0.00    +0.000 C 
ATOM     17  C   UNL     1       2.970   0.835  -0.813  0.00  0.00    +0.000 C 
ATOM     18  C   UNL     1       2.630   0.488  -2.267  0.00  0.00    +0.000 C 
ATOM     19  C   UNL     1       3.097  -0.939  -2.568  0.00  0.00    +0.000 C 
ATOM     20  C   UNL     1       2.578  -1.926  -1.538  0.00  0.00    +0.000 C 
ATOM     21  O   UNL     1       2.911  -1.527  -0.212  0.00  0.00    +0.000 OA
ENDBRANCH  12  18
ENDBRANCH   1  12
TORSDOF 4
