REMARK  Name = 
REMARK  10 active torsions:
REMARK  status: ('A' for Active; 'I' for Inactive)
REMARK    1  A    between atoms: C_1  and  C_2
REMARK    2  A    between atoms: C_4  and  S_5
REMARK    3  A    between atoms: S_5  and  C_6
REMARK    4  A    between atoms: C_11  and  O_12
REMARK    5  A    between atoms: O_12  and  C_13
REMARK    6  A    between atoms: C_13  and  C_14
REMARK    7  A    between atoms: C_14  and  C_15
REMARK    8  A    between atoms: C_14  and  C_16
REMARK    9  A    between atoms: C_14  and  C_17
REMARK   10  A    between atoms: C_21  and  C_22
REMARK                            x       y       z     vdW  Elec       q    Type
REMARK                         _______ _______ _______ _____ _____    ______ ____
ROOT
ATOM      1  O   UNL     1       0.747  -2.471  -0.036  0.00  0.00    +0.000 OA
ENDROOT
BRANCH   1   8
ATOM      2  C   UNL     1       2.136   0.065  -1.288  0.00  0.00    +0.000 C 
ATOM      3  C   UNL     1       0.840  -0.012  -0.542  0.00  0.00    +0.000 A 
ATOM      4  N   UNL     1       0.219   1.197  -0.470  0.00  0.00    +0.000 NA
ATOM      5  C   UNL     1      -0.999   1.242   0.117  0.00  0.00    +0.000 A 
ATOM      6  C   UNL     1      -1.654   0.155   0.656  0.00  0.00    +0.000 A 
ATOM      7  C   UNL     1      -1.000  -1.074   0.585  0.00  0.00    +0.000 A 
ATOM      8  C   UNL     1       0.268  -1.182  -0.009  0.00  0.00    +0.000 A 
BRANCH   5   9
ATOM      9  S   UNL     1      -1.749   2.854   0.124  0.00  0.00    +0.000 S 
ATOM     10  C   UNL     1      -0.588   3.912  -0.704  0.00  0.00    +0.000 C 
ATOM     11  O   UNL     1      -2.942   2.774  -0.700  0.00  0.00    +0.000 OA
ATOM     12  O   UNL     1      -1.828   3.282   1.510  0.00  0.00    +0.000 OA
ENDBRANCH   5   9
ENDBRANCH   1   8
BRANCH   1  13
ATOM     13  C   UNL     1       2.162  -2.616   0.056  0.00  0.00    +0.000 C 
BRANCH  13  14
ATOM     14  C   UNL     1       2.665  -4.087   0.106  0.00  0.00    +0.000 C 
ATOM     15  C   UNL     1       2.084  -4.776   1.355  0.00  0.00    +0.000 C 
ATOM     16  C   UNL     1       2.152  -4.810  -1.164  0.00  0.00    +0.000 C 
BRANCH  14  17
ATOM     17  C   UNL     1       4.214  -4.145   0.144  0.00  0.00    +0.000 A 
ATOM     18  C   UNL     1       5.024  -2.989   0.141  0.00  0.00    +0.000 A 
ATOM     19  C   UNL     1       6.418  -3.066   0.160  0.00  0.00    +0.000 A 
ATOM     20  C   UNL     1       7.047  -4.304   0.192  0.00  0.00    +0.000 A 
ATOM     21  C   UNL     1       6.275  -5.467   0.208  0.00  0.00    +0.000 A 
ATOM     22  C   UNL     1       4.875  -5.386   0.180  0.00  0.00    +0.000 A 
BRANCH  21  23
ATOM     23  C   UNL     1       6.915  -6.745   0.259  0.00  0.00    +0.000 C 
ATOM     24  N   UNL     1       7.435  -7.785   0.304  0.00  0.00    +0.000 NA
ENDBRANCH  21  23
ENDBRANCH  14  17
ENDBRANCH  13  14
ENDBRANCH   1  13
TORSDOF 6
