REMARK  Name = 
REMARK  6 active torsions:
REMARK  status: ('A' for Active; 'I' for Inactive)
REMARK    1  A    between atoms: C_2  and  C_4
REMARK    2  A    between atoms: C_7  and  O_8
REMARK    3  A    between atoms: O_8  and  C_9
REMARK    4  A    between atoms: C_9  and  C_10
REMARK    5  A    between atoms: C_10  and  C_13
REMARK    6  A    between atoms: C_17  and  C_18
REMARK                            x       y       z     vdW  Elec       q    Type
REMARK                         _______ _______ _______ _____ _____    ______ ____
ROOT
ATOM      1  C   UNL     1       5.960  -6.712  -2.629  0.00  0.00    +0.000 C 
ATOM      2  F   UNL     1       7.251  -6.266  -2.635  0.00  0.00    +0.000 F 
ATOM      3  F   UNL     1       5.835  -7.455  -1.490  0.00  0.00    +0.000 F 
ENDROOT
BRANCH   1   4
ATOM      4  C   UNL     1       5.652  -7.522  -3.863  0.00  0.00    +0.000 A 
ATOM      5  C   UNL     1       4.780  -8.597  -3.803  0.00  0.00    +0.000 A 
ATOM      6  N   UNL     1       4.448  -9.349  -4.872  0.00  0.00    +0.000 NA
ATOM      7  C   UNL     1       5.024  -9.024  -6.056  0.00  0.00    +0.000 A 
ATOM      8  C   UNL     1       5.909  -7.962  -6.257  0.00  0.00    +0.000 A 
ATOM      9  C   UNL     1       6.213  -7.209  -5.111  0.00  0.00    +0.000 A 
BRANCH   8  10
ATOM     10  C   UNL     1       6.479  -7.647  -7.582  0.00  0.00    +0.000 A 
ATOM     11  C   UNL     1       7.763  -7.103  -7.739  0.00  0.00    +0.000 A 
ATOM     12  C   UNL     1       8.265  -6.805  -9.006  0.00  0.00    +0.000 A 
ATOM     13  C   UNL     1       7.470  -7.069 -10.106  0.00  0.00    +0.000 A 
ATOM     14  N   UNL     1       6.232  -7.592 -10.017  0.00  0.00    +0.000 NA
ATOM     15  C   UNL     1       5.772  -7.862  -8.770  0.00  0.00    +0.000 A 
ENDBRANCH   8  10
ENDBRANCH   1   4
BRANCH   1  16
ATOM     16  C   UNL     1       5.022  -5.495  -2.530  0.00  0.00    +0.000 C 
BRANCH  16  17
ATOM     17  O   UNL     1       5.302  -4.739  -1.342  0.00  0.00    +0.000 OA
BRANCH  17  21
ATOM     18  C   UNL     1       3.123  -1.397  -0.368  0.00  0.00    +0.000 A 
ATOM     19  C   UNL     1       2.787  -2.031  -1.558  0.00  0.00    +0.000 A 
ATOM     20  C   UNL     1       3.504  -3.169  -1.933  0.00  0.00    +0.000 A 
ATOM     21  C   UNL     1       4.524  -3.640  -1.112  0.00  0.00    +0.000 A 
ATOM     22  C   UNL     1       4.786  -2.933   0.060  0.00  0.00    +0.000 A 
ATOM     23  N   UNL     1       4.118  -1.820   0.458  0.00  0.00    +0.000 NA
BRANCH  18  25
ATOM     24  N   UNL     1       2.798   0.421   1.204  0.00  0.00    +0.000 N 
ATOM     25  C   UNL     1       2.366  -0.175   0.051  0.00  0.00    +0.000 C 
ATOM     26  O   UNL     1       1.425   0.270  -0.593  0.00  0.00    +0.000 OA
ATOM     27  H   UNL     1       2.338   1.257   1.534  0.00  0.00    +0.000 HD
ATOM     28  H   UNL     1       3.591   0.035   1.704  0.00  0.00    +0.000 HD
ENDBRANCH  18  25
ENDBRANCH  17  21
ENDBRANCH  16  17
ENDBRANCH   1  16
TORSDOF 6
