REMARK  Name = 
REMARK  6 active torsions:
REMARK  status: ('A' for Active; 'I' for Inactive)
REMARK    1  A    between atoms: C_2  and  C_25
REMARK    2  A    between atoms: N_3  and  C_4
REMARK    3  A    between atoms: C_4  and  C_5
REMARK    4  A    between atoms: C_8  and  C_9
REMARK    5  A    between atoms: C_9  and  N_10
REMARK    6  A    between atoms: C_11  and  C_13
REMARK                            x       y       z     vdW  Elec       q    Type
REMARK                         _______ _______ _______ _____ _____    ______ ____
ROOT
ATOM      1  C   UNL     1       3.161   1.473   3.398  0.00  0.00    +0.000 C 
ATOM      2  C   UNL     1       3.112   0.477   4.559  0.00  0.00    +0.000 C 
ATOM      3  C   UNL     1       3.974   0.919   5.730  0.00  0.00    +0.000 C 
ATOM      4  C   UNL     1       3.601   2.316   6.243  0.00  0.00    +0.000 C 
ATOM      5  C   UNL     1       3.656   3.322   5.082  0.00  0.00    +0.000 C 
ATOM      6  C   UNL     1       2.795   2.880   3.896  0.00  0.00    +0.000 C 
ENDROOT
BRANCH   1   7
ATOM      7  C   UNL     1       2.212   1.028   2.273  0.00  0.00    +0.000 C 
BRANCH   7  10
ATOM      8  O   UNL     1       3.932   0.629   0.108  0.00  0.00    +0.000 OA
ATOM      9  C   UNL     1       3.434  -0.354   0.643  0.00  0.00    +0.000 C 
ATOM     10  N   UNL     1       2.577  -0.260   1.721  0.00  0.00    +0.000 N 
ATOM     11  H   UNL     1       2.376  -1.122   2.226  0.00  0.00    +0.000 HD
BRANCH   9  12
ATOM     12  C   UNL     1       3.716  -1.721   0.192  0.00  0.00    +0.000 A 
ATOM     13  C   UNL     1       4.566  -2.019  -0.859  0.00  0.00    +0.000 A 
ATOM     14  S   UNL     1       4.686  -3.715  -1.076  0.00  0.00    +0.000 S 
ATOM     15  C   UNL     1       3.587  -3.933   0.223  0.00  0.00    +0.000 A 
ATOM     16  N   UNL     1       3.141  -2.841   0.806  0.00  0.00    +0.000 NA
ENDBRANCH   9  12
ENDBRANCH   7  10
ENDBRANCH   1   7
BRANCH   4  17
ATOM     17  C   UNL     1       4.523   2.765   7.392  0.00  0.00    +0.000 C 
BRANCH  17  18
ATOM     18  N   UNL     1       4.457   1.896   8.546  0.00  0.00    +0.000 N 
ATOM     19  C   UNL     1       5.214   2.146   9.669  0.00  0.00    +0.000 C 
ATOM     20  O   UNL     1       5.937   3.130   9.767  0.00  0.00    +0.000 OA
ATOM     21  H   UNL     1       4.136   0.941   8.410  0.00  0.00    +0.000 HD
BRANCH  19  22
ATOM     22  C   UNL     1       5.060   1.197  10.782  0.00  0.00    +0.000 A 
ATOM     23  C   UNL     1       5.226   1.632  12.085  0.00  0.00    +0.000 A 
ATOM     24  S   UNL     1       5.003   0.401  13.247  0.00  0.00    +0.000 S 
ATOM     25  C   UNL     1       4.707  -0.759  12.039  0.00  0.00    +0.000 A 
ATOM     26  N   UNL     1       4.471  -2.062  12.358  0.00  0.00    +0.000 NA
ATOM     27  C   UNL     1       4.286  -2.836  11.342  0.00  0.00    +0.000 A 
ATOM     28  N   UNL     1       4.310  -2.423  10.031  0.00  0.00    +0.000 N 
ATOM     29  C   UNL     1       4.534  -1.118   9.662  0.00  0.00    +0.000 A 
ATOM     30  O   UNL     1       4.524  -0.780   8.488  0.00  0.00    +0.000 OA
ATOM     31  C   UNL     1       4.755  -0.210  10.772  0.00  0.00    +0.000 A 
ATOM     32  H   UNL     1       4.148  -3.076   9.281  0.00  0.00    +0.000 HD
ENDBRANCH  19  22
ENDBRANCH  17  18
ENDBRANCH   4  17
TORSDOF 6
