REMARK  Name = 
REMARK  10 active torsions:
REMARK  status: ('A' for Active; 'I' for Inactive)
REMARK    1  A    between atoms: C_1  and  O_2
REMARK    2  A    between atoms: O_2  and  C_3
REMARK    3  A    between atoms: C_10  and  C_11
REMARK    4  A    between atoms: N_13  and  C_14
REMARK    5  A    between atoms: C_14  and  C_15
REMARK    6  A    between atoms: C_18  and  C_19
REMARK    7  A    between atoms: C_19  and  N_20
REMARK    8  A    between atoms: N_20  and  C_21
REMARK    9  A    between atoms: C_21  and  C_22
REMARK   10  A    between atoms: C_22  and  C_23
REMARK                            x       y       z     vdW  Elec       q    Type
REMARK                         _______ _______ _______ _____ _____    ______ ____
ROOT
ATOM      1  C   UNL     1       1.818   1.744   3.031  0.00  0.00    +0.000 A 
ATOM      2  C   UNL     1       0.497   1.339   2.800  0.00  0.00    +0.000 A 
ATOM      3  C   UNL     1      -0.487   2.282   2.485  0.00  0.00    +0.000 A 
ATOM      4  C   UNL     1      -0.165   3.643   2.392  0.00  0.00    +0.000 A 
ATOM      5  C   UNL     1       1.157   4.044   2.620  0.00  0.00    +0.000 A 
ATOM      6  C   UNL     1       2.139   3.103   2.931  0.00  0.00    +0.000 A 
ENDROOT
BRANCH   1   7
ATOM      7  C   UNL     1       2.893   0.730   3.316  0.00  0.00    +0.000 C 
BRANCH   7  10
ATOM      8  C   UNL     1       4.485  -0.682   2.097  0.00  0.00    +0.000 C 
ATOM      9  O   UNL     1       4.872  -1.189   3.148  0.00  0.00    +0.000 OA
ATOM     10  N   UNL     1       3.514   0.280   2.094  0.00  0.00    +0.000 N 
ATOM     11  H   UNL     1       3.230   0.720   1.229  0.00  0.00    +0.000 HD
BRANCH   8  19
ATOM     12  C   UNL     1       3.787   0.156  -1.174  0.00  0.00    +0.000 A 
ATOM     13  N   UNL     1       3.743   0.309  -2.513  0.00  0.00    +0.000 NA
ATOM     14  C   UNL     1       4.606  -0.390  -3.255  0.00  0.00    +0.000 A 
ATOM     15  N   UNL     1       5.527  -1.243  -2.819  0.00  0.00    +0.000 NA
ATOM     16  C   UNL     1       5.545  -1.359  -1.480  0.00  0.00    +0.000 A 
ATOM     17  S   UNL     1       6.657  -2.412  -0.750  0.00  0.00    +0.000 S 
ATOM     18  C   UNL     1       6.086  -2.017   0.800  0.00  0.00    +0.000 A 
ATOM     19  C   UNL     1       5.054  -1.086   0.801  0.00  0.00    +0.000 A 
ATOM     20  C   UNL     1       4.726  -0.698  -0.569  0.00  0.00    +0.000 A 
BRANCH  12  22
ATOM     21  C   UNL     1       1.720   1.244  -1.115  0.00  0.00    +0.000 C 
ATOM     22  O   UNL     1       2.910   0.899  -0.409  0.00  0.00    +0.000 OA
ENDBRANCH  12  22
ENDBRANCH   8  19
ENDBRANCH   7  10
ENDBRANCH   1   7
BRANCH   4  23
ATOM     23  C   UNL     1      -1.198   4.650   1.954  0.00  0.00    +0.000 C 
BRANCH  23  24
ATOM     24  N   UNL     1      -2.360   4.688   2.848  0.00  0.00    +0.000 NA
ATOM     25  H   UNL     1      -2.029   4.923   3.784  0.00  0.00    +0.000 HD
BRANCH  24  26
ATOM     26  C   UNL     1      -3.336   5.705   2.419  0.00  0.00    +0.000 C 
BRANCH  26  27
ATOM     27  C   UNL     1      -3.954   5.401   1.050  0.00  0.00    +0.000 C 
BRANCH  27  28
ATOM     28  C   UNL     1      -4.959   6.437   0.628  0.00  0.00    +0.000 A 
ATOM     29  C   UNL     1      -6.313   6.261   0.895  0.00  0.00    +0.000 A 
ATOM     30  C   UNL     1      -7.212   7.215   0.431  0.00  0.00    +0.000 A 
ATOM     31  C   UNL     1      -6.739   8.313  -0.279  0.00  0.00    +0.000 A 
ATOM     32  C   UNL     1      -5.375   8.418  -0.486  0.00  0.00    +0.000 A 
ATOM     33  N   UNL     1      -4.478   7.512  -0.044  0.00  0.00    +0.000 NA
ENDBRANCH  27  28
ENDBRANCH  26  27
ENDBRANCH  24  26
ENDBRANCH  23  24
ENDBRANCH   4  23
TORSDOF 9
