REMARK  Name = 
REMARK  8 active torsions:
REMARK  status: ('A' for Active; 'I' for Inactive)
REMARK    1  A    between atoms: C_1  and  C_2
REMARK    2  A    between atoms: C_2  and  C_3
REMARK    3  A    between atoms: C_2  and  C_4
REMARK    4  A    between atoms: C_2  and  C_5
REMARK    5  A    between atoms: C_10  and  C_11
REMARK    6  A    between atoms: C_11  and  O_13
REMARK    7  A    between atoms: N_16  and  C_17
REMARK    8  A    between atoms: C_17  and  C_18
REMARK                            x       y       z     vdW  Elec       q    Type
REMARK                         _______ _______ _______ _____ _____    ______ ____
ROOT
ATOM      1  C   UNL     1       2.899  -0.734  -1.217  0.00  0.00    +0.000 A 
ATOM      2  N   UNL     1       2.969  -1.976  -1.678  0.00  0.00    +0.000 NA
ATOM      3  C   UNL     1       3.431  -1.906  -2.944  0.00  0.00    +0.000 A 
ATOM      4  N   UNL     1       3.526  -2.959  -3.785  0.00  0.00    +0.000 NA
ATOM      5  C   UNL     1       3.940  -2.648  -5.030  0.00  0.00    +0.000 A 
ATOM      6  C   UNL     1       4.323  -1.382  -5.456  0.00  0.00    +0.000 A 
ATOM      7  C   UNL     1       4.234  -0.300  -4.565  0.00  0.00    +0.000 A 
ATOM      8  C   UNL     1       3.754  -0.606  -3.287  0.00  0.00    +0.000 A 
ATOM      9  N   UNL     1       3.467   0.138  -2.143  0.00  0.00    +0.000 N 
ENDROOT
BRANCH   1  11
ATOM     10  C   UNL     1       3.345  -0.631   1.246  0.00  0.00    +0.000 C 
ATOM     11  C   UNL     1       2.270  -0.483   0.157  0.00  0.00    +0.000 C 
ATOM     12  C   UNL     1       1.201  -1.588   0.400  0.00  0.00    +0.000 C 
ATOM     13  C   UNL     1       1.537   0.852   0.313  0.00  0.00    +0.000 C 
ENDBRANCH   1  11
BRANCH   6  14
ATOM     14  C   UNL     1       4.736  -1.133  -6.851  0.00  0.00    +0.000 C 
ATOM     15  O   UNL     1       4.539  -0.062  -7.402  0.00  0.00    +0.000 OA
BRANCH  14  16
ATOM     16  O   UNL     1       5.362  -2.164  -7.455  0.00  0.00    +0.000 OA
ATOM     17  H   UNL     1       5.648  -2.905  -6.889  0.00  0.00    +0.000 HD
ENDBRANCH  14  16
ENDBRANCH   6  14
BRANCH   9  18
ATOM     18  C   UNL     1       3.643   1.587  -2.093  0.00  0.00    +0.000 C 
BRANCH  18  19
ATOM     19  C   UNL     1       5.059   2.071  -1.905  0.00  0.00    +0.000 A 
ATOM     20  C   UNL     1       6.140   1.275  -1.513  0.00  0.00    +0.000 A 
ATOM     21  C   UNL     1       7.426   1.817  -1.477  0.00  0.00    +0.000 A 
ATOM     22  C   UNL     1       7.593   3.152  -1.803  0.00  0.00    +0.000 A 
ATOM     23  N   UNL     1       6.571   3.971  -2.118  0.00  0.00    +0.000 NA
ATOM     24  C   UNL     1       5.338   3.417  -2.156  0.00  0.00    +0.000 A 
ENDBRANCH  18  19
ENDBRANCH   9  18
TORSDOF 5
