REMARK  Name = 
REMARK  7 active torsions:
REMARK  status: ('A' for Active; 'I' for Inactive)
REMARK    1  A    between atoms: C_2  and  C_20
REMARK    2  A    between atoms: N_3  and  C_4
REMARK    3  A    between atoms: C_4  and  C_5
REMARK    4  A    between atoms: C_8  and  C_9
REMARK    5  A    between atoms: C_9  and  N_10
REMARK    6  A    between atoms: N_10  and  C_11
REMARK    7  A    between atoms: C_11  and  C_12
REMARK                            x       y       z     vdW  Elec       q    Type
REMARK                         _______ _______ _______ _____ _____    ______ ____
ROOT
ATOM      1  C   UNL     1       4.237  -3.725  -0.877  0.00  0.00    +0.000 C 
ENDROOT
BRANCH   1   2
ATOM      2  C   UNL     1       3.341  -3.804   0.376  0.00  0.00    +0.000 C 
ATOM      3  C   UNL     1       2.608  -5.149   0.508  0.00  0.00    +0.000 C 
ATOM      4  C   UNL     1       3.513  -6.289   0.970  0.00  0.00    +0.000 C 
ATOM      5  C   UNL     1       4.218  -5.986   2.304  0.00  0.00    +0.000 C 
ATOM      6  C   UNL     1       4.969  -4.649   2.199  0.00  0.00    +0.000 C 
ATOM      7  C   UNL     1       4.135  -3.486   1.658  0.00  0.00    +0.000 C 
BRANCH   5   8
ATOM      8  C   UNL     1       3.263  -6.063   3.525  0.00  0.00    +0.000 C 
BRANCH   8   9
ATOM      9  N   UNL     1       2.731  -7.425   3.623  0.00  0.00    +0.000 NA
ATOM     10  H   UNL     1       3.500  -8.091   3.697  0.00  0.00    +0.000 HD
BRANCH   9  11
ATOM     11  C   UNL     1       1.819  -7.635   4.745  0.00  0.00    +0.000 C 
BRANCH  11  12
ATOM     12  C   UNL     1       1.300  -9.052   4.730  0.00  0.00    +0.000 A 
ATOM     13  C   UNL     1       0.581  -9.553   3.637  0.00  0.00    +0.000 A 
ATOM     14  C   UNL     1       0.132 -10.871   3.640  0.00  0.00    +0.000 A 
ATOM     15  C   UNL     1       0.411 -11.653   4.747  0.00  0.00    +0.000 A 
ATOM     16  N   UNL     1       1.095 -11.211   5.825  0.00  0.00    +0.000 NA
ATOM     17  C   UNL     1       1.523  -9.926   5.790  0.00  0.00    +0.000 A 
ENDBRANCH  11  12
ENDBRANCH   9  11
ENDBRANCH   8   9
ENDBRANCH   5   8
ENDBRANCH   1   2
BRANCH   1  20
ATOM     18  O   UNL     1       2.934  -1.656  -2.306  0.00  0.00    +0.000 OA
ATOM     19  C   UNL     1       2.919  -2.791  -2.764  0.00  0.00    +0.000 C 
ATOM     20  N   UNL     1       3.494  -3.868  -2.118  0.00  0.00    +0.000 N 
ATOM     21  H   UNL     1       3.462  -4.780  -2.550  0.00  0.00    +0.000 HD
BRANCH  19  22
ATOM     22  C   UNL     1       2.264  -3.116  -4.035  0.00  0.00    +0.000 A 
ATOM     23  C   UNL     1       1.577  -4.297  -4.269  0.00  0.00    +0.000 A 
ATOM     24  S   UNL     1       0.839  -4.355  -5.810  0.00  0.00    +0.000 S 
ATOM     25  C   UNL     1       1.410  -2.802  -6.210  0.00  0.00    +0.000 A 
ATOM     26  N   UNL     1       1.115  -2.226  -7.405  0.00  0.00    +0.000 NA
ATOM     27  C   UNL     1       1.613  -1.040  -7.562  0.00  0.00    +0.000 A 
ATOM     28  N   UNL     1       2.387  -0.392  -6.639  0.00  0.00    +0.000 N 
ATOM     29  C   UNL     1       2.796  -0.976  -5.457  0.00  0.00    +0.000 A 
ATOM     30  O   UNL     1       3.661  -0.448  -4.770  0.00  0.00    +0.000 OA
ATOM     31  C   UNL     1       2.186  -2.265  -5.198  0.00  0.00    +0.000 A 
ATOM     32  H   UNL     1       2.803   0.501  -6.851  0.00  0.00    +0.000 HD
ENDBRANCH  19  22
ENDBRANCH   1  20
TORSDOF 7
