REMARK  Name = 
REMARK  8 active torsions:
REMARK  status: ('A' for Active; 'I' for Inactive)
REMARK    1  A    between atoms: C_1  and  C_2
REMARK    2  A    between atoms: C_2  and  O_3
REMARK    3  A    between atoms: C_5  and  O_6
REMARK    4  A    between atoms: O_6  and  C_7
REMARK    5  A    between atoms: C_11  and  C_12
REMARK    6  A    between atoms: C_12  and  C_13
REMARK    7  A    between atoms: C_13  and  N_14
REMARK    8  A    between atoms: C_19  and  C_20
REMARK                            x       y       z     vdW  Elec       q    Type
REMARK                         _______ _______ _______ _____ _____    ______ ____
ROOT
ATOM      1  C   UNL     1       8.344  -1.907   5.422  0.00  0.00    +0.000 C 
ENDROOT
BRANCH   1   6
ATOM      2  C   UNL     1       5.682  -1.145   2.743  0.00  0.00    +0.000 A 
ATOM      3  C   UNL     1       5.822  -2.252   1.912  0.00  0.00    +0.000 A 
ATOM      4  C   UNL     1       6.710  -3.270   2.260  0.00  0.00    +0.000 A 
ATOM      5  C   UNL     1       7.492  -3.163   3.414  0.00  0.00    +0.000 A 
ATOM      6  C   UNL     1       7.409  -2.026   4.229  0.00  0.00    +0.000 A 
ATOM      7  C   UNL     1       6.476  -1.031   3.883  0.00  0.00    +0.000 A 
BRANCH   2   8
ATOM      8  O   UNL     1       4.798  -0.114   2.523  0.00  0.00    +0.000 OA
BRANCH   8  12
ATOM      9  C   UNL     1       0.275  -0.517   2.771  0.00  0.00    +0.000 C 
ATOM     10  C   UNL     1       1.471  -0.603   1.838  0.00  0.00    +0.000 C 
ATOM     11  C   UNL     1       2.640  -1.457   2.382  0.00  0.00    +0.000 C 
ATOM     12  C   UNL     1       3.608  -0.416   1.762  0.00  0.00    +0.000 C 
ATOM     13  C   UNL     1       2.449   0.605   1.875  0.00  0.00    +0.000 C 
BRANCH  10  14
ATOM     14  O   UNL     1       1.020  -0.967   0.514  0.00  0.00    +0.000 OA
ATOM     15  H   UNL     1       0.601  -1.839   0.614  0.00  0.00    +0.000 HD
ENDBRANCH  10  14
ENDBRANCH   8  12
ENDBRANCH   2   8
ENDBRANCH   1   6
BRANCH   1  16
ATOM     16  C   UNL     1       8.171  -0.607   6.208  0.00  0.00    +0.000 C 
BRANCH  16  17
ATOM     17  N   UNL     1       9.108  -0.468   7.327  0.00  0.00    +0.000 N 
ATOM     18  C   UNL     1       8.893   0.756   8.007  0.00  0.00    +0.000 A 
ATOM     19  C   UNL     1       9.686   1.100   9.108  0.00  0.00    +0.000 A 
ATOM     20  N   UNL     1       9.543   2.250   9.818  0.00  0.00    +0.000 NA
ATOM     21  C   UNL     1       8.542   3.064   9.389  0.00  0.00    +0.000 A 
ATOM     22  C   UNL     1       7.742   2.734   8.310  0.00  0.00    +0.000 A 
ATOM     23  N   UNL     1       7.899   1.581   7.607  0.00  0.00    +0.000 NA
ATOM     24  H   UNL     1      10.080  -0.506   7.025  0.00  0.00    +0.000 HD
BRANCH  22  25
ATOM     25  C   UNL     1       6.666   3.660   7.862  0.00  0.00    +0.000 C 
ATOM     26  N   UNL     1       5.936   3.263   6.775  0.00  0.00    +0.000 N 
ATOM     27  O   UNL     1       6.445   4.722   8.429  0.00  0.00    +0.000 OA
ATOM     28  H   UNL     1       6.131   2.379   6.316  0.00  0.00    +0.000 HD
ATOM     29  H   UNL     1       5.198   3.860   6.429  0.00  0.00    +0.000 HD
ENDBRANCH  22  25
ENDBRANCH  16  17
ENDBRANCH   1  16
TORSDOF 7
