REMARK  Name = 
REMARK  10 active torsions:
REMARK  status: ('A' for Active; 'I' for Inactive)
REMARK    1  A    between atoms: C_1  and  C_2
REMARK    2  A    between atoms: C_2  and  C_3
REMARK    3  A    between atoms: C_3  and  N_4
REMARK    4  A    between atoms: C_3  and  C_18
REMARK    5  A    between atoms: C_5  and  C_7
REMARK    6  A    between atoms: N_13  and  C_14
REMARK    7  A    between atoms: C_21  and  C_22
REMARK    8  A    between atoms: C_22  and  N_23
REMARK    9  A    between atoms: C_22  and  C_24
REMARK   10  A    between atoms: C_24  and  C_25
REMARK                            x       y       z     vdW  Elec       q    Type
REMARK                         _______ _______ _______ _____ _____    ______ ____
ROOT
ATOM      1  C   UNL     1      10.019   3.746   3.890  0.00  0.00    +0.000 C 
ENDROOT
BRANCH   1   2
ATOM      2  C   UNL     1       9.796   3.003   2.575  0.00  0.00    +0.000 A 
ATOM      3  C   UNL     1       9.359   3.713   1.446  0.00  0.00    +0.000 A 
ATOM      4  C   UNL     1       8.980   3.041   0.279  0.00  0.00    +0.000 A 
ATOM      5  C   UNL     1       9.059   1.644   0.194  0.00  0.00    +0.000 A 
ATOM      6  C   UNL     1       9.543   0.939   1.302  0.00  0.00    +0.000 A 
ATOM      7  C   UNL     1       9.894   1.607   2.475  0.00  0.00    +0.000 A 
BRANCH   5   8
ATOM      8  C   UNL     1       8.585   0.927  -1.060  0.00  0.00    +0.000 C 
BRANCH   8   9
ATOM      9  N   UNL     1       7.402   0.117  -0.757  0.00  0.00    +0.000 NA
ATOM     10  H   UNL     1       7.639  -0.590  -0.065  0.00  0.00    +0.000 HD
ATOM     11  H   UNL     1       7.091  -0.380  -1.587  0.00  0.00    +0.000 HD
ENDBRANCH   8   9
BRANCH   8  12
ATOM     12  C   UNL     1       9.716   0.095  -1.709  0.00  0.00    +0.000 C 
BRANCH  12  13
ATOM     13  C   UNL     1       9.349  -0.520  -3.078  0.00  0.00    +0.000 C 
ATOM     14  C   UNL     1      10.499  -1.339  -3.659  0.00  0.00    +0.000 C 
ATOM     15  C   UNL     1      11.314  -0.300  -4.397  0.00  0.00    +0.000 C 
ATOM     16  N   UNL     1      10.306   0.555  -5.028  0.00  0.00    +0.000 NA
ATOM     17  C   UNL     1       9.115   0.535  -4.165  0.00  0.00    +0.000 C 
ATOM     18  H   UNL     1      10.054   0.151  -5.931  0.00  0.00    +0.000 HD
ENDBRANCH  12  13
ENDBRANCH   8  12
ENDBRANCH   5   8
ENDBRANCH   1   2
BRANCH   1  19
ATOM     19  N   UNL     1      11.146   3.169   4.612  0.00  0.00    +0.000 N 
ATOM     20  C   UNL     1      11.980   3.861   5.447  0.00  0.00    +0.000 C 
ATOM     21  O   UNL     1      11.925   5.077   5.585  0.00  0.00    +0.000 OA
ATOM     22  H   UNL     1      11.113   2.166   4.731  0.00  0.00    +0.000 HD
BRANCH  20  23
ATOM     23  C   UNL     1      12.996   3.046   6.143  0.00  0.00    +0.000 A 
ATOM     24  C   UNL     1      14.197   3.622   6.527  0.00  0.00    +0.000 A 
ATOM     25  S   UNL     1      15.254   2.540   7.316  0.00  0.00    +0.000 S 
ATOM     26  C   UNL     1      14.127   1.268   7.208  0.00  0.00    +0.000 A 
ATOM     27  N   UNL     1      14.395   0.049   7.734  0.00  0.00    +0.000 NA
ATOM     28  C   UNL     1      13.453  -0.822   7.586  0.00  0.00    +0.000 A 
ATOM     29  N   UNL     1      12.252  -0.600   6.942  0.00  0.00    +0.000 N 
ATOM     30  C   UNL     1      11.286  -1.666   6.786  0.00  0.00    +0.000 C 
ATOM     31  C   UNL     1      11.953   0.637   6.373  0.00  0.00    +0.000 A 
ATOM     32  O   UNL     1      10.921   0.833   5.743  0.00  0.00    +0.000 OA
ATOM     33  C   UNL     1      12.976   1.654   6.542  0.00  0.00    +0.000 A 
ENDBRANCH  20  23
ENDBRANCH   1  19
BRANCH   1  35
ATOM     34  C   UNL     1       7.510   4.319   4.138  0.00  0.00    +0.000 C 
ATOM     35  C   UNL     1       8.748   3.686   4.769  0.00  0.00    +0.000 C 
ENDBRANCH   1  35
TORSDOF 8
