REMARK  Name = 
REMARK  6 active torsions:
REMARK  status: ('A' for Active; 'I' for Inactive)
REMARK    1  A    between atoms: N_1  and  C_2
REMARK    2  A    between atoms: C_2  and  C_3
REMARK    3  A    between atoms: C_3  and  N_4
REMARK    4  A    between atoms: C_3  and  C_5
REMARK    5  A    between atoms: C_8  and  O_9
REMARK    6  A    between atoms: O_9  and  C_10
REMARK                            x       y       z     vdW  Elec       q    Type
REMARK                         _______ _______ _______ _____ _____    ______ ____
ROOT
ATOM      1  C   UNL     1       4.690  -0.152   1.332  0.00  0.00    +0.000 A 
ATOM      2  C   UNL     1       5.456  -1.079   0.631  0.00  0.00    +0.000 A 
ATOM      3  C   UNL     1       6.838  -0.917   0.562  0.00  0.00    +0.000 A 
ATOM      4  C   UNL     1       7.414   0.168   1.205  0.00  0.00    +0.000 A 
ATOM      5  N   UNL     1       6.708   1.087   1.908  0.00  0.00    +0.000 NA
ATOM      6  C   UNL     1       5.370   0.890   1.972  0.00  0.00    +0.000 A 
ENDROOT
BRANCH   1   7
ATOM      7  C   UNL     1       3.178  -0.176   1.355  0.00  0.00    +0.000 C 
BRANCH   7   8
ATOM      8  N   UNL     1       2.642  -1.380   2.015  0.00  0.00    +0.000 NA
ATOM      9  H   UNL     1       2.946  -2.197   1.493  0.00  0.00    +0.000 HD
ATOM     10  H   UNL     1       1.629  -1.354   1.861  0.00  0.00    +0.000 HD
ENDBRANCH   7   8
BRANCH   7  11
ATOM     11  C   UNL     1       2.586  -0.023  -0.078  0.00  0.00    +0.000 C 
BRANCH  11  12
ATOM     12  N   UNL     1       1.116   0.029  -0.068  0.00  0.00    +0.000 NA
ATOM     13  H   UNL     1       0.788   0.171  -1.024  0.00  0.00    +0.000 HD
ATOM     14  H   UNL     1       0.820   0.858   0.449  0.00  0.00    +0.000 HD
ENDBRANCH  11  12
ENDBRANCH   7  11
ENDBRANCH   1   7
BRANCH   4  15
ATOM     15  O   UNL     1       8.750   0.403   0.951  0.00  0.00    +0.000 OA
BRANCH  15  16
ATOM     16  C   UNL     1       9.524   0.894   1.936  0.00  0.00    +0.000 A 
ATOM     17  C   UNL     1      10.308   2.013   1.774  0.00  0.00    +0.000 A 
ATOM     18  N   UNL     1      10.944   2.228   2.970  0.00  0.00    +0.000 N 
ATOM     19  C   UNL     1      10.830   1.106   3.759  0.00  0.00    +0.000 A 
ATOM     20  C   UNL     1      11.521   0.706   4.901  0.00  0.00    +0.000 A 
ATOM     21  C   UNL     1      11.136  -0.517   5.441  0.00  0.00    +0.000 A 
ATOM     22  C   UNL     1      10.083  -1.216   4.865  0.00  0.00    +0.000 A 
ATOM     23  N   UNL     1       9.420  -0.858   3.745  0.00  0.00    +0.000 NA
ATOM     24  C   UNL     1       9.840   0.305   3.187  0.00  0.00    +0.000 A 
ATOM     25  H   UNL     1      11.493   3.044   3.200  0.00  0.00    +0.000 HD
ENDBRANCH  15  16
ENDBRANCH   4  15
TORSDOF 6
