REMARK  Name = 
REMARK  5 active torsions:
REMARK  status: ('A' for Active; 'I' for Inactive)
REMARK    1  A    between atoms: C_2  and  C_4
REMARK    2  A    between atoms: C_8  and  N_9
REMARK    3  A    between atoms: N_9  and  C_10
REMARK    4  A    between atoms: C_10  and  C_11
REMARK    5  A    between atoms: C_15  and  C_16
REMARK                            x       y       z     vdW  Elec       q    Type
REMARK                         _______ _______ _______ _____ _____    ______ ____
ROOT
ATOM      1  C   UNL     1       2.009   2.472   4.454  0.00  0.00    +0.000 C 
ATOM      2  C   UNL     1       1.679   1.044   4.889  0.00  0.00    +0.000 C 
ATOM      3  C   UNL     1       0.849   1.706   3.842  0.00  0.00    +0.000 C 
ENDROOT
BRANCH   1   4
ATOM      4  C   UNL     1       1.634   3.614   5.396  0.00  0.00    +0.000 A 
ATOM      5  C   UNL     1       1.006   4.777   4.922  0.00  0.00    +0.000 A 
ATOM      6  C   UNL     1       0.530   5.753   5.793  0.00  0.00    +0.000 A 
ATOM      7  C   UNL     1       0.650   5.572   7.168  0.00  0.00    +0.000 A 
ATOM      8  C   UNL     1       1.260   4.425   7.700  0.00  0.00    +0.000 A 
ATOM      9  C   UNL     1       1.796   3.494   6.791  0.00  0.00    +0.000 A 
BRANCH   8  10
ATOM     10  C   UNL     1       1.225   4.133   9.149  0.00  0.00    +0.000 A 
ATOM     11  C   UNL     1       0.081   4.435   9.903  0.00  0.00    +0.000 A 
ATOM     12  C   UNL     1       0.029   4.079  11.242  0.00  0.00    +0.000 A 
ATOM     13  N   UNL     1       1.026   3.441  11.883  0.00  0.00    +0.000 NA
ATOM     14  C   UNL     1       2.121   3.151  11.153  0.00  0.00    +0.000 A 
ATOM     15  C   UNL     1       2.268   3.476   9.811  0.00  0.00    +0.000 A 
ENDBRANCH   8  10
ENDBRANCH   1   4
BRANCH   1  16
ATOM     16  N   UNL     1       3.316   2.613   3.784  0.00  0.00    +0.000 N 
ATOM     17  H   UNL     1       4.106   2.703   4.420  0.00  0.00    +0.000 HD
BRANCH  16  22
ATOM     18  C   UNL     1       2.813   4.446   0.567  0.00  0.00    +0.000 A 
ATOM     19  C   UNL     1       4.143   4.563   0.192  0.00  0.00    +0.000 A 
ATOM     20  N   UNL     1       5.166   4.057   0.916  0.00  0.00    +0.000 NA
ATOM     21  C   UNL     1       4.831   3.445   2.078  0.00  0.00    +0.000 A 
ATOM     22  C   UNL     1       3.531   3.311   2.581  0.00  0.00    +0.000 A 
ATOM     23  C   UNL     1       2.511   3.794   1.764  0.00  0.00    +0.000 A 
BRANCH  18  25
ATOM     24  N   UNL     1       1.902   5.163  -1.576  0.00  0.00    +0.000 N 
ATOM     25  C   UNL     1       1.716   5.041  -0.230  0.00  0.00    +0.000 C 
ATOM     26  O   UNL     1       0.668   5.390   0.301  0.00  0.00    +0.000 OA
ATOM     27  H   UNL     1       1.102   5.486  -2.105  0.00  0.00    +0.000 HD
ATOM     28  H   UNL     1       2.624   4.671  -2.082  0.00  0.00    +0.000 HD
ENDBRANCH  18  25
ENDBRANCH  16  22
ENDBRANCH   1  16
TORSDOF 5
