REMARK  Name = 
REMARK  7 active torsions:
REMARK  status: ('A' for Active; 'I' for Inactive)
REMARK    1  A    between atoms: C_2  and  C_20
REMARK    2  A    between atoms: N_3  and  C_4
REMARK    3  A    between atoms: C_4  and  C_5
REMARK    4  A    between atoms: C_8  and  C_9
REMARK    5  A    between atoms: C_9  and  C_10
REMARK    6  A    between atoms: C_10  and  O_11
REMARK    7  A    between atoms: C_10  and  C_12
REMARK                            x       y       z     vdW  Elec       q    Type
REMARK                         _______ _______ _______ _____ _____    ______ ____
ROOT
ATOM      1  C   UNL     1       3.199   2.523  -2.527  0.00  0.00    +0.000 A 
ATOM      2  C   UNL     1       3.005   3.904  -2.557  0.00  0.00    +0.000 A 
ATOM      3  C   UNL     1       3.854   4.706  -3.315  0.00  0.00    +0.000 A 
ATOM      4  C   UNL     1       4.906   4.110  -4.006  0.00  0.00    +0.000 A 
ATOM      5  N   UNL     1       5.123   2.773  -3.983  0.00  0.00    +0.000 NA
ATOM      6  C   UNL     1       4.276   2.017  -3.244  0.00  0.00    +0.000 A 
ENDROOT
BRANCH   1   7
ATOM      7  C   UNL     1       2.301   1.616  -1.741  0.00  0.00    +0.000 C 
BRANCH   7  10
ATOM      8  O   UNL     1       3.890  -0.475  -0.734  0.00  0.00    +0.000 OA
ATOM      9  C   UNL     1       3.551   0.432   0.023  0.00  0.00    +0.000 C 
ATOM     10  N   UNL     1       2.748   1.465  -0.383  0.00  0.00    +0.000 N 
ATOM     11  H   UNL     1       2.653   2.281   0.217  0.00  0.00    +0.000 HD
BRANCH   9  12
ATOM     12  C   UNL     1       3.941   0.440   1.437  0.00  0.00    +0.000 A 
ATOM     13  C   UNL     1       4.254  -0.751   2.080  0.00  0.00    +0.000 A 
ATOM     14  S   UNL     1       4.636  -0.554   3.732  0.00  0.00    +0.000 S 
ATOM     15  C   UNL     1       4.445   1.135   3.633  0.00  0.00    +0.000 A 
ATOM     16  N   UNL     1       4.648   1.929   4.719  0.00  0.00    +0.000 NA
ATOM     17  C   UNL     1       4.514   3.192   4.488  0.00  0.00    +0.000 A 
ATOM     18  N   UNL     1       4.188   3.734   3.270  0.00  0.00    +0.000 N 
ATOM     19  C   UNL     1       3.896   2.967   2.171  0.00  0.00    +0.000 A 
ATOM     20  O   UNL     1       3.464   3.475   1.141  0.00  0.00    +0.000 OA
ATOM     21  C   UNL     1       4.075   1.541   2.366  0.00  0.00    +0.000 A 
ATOM     22  H   UNL     1       4.069   4.730   3.163  0.00  0.00    +0.000 HD
ENDBRANCH   9  12
ENDBRANCH   7  10
ENDBRANCH   1   7
BRANCH   4  23
ATOM     23  C   UNL     1       5.856   4.936  -4.842  0.00  0.00    +0.000 C 
BRANCH  23  24
ATOM     24  C   UNL     1       6.638   5.980  -4.021  0.00  0.00    +0.000 C 
BRANCH  24  25
ATOM     25  C   UNL     1       7.583   6.862  -4.878  0.00  0.00    +0.000 C 
ATOM     26  C   UNL     1       8.373   7.860  -4.002  0.00  0.00    +0.000 C 
ATOM     27  C   UNL     1       7.480   8.984  -3.476  0.00  0.00    +0.000 C 
ATOM     28  N   UNL     1       6.835   9.709  -4.575  0.00  0.00    +0.000 NA
ATOM     29  C   UNL     1       6.036   8.814  -5.413  0.00  0.00    +0.000 C 
ATOM     30  C   UNL     1       6.868   7.663  -5.979  0.00  0.00    +0.000 C 
ATOM     31  H   UNL     1       7.561  10.138  -5.149  0.00  0.00    +0.000 HD
ENDBRANCH  24  25
BRANCH  24  32
ATOM     32  O   UNL     1       7.440   5.326  -3.028  0.00  0.00    +0.000 OA
ATOM     33  H   UNL     1       7.792   4.503  -3.412  0.00  0.00    +0.000 HD
ENDBRANCH  24  32
ENDBRANCH  23  24
ENDBRANCH   4  23
TORSDOF 7
