REMARK  Name = 
REMARK  8 active torsions:
REMARK  status: ('A' for Active; 'I' for Inactive)
REMARK    1  A    between atoms: C_1  and  C_2
REMARK    2  A    between atoms: C_2  and  C_3
REMARK    3  A    between atoms: C_2  and  C_14
REMARK    4  A    between atoms: C_3  and  O_4
REMARK    5  A    between atoms: O_4  and  C_5
REMARK    6  A    between atoms: C_8  and  C_9
REMARK    7  A    between atoms: C_18  and  S_19
REMARK    8  A    between atoms: S_19  and  C_20
REMARK                            x       y       z     vdW  Elec       q    Type
REMARK                         _______ _______ _______ _____ _____    ______ ____
ROOT
ATOM      1  C   UNL     1       3.029  -1.454  -0.259  0.00  0.00    +0.000 C 
ENDROOT
BRANCH   1   3
ATOM      2  C   UNL     1       0.892  -0.070   0.127  0.00  0.00    +0.000 C 
ATOM      3  C   UNL     1       2.342  -0.114  -0.246  0.00  0.00    +0.000 C 
BRANCH   3   4
ATOM      4  C   UNL     1       2.913   0.979  -1.058  0.00  0.00    +0.000 A 
ATOM      5  C   UNL     1       4.258   1.351  -0.914  0.00  0.00    +0.000 A 
ATOM      6  C   UNL     1       4.800   2.403  -1.661  0.00  0.00    +0.000 A 
ATOM      7  C   UNL     1       4.011   3.087  -2.583  0.00  0.00    +0.000 A 
ATOM      8  C   UNL     1       2.684   2.696  -2.760  0.00  0.00    +0.000 A 
ATOM      9  C   UNL     1       2.127   1.669  -1.991  0.00  0.00    +0.000 A 
BRANCH   8  10
ATOM     10  S   UNL     1       1.680   3.523  -3.969  0.00  0.00    +0.000 S 
ATOM     11  C   UNL     1       1.981   2.585  -5.446  0.00  0.00    +0.000 C 
ATOM     12  O   UNL     1       0.291   3.335  -3.592  0.00  0.00    +0.000 OA
ATOM     13  O   UNL     1       2.226   4.853  -4.158  0.00  0.00    +0.000 OA
ENDBRANCH   8  10
ENDBRANCH   3   4
ENDBRANCH   1   3
BRANCH   1  14
ATOM     14  O   UNL     1       2.953  -2.073   1.032  0.00  0.00    +0.000 OA
BRANCH  14  15
ATOM     15  C   UNL     1       3.509  -3.338   1.020  0.00  0.00    +0.000 A 
ATOM     16  C   UNL     1       3.517  -4.081   2.196  0.00  0.00    +0.000 A 
ATOM     17  N   UNL     1       4.040  -5.338   2.278  0.00  0.00    +0.000 NA
ATOM     18  C   UNL     1       4.556  -5.816   1.106  0.00  0.00    +0.000 A 
ATOM     19  C   UNL     1       4.549  -5.074  -0.064  0.00  0.00    +0.000 A 
ATOM     20  N   UNL     1       4.029  -3.824  -0.132  0.00  0.00    +0.000 NA
BRANCH  18  21
ATOM     21  C   UNL     1       5.148  -7.183   1.090  0.00  0.00    +0.000 C 
ATOM     22  N   UNL     1       5.130  -7.863   2.276  0.00  0.00    +0.000 N 
ATOM     23  O   UNL     1       5.623  -7.672   0.074  0.00  0.00    +0.000 OA
ATOM     24  H   UNL     1       4.732  -7.438   3.103  0.00  0.00    +0.000 HD
ATOM     25  H   UNL     1       5.523  -8.795   2.315  0.00  0.00    +0.000 HD
ENDBRANCH  18  21
ENDBRANCH  14  15
ENDBRANCH   1  14
TORSDOF 6
