REMARK  Name = 
REMARK  7 active torsions:
REMARK  status: ('A' for Active; 'I' for Inactive)
REMARK    1  A    between atoms: C_2  and  C_20
REMARK    2  A    between atoms: N_3  and  C_4
REMARK    3  A    between atoms: C_4  and  C_5
REMARK    4  A    between atoms: C_7  and  C_8
REMARK    5  A    between atoms: C_8  and  N_9
REMARK    6  A    between atoms: N_9  and  C_10
REMARK    7  A    between atoms: C_13  and  O_14
REMARK                            x       y       z     vdW  Elec       q    Type
REMARK                         _______ _______ _______ _____ _____    ______ ____
ROOT
ATOM      1  C   UNL     1       2.558  12.291   3.794  0.00  0.00    +0.000 A 
ATOM      2  C   UNL     1       2.411  11.364   2.772  0.00  0.00    +0.000 A 
ATOM      3  C   UNL     1       2.576  11.798   1.457  0.00  0.00    +0.000 A 
ATOM      4  C   UNL     1       2.880  13.131   1.226  0.00  0.00    +0.000 A 
ATOM      5  C   UNL     1       3.031  13.982   2.307  0.00  0.00    +0.000 A 
ATOM      6  N   UNL     1       2.881  13.591   3.593  0.00  0.00    +0.000 NA
ENDROOT
BRANCH   1   7
ATOM      7  C   UNL     1       2.385  11.805   5.208  0.00  0.00    +0.000 C 
BRANCH   7  10
ATOM      8  O   UNL     1       3.250   9.195   5.013  0.00  0.00    +0.000 OA
ATOM      9  C   UNL     1       3.963  10.003   5.574  0.00  0.00    +0.000 C 
ATOM     10  N   UNL     1       3.624  11.328   5.755  0.00  0.00    +0.000 N 
ATOM     11  H   UNL     1       4.321  12.009   6.001  0.00  0.00    +0.000 HD
BRANCH   9  12
ATOM     12  C   UNL     1       5.251   9.660   6.162  0.00  0.00    +0.000 A 
ATOM     13  C   UNL     1       5.766  10.273   7.292  0.00  0.00    +0.000 A 
ATOM     14  S   UNL     1       7.259   9.601   7.783  0.00  0.00    +0.000 S 
ATOM     15  C   UNL     1       7.244   8.491   6.490  0.00  0.00    +0.000 A 
ATOM     16  N   UNL     1       8.254   7.602   6.297  0.00  0.00    +0.000 NA
ATOM     17  C   UNL     1       8.108   6.837   5.281  0.00  0.00    +0.000 A 
ATOM     18  N   UNL     1       7.024   6.852   4.428  0.00  0.00    +0.000 N 
ATOM     19  C   UNL     1       6.014   7.777   4.530  0.00  0.00    +0.000 A 
ATOM     20  O   UNL     1       5.172   7.859   3.651  0.00  0.00    +0.000 OA
ATOM     21  C   UNL     1       6.126   8.634   5.694  0.00  0.00    +0.000 A 
ATOM     22  H   UNL     1       6.995   6.237   3.627  0.00  0.00    +0.000 HD
ENDBRANCH   9  12
ENDBRANCH   7  10
ENDBRANCH   1   7
BRANCH   3  23
ATOM     23  C   UNL     1       2.220  10.863   0.348  0.00  0.00    +0.000 C 
BRANCH  23  24
ATOM     24  N   UNL     1       3.208  10.588  -0.704  0.00  0.00    +0.000 NA
ATOM     25  H   UNL     1       4.000  10.111  -0.264  0.00  0.00    +0.000 HD
BRANCH  24  26
ATOM     26  C   UNL     1       2.562   9.648  -1.668  0.00  0.00    +0.000 C 
ATOM     27  C   UNL     1       1.305  10.177  -2.422  0.00  0.00    +0.000 C 
ATOM     28  C   UNL     1       0.733   9.081  -3.342  0.00  0.00    +0.000 C 
ATOM     29  C   UNL     1       1.772   8.530  -4.320  0.00  0.00    +0.000 C 
ATOM     30  C   UNL     1       3.015   8.069  -3.583  0.00  0.00    +0.000 C 
ATOM     31  C   UNL     1       3.582   9.175  -2.715  0.00  0.00    +0.000 C 
BRANCH  29  32
ATOM     32  O   UNL     1       1.235   7.427  -5.043  0.00  0.00    +0.000 OA
ATOM     33  H   UNL     1       1.452   6.611  -4.560  0.00  0.00    +0.000 HD
ENDBRANCH  29  32
ENDBRANCH  24  26
ENDBRANCH  23  24
ENDBRANCH   3  23
TORSDOF 7
