REMARK  Name = 
REMARK  7 active torsions:
REMARK  status: ('A' for Active; 'I' for Inactive)
REMARK    1  A    between atoms: C_1  and  O_2
REMARK    2  A    between atoms: O_2  and  C_3
REMARK    3  A    between atoms: C_10  and  C_11
REMARK    4  A    between atoms: N_13  and  C_14
REMARK    5  A    between atoms: C_14  and  C_15
REMARK    6  A    between atoms: N_19  and  C_20
REMARK    7  A    between atoms: C_20  and  C_21
REMARK                            x       y       z     vdW  Elec       q    Type
REMARK                         _______ _______ _______ _____ _____    ______ ____
ROOT
ATOM      1  C   UNL     1       4.971  -3.230  -2.965  0.00  0.00    +0.000 C 
ENDROOT
BRANCH   1   2
ATOM      2  C   UNL     1       5.810  -3.851  -4.041  0.00  0.00    +0.000 A 
ATOM      3  C   UNL     1       6.547  -3.081  -4.937  0.00  0.00    +0.000 A 
ATOM      4  C   UNL     1       7.219  -3.705  -5.989  0.00  0.00    +0.000 A 
ATOM      5  C   UNL     1       7.192  -5.093  -6.103  0.00  0.00    +0.000 A 
ATOM      6  N   UNL     1       7.765  -5.666  -7.260  0.00  0.00    +0.000 N 
ATOM      7  N   UNL     1       6.542  -5.854  -5.202  0.00  0.00    +0.000 NA
ATOM      8  C   UNL     1       5.864  -5.228  -4.210  0.00  0.00    +0.000 A 
ATOM      9  H   UNL     1       7.124  -5.444  -8.017  0.00  0.00    +0.000 HD
BRANCH   6  10
ATOM     10  C   UNL     1       8.004  -7.109  -7.157  0.00  0.00    +0.000 C 
BRANCH  10  11
ATOM     11  C   UNL     1       8.432  -7.702  -8.520  0.00  0.00    +0.000 C 
ATOM     12  C   UNL     1       7.305  -7.716  -9.569  0.00  0.00    +0.000 C 
ATOM     13  C   UNL     1       6.196  -8.694  -9.186  0.00  0.00    +0.000 C 
ATOM     14  C   UNL     1       6.756 -10.082  -8.875  0.00  0.00    +0.000 C 
ATOM     15  N   UNL     1       7.851 -10.043  -7.904  0.00  0.00    +0.000 NA
ATOM     16  C   UNL     1       8.928  -9.148  -8.330  0.00  0.00    +0.000 C 
ATOM     17  H   UNL     1       8.221 -10.985  -7.776  0.00  0.00    +0.000 HD
ENDBRANCH  10  11
ENDBRANCH   6  10
ENDBRANCH   1   2
BRANCH   1  20
ATOM     18  C   UNL     1       5.094  -2.387  -0.684  0.00  0.00    +0.000 C 
ATOM     19  O   UNL     1       3.939  -1.974  -0.741  0.00  0.00    +0.000 OA
ATOM     20  N   UNL     1       5.721  -2.934  -1.775  0.00  0.00    +0.000 N 
ATOM     21  H   UNL     1       6.615  -3.393  -1.643  0.00  0.00    +0.000 HD
BRANCH  18  29
ATOM     22  C   UNL     1       7.596  -4.287   0.546  0.00  0.00    +0.000 A 
ATOM     23  N   UNL     1       8.607  -4.897   1.208  0.00  0.00    +0.000 NA
ATOM     24  C   UNL     1       9.027  -4.396   2.380  0.00  0.00    +0.000 A 
ATOM     25  C   UNL     1       8.488  -3.279   2.977  0.00  0.00    +0.000 A 
ATOM     26  C   UNL     1       7.443  -2.650   2.288  0.00  0.00    +0.000 A 
ATOM     27  S   UNL     1       6.585  -1.261   2.821  0.00  0.00    +0.000 S 
ATOM     28  C   UNL     1       5.579  -1.277   1.457  0.00  0.00    +0.000 A 
ATOM     29  C   UNL     1       5.883  -2.281   0.553  0.00  0.00    +0.000 A 
ATOM     30  C   UNL     1       6.976  -3.119   1.051  0.00  0.00    +0.000 A 
BRANCH  22  32
ATOM     31  C   UNL     1       7.585  -6.172  -0.841  0.00  0.00    +0.000 C 
ATOM     32  O   UNL     1       7.203  -4.810  -0.669  0.00  0.00    +0.000 OA
ENDBRANCH  22  32
ENDBRANCH  18  29
ENDBRANCH   1  20
TORSDOF 6
