REMARK  Name = 
REMARK  8 active torsions:
REMARK  status: ('A' for Active; 'I' for Inactive)
REMARK    1  A    between atoms: C_1  and  O_2
REMARK    2  A    between atoms: O_2  and  C_3
REMARK    3  A    between atoms: C_5  and  N_6
REMARK    4  A    between atoms: N_6  and  C_7
REMARK    5  A    between atoms: C_7  and  C_8
REMARK    6  A    between atoms: C_12  and  C_13
REMARK    7  A    between atoms: C_17  and  C_18
REMARK    8  A    between atoms: C_22  and  C_23
REMARK                            x       y       z     vdW  Elec       q    Type
REMARK                         _______ _______ _______ _____ _____    ______ ____
ROOT
ATOM      1  N   UNL     1       3.131  -2.014  -4.274  0.00  0.00    +0.000 N 
ATOM      2  H   UNL     1       3.555  -2.823  -4.715  0.00  0.00    +0.000 HD
ENDROOT
BRANCH   1   5
ATOM      3  C   UNL     1       3.170  -0.851  -0.771  0.00  0.00    +0.000 A 
ATOM      4  C   UNL     1       2.756  -1.034  -2.086  0.00  0.00    +0.000 A 
ATOM      5  C   UNL     1       3.457  -1.888  -2.936  0.00  0.00    +0.000 A 
ATOM      6  N   UNL     1       4.535  -2.573  -2.508  0.00  0.00    +0.000 NA
ATOM      7  C   UNL     1       4.928  -2.377  -1.211  0.00  0.00    +0.000 A 
ATOM      8  C   UNL     1       4.285  -1.534  -0.321  0.00  0.00    +0.000 A 
BRANCH   7   9
ATOM      9  C   UNL     1       6.149  -3.117  -0.745  0.00  0.00    +0.000 C 
ATOM     10  N   UNL     1       6.736  -3.932  -1.673  0.00  0.00    +0.000 N 
ATOM     11  O   UNL     1       6.604  -3.006   0.388  0.00  0.00    +0.000 OA
ATOM     12  H   UNL     1       6.342  -4.004  -2.604  0.00  0.00    +0.000 HD
ATOM     13  H   UNL     1       7.562  -4.455  -1.421  0.00  0.00    +0.000 HD
ENDBRANCH   7   9
BRANCH   3  15
ATOM     14  C   UNL     1       1.436   0.711  -0.312  0.00  0.00    +0.000 C 
ATOM     15  O   UNL     1       2.569  -0.026   0.140  0.00  0.00    +0.000 OA
ENDBRANCH   3  15
ENDBRANCH   1   5
BRANCH   1  16
ATOM     16  C   UNL     1       1.861  -1.537  -4.793  0.00  0.00    +0.000 C 
BRANCH  16  17
ATOM     17  C   UNL     1       1.665  -1.879  -6.253  0.00  0.00    +0.000 A 
ATOM     18  C   UNL     1       2.221  -1.070  -7.239  0.00  0.00    +0.000 A 
ATOM     19  C   UNL     1       1.959  -1.369  -8.568  0.00  0.00    +0.000 A 
ATOM     20  C   UNL     1       1.174  -2.476  -8.874  0.00  0.00    +0.000 A 
ATOM     21  C   UNL     1       0.675  -3.272  -7.842  0.00  0.00    +0.000 A 
ATOM     22  N   UNL     1       0.908  -2.970  -6.540  0.00  0.00    +0.000 NA
BRANCH  21  23
ATOM     23  C   UNL     1      -0.123  -4.489  -8.089  0.00  0.00    +0.000 A 
ATOM     24  C   UNL     1      -1.114  -4.906  -7.191  0.00  0.00    +0.000 A 
ATOM     25  C   UNL     1      -1.840  -6.052  -7.470  0.00  0.00    +0.000 A 
ATOM     26  N   UNL     1      -1.654  -6.813  -8.569  0.00  0.00    +0.000 NA
ATOM     27  C   UNL     1      -0.688  -6.426  -9.428  0.00  0.00    +0.000 A 
ATOM     28  C   UNL     1      -0.453  -7.276 -10.641  0.00  0.00    +0.000 C 
ATOM     29  C   UNL     1       0.087  -5.288  -9.222  0.00  0.00    +0.000 A 
ENDBRANCH  21  23
ENDBRANCH  16  17
ENDBRANCH   1  16
TORSDOF 6
