REMARK  Name = 
REMARK  6 active torsions:
REMARK  status: ('A' for Active; 'I' for Inactive)
REMARK    1  A    between atoms: C_1  and  C_2
REMARK    2  A    between atoms: C_2  and  C_3
REMARK    3  A    between atoms: C_2  and  C_14
REMARK    4  A    between atoms: C_3  and  N_4
REMARK    5  A    between atoms: C_9  and  C_10
REMARK    6  A    between atoms: C_18  and  C_19
REMARK                            x       y       z     vdW  Elec       q    Type
REMARK                         _______ _______ _______ _____ _____    ______ ____
ROOT
ATOM      1  C   UNL     1       2.966   0.452   1.519  0.00  0.00    +0.000 C 
ENDROOT
BRANCH   1   2
ATOM      2  N   UNL     1       2.756   1.894   1.609  0.00  0.00    +0.000 N 
ATOM      3  C   UNL     1       3.312   2.442   2.785  0.00  0.00    +0.000 A 
ATOM      4  C   UNL     1       3.171   3.810   3.056  0.00  0.00    +0.000 A 
ATOM      5  N   UNL     1       3.681   4.422   4.157  0.00  0.00    +0.000 NA
ATOM      6  C   UNL     1       4.365   3.611   4.999  0.00  0.00    +0.000 A 
ATOM      7  C   UNL     1       4.523   2.261   4.740  0.00  0.00    +0.000 A 
ATOM      8  N   UNL     1       4.008   1.654   3.634  0.00  0.00    +0.000 NA
ATOM      9  H   UNL     1       1.769   2.138   1.583  0.00  0.00    +0.000 HD
BRANCH   7  10
ATOM     10  C   UNL     1       5.265   1.392   5.691  0.00  0.00    +0.000 C 
ATOM     11  N   UNL     1       5.332   0.067   5.354  0.00  0.00    +0.000 N 
ATOM     12  O   UNL     1       5.778   1.828   6.713  0.00  0.00    +0.000 OA
ATOM     13  H   UNL     1       4.882  -0.263   4.507  0.00  0.00    +0.000 HD
ATOM     14  H   UNL     1       5.807  -0.582   5.966  0.00  0.00    +0.000 HD
ENDBRANCH   7  10
ENDBRANCH   1   2
BRANCH   1  16
ATOM     15  C   UNL     1       0.862   0.095   0.051  0.00  0.00    +0.000 C 
ATOM     16  C   UNL     1       2.333  -0.101   0.278  0.00  0.00    +0.000 C 
BRANCH  16  17
ATOM     17  C   UNL     1       2.880  -1.390  -0.165  0.00  0.00    +0.000 A 
ATOM     18  C   UNL     1       4.180  -1.532  -0.628  0.00  0.00    +0.000 A 
ATOM     19  C   UNL     1       4.628  -2.806  -0.970  0.00  0.00    +0.000 A 
ATOM     20  C   UNL     1       3.771  -3.896  -0.833  0.00  0.00    +0.000 A 
ATOM     21  C   UNL     1       2.479  -3.684  -0.354  0.00  0.00    +0.000 A 
ATOM     22  N   UNL     1       2.041  -2.438  -0.022  0.00  0.00    +0.000 NA
BRANCH  21  23
ATOM     23  C   UNL     1       1.516  -4.847  -0.179  0.00  0.00    +0.000 C 
ATOM     24  F   UNL     1       2.048  -6.052  -0.543  0.00  0.00    +0.000 F 
ATOM     25  F   UNL     1       1.107  -5.009   1.113  0.00  0.00    +0.000 F 
ATOM     26  F   UNL     1       0.378  -4.714  -0.920  0.00  0.00    +0.000 F 
ENDBRANCH  21  23
ENDBRANCH  16  17
ENDBRANCH   1  16
TORSDOF 5
