REMARK  Name = 
REMARK  7 active torsions:
REMARK  status: ('A' for Active; 'I' for Inactive)
REMARK    1  A    between atoms: C_1  and  C_2
REMARK    2  A    between atoms: C_2  and  O_3
REMARK    3  A    between atoms: C_5  and  N_6
REMARK    4  A    between atoms: C_9  and  C_10
REMARK    5  A    between atoms: C_10  and  C_13
REMARK    6  A    between atoms: C_13  and  N_14
REMARK    7  A    between atoms: C_17  and  C_18
REMARK                            x       y       z     vdW  Elec       q    Type
REMARK                         _______ _______ _______ _____ _____    ______ ____
ROOT
ATOM      1  C   UNL     1       6.800  -4.506   1.634  0.00  0.00    +0.000 C 
ATOM      2  F   UNL     1       8.131  -4.653   1.324  0.00  0.00    +0.000 F 
ATOM      3  F   UNL     1       6.485  -5.645   2.317  0.00  0.00    +0.000 F 
ENDROOT
BRANCH   1   7
ATOM      4  N   UNL     1       4.887  -0.023   2.464  0.00  0.00    +0.000 N 
ATOM      5  C   UNL     1       5.679  -1.084   2.949  0.00  0.00    +0.000 A 
ATOM      6  C   UNL     1       5.778  -2.208   2.137  0.00  0.00    +0.000 A 
ATOM      7  C   UNL     1       6.593  -3.282   2.508  0.00  0.00    +0.000 A 
ATOM      8  C   UNL     1       7.253  -3.193   3.738  0.00  0.00    +0.000 A 
ATOM      9  C   UNL     1       7.091  -2.044   4.496  0.00  0.00    +0.000 A 
ATOM     10  N   UNL     1       6.337  -0.987   4.116  0.00  0.00    +0.000 NA
ATOM     11  H   UNL     1       3.920  -0.335   2.424  0.00  0.00    +0.000 HD
BRANCH   4  15
ATOM     12  C   UNL     1       5.988   3.947   0.899  0.00  0.00    +0.000 C 
ATOM     13  C   UNL     1       5.549   3.242   2.173  0.00  0.00    +0.000 C 
ATOM     14  C   UNL     1       6.353   1.958   2.507  0.00  0.00    +0.000 C 
ATOM     15  C   UNL     1       5.017   1.314   2.947  0.00  0.00    +0.000 C 
ATOM     16  C   UNL     1       4.302   2.327   2.023  0.00  0.00    +0.000 C 
BRANCH  13  17
ATOM     17  O   UNL     1       5.459   4.208   3.243  0.00  0.00    +0.000 OA
ATOM     18  H   UNL     1       6.377   4.483   3.413  0.00  0.00    +0.000 HD
ENDBRANCH  13  17
ENDBRANCH   4  15
ENDBRANCH   1   7
BRANCH   1  19
ATOM     19  C   UNL     1       6.033  -4.456   0.281  0.00  0.00    +0.000 C 
BRANCH  19  20
ATOM     20  N   UNL     1       6.149  -5.656  -0.567  0.00  0.00    +0.000 N 
ATOM     21  C   UNL     1       5.225  -6.666  -0.266  0.00  0.00    +0.000 A 
ATOM     22  C   UNL     1       5.231  -7.818  -1.039  0.00  0.00    +0.000 A 
ATOM     23  C   UNL     1       4.298  -8.822  -0.777  0.00  0.00    +0.000 A 
ATOM     24  C   UNL     1       3.379  -8.648   0.253  0.00  0.00    +0.000 A 
ATOM     25  C   UNL     1       3.432  -7.466   0.962  0.00  0.00    +0.000 A 
ATOM     26  N   UNL     1       4.316  -6.481   0.711  0.00  0.00    +0.000 NA
ATOM     27  H   UNL     1       7.093  -6.038  -0.566  0.00  0.00    +0.000 HD
BRANCH  23  28
ATOM     28  C   UNL     1       4.333 -10.038  -1.637  0.00  0.00    +0.000 C 
ATOM     29  N   UNL     1       3.454 -11.053  -1.375  0.00  0.00    +0.000 N 
ATOM     30  O   UNL     1       5.132 -10.143  -2.560  0.00  0.00    +0.000 OA
ATOM     31  H   UNL     1       2.787 -11.075  -0.626  0.00  0.00    +0.000 HD
ATOM     32  H   UNL     1       3.518 -11.863  -1.974  0.00  0.00    +0.000 HD
ENDBRANCH  23  28
ENDBRANCH  19  20
ENDBRANCH   1  19
TORSDOF 6
