REMARK  Name = 
REMARK  6 active torsions:
REMARK  status: ('A' for Active; 'I' for Inactive)
REMARK    1  A    between atoms: N_1  and  C_2
REMARK    2  A    between atoms: C_2  and  C_3
REMARK    3  A    between atoms: C_3  and  N_4
REMARK    4  A    between atoms: C_8  and  C_9
REMARK    5  A    between atoms: C_9  and  N_10
REMARK    6  A    between atoms: C_15  and  C_16
REMARK                            x       y       z     vdW  Elec       q    Type
REMARK                         _______ _______ _______ _____ _____    ______ ____
ROOT
ATOM      1  N   UNL     1       8.360   1.609  -2.640  0.00  0.00    +0.000 N 
ATOM      2  C   UNL     1       9.092   2.337  -1.742  0.00  0.00    +0.000 A 
ATOM      3  N   UNL     1      10.381   2.128  -1.889  0.00  0.00    +0.000 NA
ATOM      4  C   UNL     1      10.495   1.264  -2.951  0.00  0.00    +0.000 A 
ATOM      5  C   UNL     1      11.631   0.663  -3.489  0.00  0.00    +0.000 A 
ATOM      6  C   UNL     1      11.401  -0.188  -4.558  0.00  0.00    +0.000 A 
ATOM      7  N   UNL     1      10.185  -0.411  -5.142  0.00  0.00    +0.000 NA
ATOM      8  C   UNL     1       9.095   0.199  -4.625  0.00  0.00    +0.000 A 
ATOM      9  C   UNL     1       9.244   0.992  -3.495  0.00  0.00    +0.000 A 
ENDROOT
BRANCH   6  10
ATOM     10  C   UNL     1      12.548  -0.987  -5.111  0.00  0.00    +0.000 C 
ATOM     11  N   UNL     1      12.233  -1.851  -6.126  0.00  0.00    +0.000 N 
ATOM     12  O   UNL     1      13.689  -0.901  -4.676  0.00  0.00    +0.000 OA
ATOM     13  H   UNL     1      11.270  -1.947  -6.425  0.00  0.00    +0.000 HD
ATOM     14  H   UNL     1      12.950  -2.460  -6.496  0.00  0.00    +0.000 HD
ENDBRANCH   6  10
BRANCH   1  15
ATOM     15  C   UNL     1       6.911   1.474  -2.623  0.00  0.00    +0.000 C 
BRANCH  15  20
ATOM     16  N   UNL     1       4.278  -0.926  -1.124  0.00  0.00    +0.000 NA
ATOM     17  C   UNL     1       4.774  -2.159  -1.750  0.00  0.00    +0.000 C 
ATOM     18  C   UNL     1       6.285  -2.245  -1.624  0.00  0.00    +0.000 C 
ATOM     19  C   UNL     1       6.950  -1.055  -2.291  0.00  0.00    +0.000 C 
ATOM     20  C   UNL     1       6.387   0.282  -1.783  0.00  0.00    +0.000 C 
ATOM     21  C   UNL     1       4.838   0.262  -1.799  0.00  0.00    +0.000 C 
BRANCH  16  22
ATOM     22  C   UNL     1       2.798  -0.888  -1.126  0.00  0.00    +0.000 C 
BRANCH  22  23
ATOM     23  C   UNL     1       2.150  -2.036  -0.314  0.00  0.00    +0.000 C 
BRANCH  23  24
ATOM     24  N   UNL     1       0.688  -1.977  -0.323  0.00  0.00    +0.000 NA
ATOM     25  H   UNL     1       0.331  -2.796   0.171  0.00  0.00    +0.000 HD
ATOM     26  H   UNL     1       0.354  -2.067  -1.282  0.00  0.00    +0.000 HD
ENDBRANCH  23  24
ENDBRANCH  22  23
ENDBRANCH  16  22
ENDBRANCH  15  20
ENDBRANCH   1  15
TORSDOF 6
