REMARK  Name = 
REMARK  9 active torsions:
REMARK  status: ('A' for Active; 'I' for Inactive)
REMARK    1  A    between atoms: C_1  and  O_2
REMARK    2  A    between atoms: O_2  and  C_3
REMARK    3  A    between atoms: C_10  and  C_11
REMARK    4  A    between atoms: N_13  and  C_14
REMARK    5  A    between atoms: C_14  and  C_15
REMARK    6  A    between atoms: C_18  and  C_19
REMARK    7  A    between atoms: C_19  and  O_20
REMARK    8  A    between atoms: C_19  and  C_21
REMARK    9  A    between atoms: C_21  and  N_22
REMARK                            x       y       z     vdW  Elec       q    Type
REMARK                         _______ _______ _______ _____ _____    ______ ____
ROOT
ATOM      1  C   UNL     1      -4.291  -0.640   2.735  0.00  0.00    +0.000 A 
ATOM      2  C   UNL     1      -3.023  -0.047   2.759  0.00  0.00    +0.000 A 
ATOM      3  C   UNL     1      -1.914  -0.740   3.270  0.00  0.00    +0.000 A 
ATOM      4  C   UNL     1      -2.041  -2.050   3.758  0.00  0.00    +0.000 A 
ATOM      5  C   UNL     1      -3.314  -2.642   3.724  0.00  0.00    +0.000 A 
ATOM      6  C   UNL     1      -4.424  -1.943   3.231  0.00  0.00    +0.000 A 
ENDROOT
BRANCH   1   7
ATOM      7  C   UNL     1      -5.478   0.075   2.130  0.00  0.00    +0.000 C 
BRANCH   7  10
ATOM      8  C   UNL     1      -6.626   0.247  -0.060  0.00  0.00    +0.000 C 
ATOM      9  O   UNL     1      -7.480   1.002   0.405  0.00  0.00    +0.000 OA
ATOM     10  N   UNL     1      -5.614  -0.240   0.722  0.00  0.00    +0.000 N 
ATOM     11  H   UNL     1      -4.891  -0.814   0.309  0.00  0.00    +0.000 HD
BRANCH   8  19
ATOM     12  C   UNL     1      -4.597  -1.758  -1.989  0.00  0.00    +0.000 A 
ATOM     13  N   UNL     1      -4.043  -2.557  -2.924  0.00  0.00    +0.000 NA
ATOM     14  C   UNL     1      -4.647  -2.656  -4.108  0.00  0.00    +0.000 A 
ATOM     15  N   UNL     1      -5.755  -2.031  -4.495  0.00  0.00    +0.000 NA
ATOM     16  C   UNL     1      -6.281  -1.251  -3.531  0.00  0.00    +0.000 A 
ATOM     17  S   UNL     1      -7.692  -0.363  -3.850  0.00  0.00    +0.000 S 
ATOM     18  C   UNL     1      -7.713   0.266  -2.273  0.00  0.00    +0.000 A 
ATOM     19  C   UNL     1      -6.670  -0.185  -1.470  0.00  0.00    +0.000 A 
ATOM     20  C   UNL     1      -5.795  -1.064  -2.242  0.00  0.00    +0.000 A 
BRANCH  12  22
ATOM     21  C   UNL     1      -2.756  -2.391  -0.668  0.00  0.00    +0.000 C 
ATOM     22  O   UNL     1      -3.951  -1.617  -0.779  0.00  0.00    +0.000 OA
ENDBRANCH  12  22
ENDBRANCH   8  19
ENDBRANCH   7  10
ENDBRANCH   1   7
BRANCH   4  23
ATOM     23  C   UNL     1      -0.824  -2.797   4.286  0.00  0.00    +0.000 C 
BRANCH  23  24
ATOM     24  O   UNL     1      -0.516  -3.869   3.387  0.00  0.00    +0.000 OA
ATOM     25  H   UNL     1      -1.335  -4.366   3.227  0.00  0.00    +0.000 HD
ENDBRANCH  23  24
BRANCH  23  26
ATOM     26  C   UNL     1      -1.016  -3.309   5.741  0.00  0.00    +0.000 C 
BRANCH  26  27
ATOM     27  N   UNL     1       0.196  -3.967   6.265  0.00  0.00    +0.000 N 
ATOM     28  C   UNL     1       0.098  -4.387   7.604  0.00  0.00    +0.000 A 
ATOM     29  C   UNL     1       1.178  -5.031   8.179  0.00  0.00    +0.000 A 
ATOM     30  C   UNL     1       1.042  -5.426   9.493  0.00  0.00    +0.000 A 
ATOM     31  N   UNL     1      -0.072  -5.226  10.215  0.00  0.00    +0.000 NA
ATOM     32  C   UNL     1      -1.071  -4.619   9.565  0.00  0.00    +0.000 A 
ATOM     33  N   UNL     1      -1.045  -4.195   8.289  0.00  0.00    +0.000 NA
ATOM     34  H   UNL     1       1.029  -3.398   6.150  0.00  0.00    +0.000 HD
ENDBRANCH  26  27
ENDBRANCH  23  26
ENDBRANCH   4  23
TORSDOF 8
