REMARK  Name = 
REMARK  9 active torsions:
REMARK  status: ('A' for Active; 'I' for Inactive)
REMARK    1  A    between atoms: N_1  and  C_2
REMARK    2  A    between atoms: C_2  and  C_3
REMARK    3  A    between atoms: C_3  and  O_4
REMARK    4  A    between atoms: O_4  and  C_5
REMARK    5  A    between atoms: C_5  and  C_6
REMARK    6  A    between atoms: C_9  and  C_10
REMARK    7  A    between atoms: C_10  and  O_11
REMARK    8  A    between atoms: O_11  and  C_12
REMARK    9  A    between atoms: C_15  and  C_16
REMARK                            x       y       z     vdW  Elec       q    Type
REMARK                         _______ _______ _______ _____ _____    ______ ____
ROOT
ATOM      1  C   UNL     1       6.493   1.332  -2.418  0.00  0.00    +0.000 C 
ATOM      2  C   UNL     1       6.996   0.077  -1.685  0.00  0.00    +0.000 C 
ATOM      3  C   UNL     1       8.504   0.104  -1.436  0.00  0.00    +0.000 C 
ATOM      4  C   UNL     1       8.953   1.365  -0.683  0.00  0.00    +0.000 C 
ATOM      5  C   UNL     1       8.449   2.634  -1.390  0.00  0.00    +0.000 C 
ATOM      6  C   UNL     1       6.951   2.607  -1.698  0.00  0.00    +0.000 C 
ENDROOT
BRANCH   1   7
ATOM      7  C   UNL     1       6.889   1.324  -3.904  0.00  0.00    +0.000 C 
BRANCH   7   8
ATOM      8  O   UNL     1       6.275   0.186  -4.512  0.00  0.00    +0.000 OA
BRANCH   8   9
ATOM      9  C   UNL     1       6.629   0.041  -5.889  0.00  0.00    +0.000 C 
BRANCH   9  10
ATOM     10  C   UNL     1       5.958  -1.227  -6.436  0.00  0.00    +0.000 C 
BRANCH  10  11
ATOM     11  N   UNL     1       6.436  -2.429  -5.743  0.00  0.00    +0.000 NA
ATOM     12  H   UNL     1       5.857  -3.223  -6.009  0.00  0.00    +0.000 HD
ATOM     13  H   UNL     1       6.279  -2.282  -4.742  0.00  0.00    +0.000 HD
ENDBRANCH  10  11
ENDBRANCH   9  10
ENDBRANCH   8   9
ENDBRANCH   7   8
ENDBRANCH   1   7
BRANCH   4  14
ATOM     14  C   UNL     1       8.519   1.345   0.794  0.00  0.00    +0.000 C 
BRANCH  14  15
ATOM     15  O   UNL     1       9.100   0.209   1.449  0.00  0.00    +0.000 OA
BRANCH  15  16
ATOM     16  C   UNL     1       8.766   0.149   2.786  0.00  0.00    +0.000 A 
ATOM     17  C   UNL     1       9.251  -0.917   3.518  0.00  0.00    +0.000 A 
ATOM     18  C   UNL     1       8.941  -0.980   4.874  0.00  0.00    +0.000 A 
ATOM     19  C   UNL     1       8.164   0.035   5.410  0.00  0.00    +0.000 A 
ATOM     20  N   UNL     1       7.696   1.066   4.664  0.00  0.00    +0.000 NA
ATOM     21  N   UNL     1       8.002   1.119   3.340  0.00  0.00    +0.000 NA
BRANCH  19  22
ATOM     22  C   UNL     1       7.806   0.058   6.856  0.00  0.00    +0.000 C 
ATOM     23  N   UNL     1       7.040   1.119   7.264  0.00  0.00    +0.000 N 
ATOM     24  O   UNL     1       8.173  -0.810   7.635  0.00  0.00    +0.000 OA
ATOM     25  H   UNL     1       6.750   1.834   6.608  0.00  0.00    +0.000 HD
ATOM     26  H   UNL     1       6.777   1.193   8.237  0.00  0.00    +0.000 HD
ENDBRANCH  19  22
ENDBRANCH  15  16
ENDBRANCH  14  15
ENDBRANCH   4  14
TORSDOF 9
