REMARK  Name = 
REMARK  10 active torsions:
REMARK  status: ('A' for Active; 'I' for Inactive)
REMARK    1  A    between atoms: C_1  and  C_2
REMARK    2  A    between atoms: C_2  and  C_3
REMARK    3  A    between atoms: C_3  and  N_4
REMARK    4  A    between atoms: C_5  and  C_7
REMARK    5  A    between atoms: C_10  and  N_11
REMARK    6  A    between atoms: N_11  and  C_12
REMARK    7  A    between atoms: C_12  and  C_13
REMARK    8  A    between atoms: C_13  and  C_14
REMARK    9  A    between atoms: C_13  and  C_15
REMARK   10  A    between atoms: C_19  and  C_20
REMARK                            x       y       z     vdW  Elec       q    Type
REMARK                         _______ _______ _______ _____ _____    ______ ____
ROOT
ATOM      1  C   UNL     1       6.715   2.269  -1.598  0.00  0.00    +0.000 A 
ATOM      2  C   UNL     1       7.407   1.099  -1.874  0.00  0.00    +0.000 A 
ATOM      3  N   UNL     1       8.761   1.059  -2.016  0.00  0.00    +0.000 NA
ATOM      4  C   UNL     1       9.414   2.227  -1.859  0.00  0.00    +0.000 A 
ATOM      5  C   UNL     1       8.706   3.386  -1.504  0.00  0.00    +0.000 A 
ATOM      6  N   UNL     1       7.351   3.454  -1.386  0.00  0.00    +0.000 NA
ENDROOT
BRANCH   1   8
ATOM      7  N   UNL     1       4.622   3.493  -1.435  0.00  0.00    +0.000 N 
ATOM      8  C   UNL     1       5.224   2.261  -1.586  0.00  0.00    +0.000 C 
ATOM      9  O   UNL     1       4.603   1.210  -1.733  0.00  0.00    +0.000 OA
ATOM     10  H   UNL     1       5.235   4.296  -1.318  0.00  0.00    +0.000 HD
BRANCH   7  11
ATOM     11  C   UNL     1       3.183   3.659  -1.402  0.00  0.00    +0.000 C 
BRANCH  11  13
ATOM     12  C   UNL     1       3.071   4.401   1.024  0.00  0.00    +0.000 C 
ATOM     13  C   UNL     1       2.587   3.404  -0.019  0.00  0.00    +0.000 C 
ENDBRANCH  11  13
ENDBRANCH   7  11
ENDBRANCH   1   8
BRANCH   4  14
ATOM     14  N   UNL     1      10.814   2.290  -1.992  0.00  0.00    +0.000 N 
ATOM     15  H   UNL     1      11.194   2.242  -1.048  0.00  0.00    +0.000 HD
BRANCH  14  16
ATOM     16  C   UNL     1      11.386   1.252  -2.870  0.00  0.00    +0.000 C 
BRANCH  16  17
ATOM     17  C   UNL     1      12.912   1.448  -3.012  0.00  0.00    +0.000 C 
ATOM     18  C   UNL     1      13.640   1.220  -1.680  0.00  0.00    +0.000 C 
BRANCH  17  19
ATOM     19  C   UNL     1      13.511   0.522  -4.061  0.00  0.00    +0.000 A 
ATOM     20  C   UNL     1      14.211   1.039  -5.138  0.00  0.00    +0.000 A 
ATOM     21  C   UNL     1      14.831   0.130  -5.969  0.00  0.00    +0.000 A 
ATOM     22  N   UNL     1      14.772  -1.201  -5.790  0.00  0.00    +0.000 NA
ATOM     23  C   UNL     1      14.049  -1.613  -4.733  0.00  0.00    +0.000 A 
ATOM     24  N   UNL     1      13.413  -0.810  -3.852  0.00  0.00    +0.000 NA
BRANCH  23  25
ATOM     25  C   UNL     1      13.960  -3.034  -4.513  0.00  0.00    +0.000 C 
ATOM     26  N   UNL     1      13.892  -4.184  -4.335  0.00  0.00    +0.000 NA
ENDBRANCH  23  25
ENDBRANCH  17  19
ENDBRANCH  16  17
ENDBRANCH  14  16
ENDBRANCH   4  14
TORSDOF 8
