REMARK  Name = 
REMARK  9 active torsions:
REMARK  status: ('A' for Active; 'I' for Inactive)
REMARK    1  A    between atoms: C_1  and  O_2
REMARK    2  A    between atoms: O_2  and  C_3
REMARK    3  A    between atoms: N_9  and  C_10
REMARK    4  A    between atoms: C_10  and  C_11
REMARK    5  A    between atoms: C_14  and  C_15
REMARK    6  A    between atoms: C_15  and  C_16
REMARK    7  A    between atoms: C_16  and  N_17
REMARK    8  A    between atoms: N_17  and  C_18
REMARK    9  A    between atoms: N_17  and  C_19
REMARK                            x       y       z     vdW  Elec       q    Type
REMARK                         _______ _______ _______ _____ _____    ______ ____
ROOT
ATOM      1  C   UNL     1       6.664   2.344   2.589  0.00  0.00    +0.000 C 
ENDROOT
BRANCH   1   8
ATOM      2  C   UNL     1       5.857   5.825   5.435  0.00  0.00    +0.000 A 
ATOM      3  C   UNL     1       7.012   6.520   5.784  0.00  0.00    +0.000 A 
ATOM      4  C   UNL     1       8.259   6.119   5.288  0.00  0.00    +0.000 A 
ATOM      5  C   UNL     1       8.344   5.017   4.417  0.00  0.00    +0.000 A 
ATOM      6  C   UNL     1       9.427   4.367   3.770  0.00  0.00    +0.000 A 
ATOM      7  C   UNL     1       8.911   3.329   3.030  0.00  0.00    +0.000 A 
ATOM      8  N   UNL     1       7.544   3.338   3.182  0.00  0.00    +0.000 N 
ATOM      9  C   UNL     1       7.173   4.334   4.067  0.00  0.00    +0.000 A 
ATOM     10  C   UNL     1       5.925   4.702   4.600  0.00  0.00    +0.000 A 
BRANCH   2  12
ATOM     11  C   UNL     1       4.381   7.527   6.138  0.00  0.00    +0.000 C 
ATOM     12  O   UNL     1       4.600   6.140   5.886  0.00  0.00    +0.000 OA
ENDBRANCH   2  12
ENDBRANCH   1   8
BRANCH   1  13
ATOM     13  C   UNL     1       6.140   2.728   1.232  0.00  0.00    +0.000 A 
ATOM     14  C   UNL     1       4.908   3.365   1.072  0.00  0.00    +0.000 A 
ATOM     15  C   UNL     1       4.362   3.516  -0.202  0.00  0.00    +0.000 A 
ATOM     16  C   UNL     1       5.072   3.035  -1.297  0.00  0.00    +0.000 A 
ATOM     17  N   UNL     1       6.310   2.496  -1.175  0.00  0.00    +0.000 NA
ATOM     18  C   UNL     1       6.818   2.371   0.071  0.00  0.00    +0.000 A 
BRANCH  16  19
ATOM     19  C   UNL     1       4.426   2.951  -2.659  0.00  0.00    +0.000 C 
BRANCH  19  20
ATOM     20  C   UNL     1       3.809   1.550  -2.847  0.00  0.00    +0.000 C 
BRANCH  20  21
ATOM     21  N   UNL     1       3.107   1.340  -4.131  0.00  0.00    +0.000 NA
ATOM     22  C   UNL     1       4.014   1.458  -5.275  0.00  0.00    +0.000 C 
ATOM     23  C   UNL     1       2.496   0.003  -4.136  0.00  0.00    +0.000 C 
ENDBRANCH  20  21
ENDBRANCH  19  20
ENDBRANCH  16  19
ENDBRANCH   1  13
TORSDOF 6
