REMARK  Name = 
REMARK  6 active torsions:
REMARK  status: ('A' for Active; 'I' for Inactive)
REMARK    1  A    between atoms: C_1  and  C_2
REMARK    2  A    between atoms: C_2  and  C_3
REMARK    3  A    between atoms: C_2  and  C_4
REMARK    4  A    between atoms: C_2  and  C_18
REMARK    5  A    between atoms: C_4  and  N_5
REMARK    6  A    between atoms: C_10  and  C_11
REMARK                            x       y       z     vdW  Elec       q    Type
REMARK                         _______ _______ _______ _____ _____    ______ ____
ROOT
ATOM      1  N   UNL     1       2.809   2.404   0.985  0.00  0.00    +0.000 N 
ATOM      2  C   UNL     1       3.259   3.191   2.038  0.00  0.00    +0.000 A 
ATOM      3  N   UNL     1       4.402   2.860   2.653  0.00  0.00    +0.000 NA
ATOM      4  C   UNL     1       4.800   3.637   3.669  0.00  0.00    +0.000 A 
ATOM      5  C   UNL     1       4.107   4.742   4.084  0.00  0.00    +0.000 A 
ATOM      6  C   UNL     1       2.946   5.035   3.392  0.00  0.00    +0.000 A 
ATOM      7  N   UNL     1       2.510   4.251   2.378  0.00  0.00    +0.000 NA
ATOM      8  H   UNL     1       1.803   2.566   0.906  0.00  0.00    +0.000 HD
ENDROOT
BRANCH   6   9
ATOM      9  C   UNL     1       2.110   6.202   3.732  0.00  0.00    +0.000 A 
ATOM     10  C   UNL     1       2.637   7.375   4.300  0.00  0.00    +0.000 A 
ATOM     11  C   UNL     1       1.806   8.437   4.653  0.00  0.00    +0.000 A 
ATOM     12  C   UNL     1       0.450   8.310   4.423  0.00  0.00    +0.000 A 
ATOM     13  N   UNL     1      -0.110   7.219   3.863  0.00  0.00    +0.000 NA
ATOM     14  C   UNL     1       0.729   6.203   3.526  0.00  0.00    +0.000 A 
ENDBRANCH   6   9
BRANCH   1  15
ATOM     15  C   UNL     1       3.111   0.982   1.155  0.00  0.00    +0.000 C 
BRANCH  15  17
ATOM     16  C   UNL     1       3.241   0.574  -1.336  0.00  0.00    +0.000 C 
ATOM     17  C   UNL     1       2.580   0.108  -0.022  0.00  0.00    +0.000 C 
ATOM     18  C   UNL     1       3.025  -1.346   0.268  0.00  0.00    +0.000 C 
BRANCH  17  19
ATOM     19  C   UNL     1       1.051   0.163  -0.144  0.00  0.00    +0.000 A 
ATOM     20  C   UNL     1       0.373  -0.593  -1.104  0.00  0.00    +0.000 A 
ATOM     21  C   UNL     1      -1.014  -0.501  -1.197  0.00  0.00    +0.000 A 
ATOM     22  C   UNL     1      -1.699   0.345  -0.336  0.00  0.00    +0.000 A 
ATOM     23  C   UNL     1      -0.966   1.062   0.589  0.00  0.00    +0.000 A 
ATOM     24  N   UNL     1       0.378   0.986   0.704  0.00  0.00    +0.000 NA
ENDBRANCH  17  19
ENDBRANCH  15  17
ENDBRANCH   1  15
TORSDOF 4
