REMARK  Name = 
REMARK  7 active torsions:
REMARK  status: ('A' for Active; 'I' for Inactive)
REMARK    1  A    between atoms: C_2  and  C_4
REMARK    2  A    between atoms: C_7  and  N_8
REMARK    3  A    between atoms: N_8  and  C_9
REMARK    4  A    between atoms: C_9  and  C_10
REMARK    5  A    between atoms: C_10  and  C_12
REMARK    6  A    between atoms: C_16  and  C_17
REMARK    7  A    between atoms: C_17  and  C_18
REMARK                            x       y       z     vdW  Elec       q    Type
REMARK                         _______ _______ _______ _____ _____    ______ ____
ROOT
ATOM      1  C   UNL     1       5.386  -5.173   2.685  0.00  0.00    +0.000 C 
ENDROOT
BRANCH   1   2
ATOM      2  N   UNL     1       5.722  -3.736   2.642  0.00  0.00    +0.000 N 
ATOM      3  H   UNL     1       5.961  -3.384   3.570  0.00  0.00    +0.000 HD
BRANCH   2   7
ATOM      4  C   UNL     1       3.460  -0.973   0.500  0.00  0.00    +0.000 A 
ATOM      5  C   UNL     1       3.357  -2.307   0.135  0.00  0.00    +0.000 A 
ATOM      6  C   UNL     1       4.089  -3.251   0.858  0.00  0.00    +0.000 A 
ATOM      7  C   UNL     1       4.885  -2.862   1.939  0.00  0.00    +0.000 A 
ATOM      8  C   UNL     1       4.932  -1.484   2.192  0.00  0.00    +0.000 A 
ATOM      9  N   UNL     1       4.240  -0.529   1.519  0.00  0.00    +0.000 NA
BRANCH   4  11
ATOM     10  N   UNL     1       2.918   1.355   0.120  0.00  0.00    +0.000 N 
ATOM     11  C   UNL     1       2.710   0.065  -0.280  0.00  0.00    +0.000 C 
ATOM     12  O   UNL     1       1.970  -0.212  -1.213  0.00  0.00    +0.000 OA
ATOM     13  H   UNL     1       2.482   2.113  -0.389  0.00  0.00    +0.000 HD
ATOM     14  H   UNL     1       3.568   1.546   0.873  0.00  0.00    +0.000 HD
ENDBRANCH   4  11
ENDBRANCH   2   7
ENDBRANCH   1   2
BRANCH   1  15
ATOM     15  C   UNL     1       6.430  -5.962   3.500  0.00  0.00    +0.000 C 
ATOM     16  F   UNL     1       6.488  -5.405   4.754  0.00  0.00    +0.000 F 
BRANCH  15  17
ATOM     17  C   UNL     1       6.129  -7.448   3.538  0.00  0.00    +0.000 A 
ATOM     18  C   UNL     1       6.616  -8.224   4.584  0.00  0.00    +0.000 A 
ATOM     19  C   UNL     1       6.428  -9.601   4.540  0.00  0.00    +0.000 A 
ATOM     20  C   UNL     1       5.765 -10.171   3.455  0.00  0.00    +0.000 A 
ATOM     21  C   UNL     1       5.282  -9.342   2.450  0.00  0.00    +0.000 A 
ATOM     22  N   UNL     1       5.466  -7.997   2.484  0.00  0.00    +0.000 NA
BRANCH  21  23
ATOM     23  C   UNL     1       4.695  -9.893   1.177  0.00  0.00    +0.000 C 
BRANCH  23  24
ATOM     24  C   UNL     1       3.399 -10.684   1.303  0.00  0.00    +0.000 C 
ATOM     25  C   UNL     1       2.137 -10.177   2.018  0.00  0.00    +0.000 C 
ATOM     26  C   UNL     1       2.039 -11.632   2.494  0.00  0.00    +0.000 C 
ATOM     27  O   UNL     1       3.463 -11.822   2.223  0.00  0.00    +0.000 OA
ENDBRANCH  23  24
ENDBRANCH  21  23
ENDBRANCH  15  17
ENDBRANCH   1  15
TORSDOF 7
