REMARK  Name = 
REMARK  5 active torsions:
REMARK  status: ('A' for Active; 'I' for Inactive)
REMARK    1  A    between atoms: C_2  and  C_4
REMARK    2  A    between atoms: C_7  and  O_8
REMARK    3  A    between atoms: O_8  and  C_9
REMARK    4  A    between atoms: C_9  and  C_10
REMARK    5  A    between atoms: C_14  and  C_15
REMARK                            x       y       z     vdW  Elec       q    Type
REMARK                         _______ _______ _______ _____ _____    ______ ____
ROOT
ATOM      1  C   UNL     1       5.037  -5.020  -3.262  0.00  0.00    +0.000 C 
ENDROOT
BRANCH   1   2
ATOM      2  C   UNL     1       6.014  -6.159  -3.450  0.00  0.00    +0.000 A 
ATOM      3  C   UNL     1       7.365  -5.884  -3.690  0.00  0.00    +0.000 A 
ATOM      4  C   UNL     1       8.280  -6.924  -3.818  0.00  0.00    +0.000 A 
ATOM      5  C   UNL     1       7.858  -8.248  -3.676  0.00  0.00    +0.000 A 
ATOM      6  C   UNL     1       6.521  -8.564  -3.376  0.00  0.00    +0.000 A 
ATOM      7  C   UNL     1       5.611  -7.495  -3.285  0.00  0.00    +0.000 A 
BRANCH   6   8
ATOM      8  C   UNL     1       6.100  -9.951  -3.090  0.00  0.00    +0.000 A 
ATOM      9  C   UNL     1       6.937 -10.847  -2.408  0.00  0.00    +0.000 A 
ATOM     10  C   UNL     1       6.498 -12.128  -2.081  0.00  0.00    +0.000 A 
ATOM     11  C   UNL     1       5.215 -12.492  -2.439  0.00  0.00    +0.000 A 
ATOM     12  N   UNL     1       4.370 -11.681  -3.106  0.00  0.00    +0.000 NA
ATOM     13  C   UNL     1       4.832 -10.442  -3.416  0.00  0.00    +0.000 A 
ENDBRANCH   6   8
ENDBRANCH   1   2
BRANCH   1  14
ATOM     14  O   UNL     1       3.753  -5.379  -3.783  0.00  0.00    +0.000 OA
BRANCH  14  18
ATOM     15  C   UNL     1       0.905  -2.463  -3.223  0.00  0.00    +0.000 A 
ATOM     16  C   UNL     1       0.548  -3.671  -3.825  0.00  0.00    +0.000 A 
ATOM     17  C   UNL     1       1.524  -4.651  -4.012  0.00  0.00    +0.000 A 
ATOM     18  C   UNL     1       2.817  -4.385  -3.586  0.00  0.00    +0.000 A 
ATOM     19  N   UNL     1       3.191  -3.222  -3.011  0.00  0.00    +0.000 NA
ATOM     20  C   UNL     1       2.230  -2.282  -2.851  0.00  0.00    +0.000 A 
BRANCH  15  22
ATOM     21  N   UNL     1      -1.361  -1.689  -2.812  0.00  0.00    +0.000 N 
ATOM     22  C   UNL     1      -0.045  -1.360  -2.979  0.00  0.00    +0.000 C 
ATOM     23  O   UNL     1       0.334  -0.201  -2.887  0.00  0.00    +0.000 OA
ATOM     24  H   UNL     1      -1.974  -0.935  -2.528  0.00  0.00    +0.000 HD
ATOM     25  H   UNL     1      -1.667  -2.633  -2.624  0.00  0.00    +0.000 HD
ENDBRANCH  15  22
ENDBRANCH  14  18
ENDBRANCH   1  14
TORSDOF 5
