REMARK  Name = 
REMARK  4 active torsions:
REMARK  status: ('A' for Active; 'I' for Inactive)
REMARK    1  A    between atoms: C_2  and  C_4
REMARK    2  A    between atoms: C_8  and  O_9
REMARK    3  A    between atoms: O_9  and  C_10
REMARK    4  A    between atoms: C_10  and  C_11
REMARK                            x       y       z     vdW  Elec       q    Type
REMARK                         _______ _______ _______ _____ _____    ______ ____
ROOT
ATOM      1  C   UNL     1       4.519   1.036  -1.458  0.00  0.00    +0.000 A 
ATOM      2  N   UNL     1       3.330   0.412  -1.199  0.00  0.00    +0.000 NA
ATOM      3  C   UNL     1       2.254   1.198  -1.177  0.00  0.00    +0.000 A 
ATOM      4  N   UNL     1       2.253   2.515  -1.397  0.00  0.00    +0.000 NA
ATOM      5  C   UNL     1       3.449   3.080  -1.683  0.00  0.00    +0.000 A 
ATOM      6  C   UNL     1       4.643   2.384  -1.738  0.00  0.00    +0.000 A 
ATOM      7 CL   UNL     1       6.111   3.171  -2.172  0.00  0.00    +0.000 Cl
ENDROOT
BRANCH   1   9
ATOM      8  N   UNL     1       5.409  -1.219  -1.572  0.00  0.00    +0.000 N 
ATOM      9  C   UNL     1       5.699   0.111  -1.391  0.00  0.00    +0.000 C 
ATOM     10  O   UNL     1       6.841   0.472  -1.150  0.00  0.00    +0.000 OA
ATOM     11  H   UNL     1       6.146  -1.897  -1.436  0.00  0.00    +0.000 HD
ATOM     12  H   UNL     1       4.446  -1.526  -1.633  0.00  0.00    +0.000 HD
ENDBRANCH   1   9
BRANCH   5  13
ATOM     13  O   UNL     1       3.462   4.428  -2.003  0.00  0.00    +0.000 OA
BRANCH  13  14
ATOM     14  C   UNL     1       2.324   5.137  -1.503  0.00  0.00    +0.000 C 
BRANCH  14  15
ATOM     15  C   UNL     1       2.297   6.561  -2.011  0.00  0.00    +0.000 A 
ATOM     16  C   UNL     1       1.081   7.255  -2.026  0.00  0.00    +0.000 A 
ATOM     17  C   UNL     1       1.061   8.563  -2.484  0.00  0.00    +0.000 A 
ATOM     18  N   UNL     1       2.156   9.223  -2.912  0.00  0.00    +0.000 NA
ATOM     19  C   UNL     1       3.323   8.545  -2.875  0.00  0.00    +0.000 A 
ATOM     20  C   UNL     1       3.446   7.236  -2.432  0.00  0.00    +0.000 A 
ENDBRANCH  14  15
ENDBRANCH  13  14
ENDBRANCH   5  13
TORSDOF 4
