REMARK  Name = 
REMARK  8 active torsions:
REMARK  status: ('A' for Active; 'I' for Inactive)
REMARK    1  A    between atoms: N_1  and  C_2
REMARK    2  A    between atoms: C_2  and  C_3
REMARK    3  A    between atoms: C_3  and  O_4
REMARK    4  A    between atoms: O_4  and  C_5
REMARK    5  A    between atoms: C_9  and  C_10
REMARK    6  A    between atoms: C_10  and  N_11
REMARK    7  A    between atoms: C_16  and  C_17
REMARK    8  A    between atoms: C_17  and  O_19
REMARK                            x       y       z     vdW  Elec       q    Type
REMARK                         _______ _______ _______ _____ _____    ______ ____
ROOT
ATOM      1  C   UNL     1       8.640   1.247   3.536  0.00  0.00    +0.000 C 
ENDROOT
BRANCH   1   2
ATOM      2  N   UNL     1       9.655   0.388   2.930  0.00  0.00    +0.000 N 
ATOM      3  N   UNL     1      10.405  -0.396   3.741  0.00  0.00    +0.000 NA
ATOM      4  C   UNL     1      11.547  -0.543   3.069  0.00  0.00    +0.000 A 
ATOM      5  C   UNL     1      11.536   0.125   1.827  0.00  0.00    +0.000 A 
ATOM      6  C   UNL     1      12.479   0.397   0.822  0.00  0.00    +0.000 A 
ATOM      7  C   UNL     1      12.055   1.105  -0.315  0.00  0.00    +0.000 A 
ATOM      8  C   UNL     1      10.704   1.417  -0.506  0.00  0.00    +0.000 A 
ATOM      9  C   UNL     1       9.764   1.175   0.502  0.00  0.00    +0.000 A 
ATOM     10  C   UNL     1      10.229   0.584   1.686  0.00  0.00    +0.000 A 
BRANCH   7  11
ATOM     11  C   UNL     1      13.031   1.559  -1.329  0.00  0.00    +0.000 C 
ATOM     12  O   UNL     1      12.813   1.557  -2.525  0.00  0.00    +0.000 OA
BRANCH  11  13
ATOM     13  O   UNL     1      14.154   2.062  -0.771  0.00  0.00    +0.000 OA
ATOM     14  H   UNL     1      14.117   2.188   0.197  0.00  0.00    +0.000 HD
ENDBRANCH  11  13
ENDBRANCH   7  11
ENDBRANCH   1   2
BRANCH   1  19
ATOM     15  C   UNL     1       5.135   0.091   2.621  0.00  0.00    +0.000 A 
ATOM     16  C   UNL     1       4.742  -0.552   3.791  0.00  0.00    +0.000 A 
ATOM     17  C   UNL     1       5.617  -0.631   4.880  0.00  0.00    +0.000 A 
ATOM     18  C   UNL     1       6.888  -0.060   4.800  0.00  0.00    +0.000 A 
ATOM     19  C   UNL     1       7.292   0.597   3.632  0.00  0.00    +0.000 A 
ATOM     20  C   UNL     1       6.408   0.660   2.552  0.00  0.00    +0.000 A 
BRANCH  15  21
ATOM     21  O   UNL     1       4.412   0.216   1.477  0.00  0.00    +0.000 OA
BRANCH  21  22
ATOM     22  C   UNL     1       3.001   0.022   1.557  0.00  0.00    +0.000 C 
BRANCH  22  23
ATOM     23  C   UNL     1       2.462   0.148   0.128  0.00  0.00    +0.000 C 
BRANCH  23  24
ATOM     24  N   UNL     1       1.007   0.032   0.058  0.00  0.00    +0.000 NA
ATOM     25  H   UNL     1       0.721   0.094  -0.920  0.00  0.00    +0.000 HD
ATOM     26  H   UNL     1       0.580   0.832   0.524  0.00  0.00    +0.000 HD
ENDBRANCH  23  24
ENDBRANCH  22  23
ENDBRANCH  21  22
ENDBRANCH  15  21
ENDBRANCH   1  19
TORSDOF 8
