REMARK  Name = 
REMARK  7 active torsions:
REMARK  status: ('A' for Active; 'I' for Inactive)
REMARK    1  A    between atoms: C_1  and  C_2
REMARK    2  A    between atoms: C_2  and  N_3
REMARK    3  A    between atoms: C_2  and  C_12
REMARK    4  A    between atoms: C_4  and  C_6
REMARK    5  A    between atoms: C_15  and  C_16
REMARK    6  A    between atoms: C_16  and  N_17
REMARK    7  A    between atoms: C_18  and  C_20
REMARK                            x       y       z     vdW  Elec       q    Type
REMARK                         _______ _______ _______ _____ _____    ______ ____
ROOT
ATOM      1  C   UNL     1      -1.325  -2.827  -2.604  0.00  0.00    +0.000 A 
ATOM      2  C   UNL     1      -0.447  -3.717  -3.244  0.00  0.00    +0.000 A 
ATOM      3  C   UNL     1      -0.150  -3.577  -4.606  0.00  0.00    +0.000 A 
ATOM      4  C   UNL     1      -0.713  -2.535  -5.354  0.00  0.00    +0.000 A 
ATOM      5  C   UNL     1      -1.604  -1.661  -4.725  0.00  0.00    +0.000 A 
ATOM      6  C   UNL     1      -1.888  -1.792  -3.366  0.00  0.00    +0.000 A 
ENDROOT
BRANCH   1   8
ATOM      7  C   UNL     1      -3.057  -2.575  -0.767  0.00  0.00    +0.000 C 
ATOM      8  C   UNL     1      -1.613  -2.971  -1.113  0.00  0.00    +0.000 C 
BRANCH   8   9
ATOM      9  N   UNL     1      -0.629  -2.190  -0.373  0.00  0.00    +0.000 N 
ATOM     10  C   UNL     1      -0.589  -2.132   1.001  0.00  0.00    +0.000 C 
ATOM     11  O   UNL     1      -1.375  -2.760   1.712  0.00  0.00    +0.000 OA
ATOM     12  H   UNL     1       0.205  -1.935  -0.883  0.00  0.00    +0.000 HD
BRANCH  10  13
ATOM     13  C   UNL     1       0.540  -1.257   1.624  0.00  0.00    +0.000 C 
ATOM     14  C   UNL     1       1.044  -0.083   0.776  0.00  0.00    +0.000 C 
ATOM     15  C   UNL     1      -0.000   1.021   0.641  0.00  0.00    +0.000 C 
ATOM     16  C   UNL     1      -0.487   1.461   2.016  0.00  0.00    +0.000 C 
ATOM     17  C   UNL     1      -0.928   0.270   2.863  0.00  0.00    +0.000 C 
ATOM     18  N   UNL     1       0.112  -0.760   2.958  0.00  0.00    +0.000 NA
ATOM     19  H   UNL     1      -0.287  -1.560   3.460  0.00  0.00    +0.000 HD
ENDBRANCH  10  13
ENDBRANCH   8   9
ENDBRANCH   1   8
BRANCH   4  20
ATOM     20  C   UNL     1      -0.420  -2.369  -6.822  0.00  0.00    +0.000 C 
BRANCH  20  21
ATOM     21  N   UNL     1      -1.364  -3.106  -7.618  0.00  0.00    +0.000 N 
ATOM     22  C   UNL     1      -1.292  -3.121  -8.987  0.00  0.00    +0.000 C 
ATOM     23  O   UNL     1      -0.391  -2.555  -9.600  0.00  0.00    +0.000 OA
ATOM     24  H   UNL     1      -2.239  -3.354  -7.167  0.00  0.00    +0.000 HD
BRANCH  22  25
ATOM     25  C   UNL     1      -2.318  -3.912  -9.678  0.00  0.00    +0.000 A 
ATOM     26  C   UNL     1      -2.067  -4.411 -10.949  0.00  0.00    +0.000 A 
ATOM     27  S   UNL     1      -3.328  -5.387 -11.555  0.00  0.00    +0.000 S 
ATOM     28  C   UNL     1      -4.277  -5.125 -10.166  0.00  0.00    +0.000 A 
ATOM     29  N   UNL     1      -5.509  -5.688 -10.040  0.00  0.00    +0.000 NA
ATOM     30  C   UNL     1      -6.128  -5.380  -8.949  0.00  0.00    +0.000 A 
ATOM     31  N   UNL     1      -5.628  -4.558  -7.973  0.00  0.00    +0.000 N 
ATOM     32  C   UNL     1      -4.380  -3.985  -8.049  0.00  0.00    +0.000 A 
ATOM     33  O   UNL     1      -3.952  -3.275  -7.142  0.00  0.00    +0.000 OA
ATOM     34  C   UNL     1      -3.639  -4.306  -9.252  0.00  0.00    +0.000 A 
ATOM     35  H   UNL     1      -6.163  -4.355  -7.142  0.00  0.00    +0.000 HD
ENDBRANCH  22  25
ENDBRANCH  20  21
ENDBRANCH   4  20
TORSDOF 6
