REMARK  Name = 
REMARK  8 active torsions:
REMARK  status: ('A' for Active; 'I' for Inactive)
REMARK    1  A    between atoms: N_1  and  C_2
REMARK    2  A    between atoms: C_2  and  C_3
REMARK    3  A    between atoms: C_2  and  C_19
REMARK    4  A    between atoms: C_3  and  N_4
REMARK    5  A    between atoms: C_7  and  N_8
REMARK    6  A    between atoms: N_8  and  C_9
REMARK    7  A    between atoms: C_9  and  C_10
REMARK    8  A    between atoms: C_10  and  N_11
REMARK                            x       y       z     vdW  Elec       q    Type
REMARK                         _______ _______ _______ _____ _____    ______ ____
ROOT
ATOM      1  N   UNL     1       0.367   0.316   1.320  0.00  0.00    +0.000 NA
ATOM      2  C   UNL     1       0.811   1.639   1.787  0.00  0.00    +0.000 C 
ATOM      3  C   UNL     1       0.217   1.993   3.151  0.00  0.00    +0.000 C 
ATOM      4  C   UNL     1      -1.316   1.901   3.177  0.00  0.00    +0.000 C 
ATOM      5  C   UNL     1      -1.706   0.507   2.659  0.00  0.00    +0.000 C 
ATOM      6  C   UNL     1      -1.100   0.220   1.285  0.00  0.00    +0.000 C 
ENDROOT
BRANCH   4   7
ATOM      7  N   UNL     1      -1.901   3.026   2.430  0.00  0.00    +0.000 NA
ATOM      8  H   UNL     1      -1.551   3.020   1.471  0.00  0.00    +0.000 HD
BRANCH   7   9
ATOM      9  C   UNL     1      -3.372   3.043   2.376  0.00  0.00    +0.000 C 
BRANCH   9  10
ATOM     10  C   UNL     1      -4.078   3.233   3.743  0.00  0.00    +0.000 C 
BRANCH  10  11
ATOM     11  N   UNL     1      -5.545   3.078   3.664  0.00  0.00    +0.000 NA
ATOM     12  C   UNL     1      -6.206   4.106   2.838  0.00  0.00    +0.000 C 
ATOM     13  C   UNL     1      -6.262   5.505   3.486  0.00  0.00    +0.000 C 
ATOM     14  N   UNL     1      -6.940   5.491   4.793  0.00  0.00    +0.000 NA
ATOM     15  C   UNL     1      -6.303   4.489   5.667  0.00  0.00    +0.000 C 
ATOM     16  C   UNL     1      -6.153   3.090   5.018  0.00  0.00    +0.000 C 
ATOM     17  H   UNL     1      -7.906   5.204   4.641  0.00  0.00    +0.000 HD
ENDBRANCH  10  11
ENDBRANCH   9  10
ENDBRANCH   7   9
ENDBRANCH   4   7
BRANCH   1  18
ATOM     18  C   UNL     1       0.931  -0.001  -0.013  0.00  0.00    +0.000 C 
BRANCH  18  19
ATOM     19  C   UNL     1       2.496  -0.060  -0.116  0.00  0.00    +0.000 C 
BRANCH  19  20
ATOM     20  C   UNL     1       2.916  -0.405  -1.534  0.00  0.00    +0.000 A 
ATOM     21  C   UNL     1       3.113  -1.680  -2.043  0.00  0.00    +0.000 A 
ATOM     22  S   UNL     1       3.472  -1.694  -3.714  0.00  0.00    +0.000 S 
ATOM     23  C   UNL     1       3.346   0.001  -3.818  0.00  0.00    +0.000 A 
ATOM     24  N   UNL     1       3.466   0.648  -5.008  0.00  0.00    +0.000 NA
ATOM     25  C   UNL     1       3.314   1.930  -4.932  0.00  0.00    +0.000 A 
ATOM     26  N   UNL     1       3.082   2.626  -3.773  0.00  0.00    +0.000 N 
ATOM     27  C   UNL     1       3.001   2.022  -2.539  0.00  0.00    +0.000 A 
ATOM     28  O   UNL     1       2.858   2.677  -1.514  0.00  0.00    +0.000 OA
ATOM     29  C   UNL     1       3.098   0.572  -2.585  0.00  0.00    +0.000 A 
ATOM     30  H   UNL     1       3.005   3.631  -3.780  0.00  0.00    +0.000 HD
ENDBRANCH  19  20
BRANCH  19  31
ATOM     31  N   UNL     1       3.086  -1.015   0.828  0.00  0.00    +0.000 NA
ATOM     32  H   UNL     1       4.082  -1.111   0.650  0.00  0.00    +0.000 HD
ATOM     33  H   UNL     1       2.644  -1.923   0.730  0.00  0.00    +0.000 HD
ENDBRANCH  19  31
ENDBRANCH  18  19
ENDBRANCH   1  18
TORSDOF 8
