REMARK  Name = 
REMARK  6 active torsions:
REMARK  status: ('A' for Active; 'I' for Inactive)
REMARK    1  A    between atoms: C_2  and  C_4
REMARK    2  A    between atoms: C_7  and  N_8
REMARK    3  A    between atoms: N_8  and  C_9
REMARK    4  A    between atoms: C_9  and  C_10
REMARK    5  A    between atoms: C_10  and  C_13
REMARK    6  A    between atoms: N_18  and  C_19
REMARK                            x       y       z     vdW  Elec       q    Type
REMARK                         _______ _______ _______ _____ _____    ______ ____
ROOT
ATOM      1  C   UNL     1       5.328   5.975  -4.534  0.00  0.00    +0.000 C 
ATOM      2  F   UNL     1       6.661   5.940  -4.236  0.00  0.00    +0.000 F 
ATOM      3  F   UNL     1       5.206   5.298  -5.719  0.00  0.00    +0.000 F 
ENDROOT
BRANCH   1   4
ATOM      4  C   UNL     1       4.814   7.393  -4.642  0.00  0.00    +0.000 A 
ATOM      5  C   UNL     1       5.321   8.423  -3.852  0.00  0.00    +0.000 A 
ATOM      6  C   UNL     1       4.742   9.677  -3.959  0.00  0.00    +0.000 A 
ATOM      7  N   UNL     1       3.699   9.961  -4.774  0.00  0.00    +0.000 NA
ATOM      8  C   UNL     1       3.236   8.977  -5.562  0.00  0.00    +0.000 A 
ATOM      9  N   UNL     1       2.149   9.189  -6.435  0.00  0.00    +0.000 N 
ATOM     10  C   UNL     1       3.774   7.693  -5.527  0.00  0.00    +0.000 A 
ATOM     11  H   UNL     1       2.460   9.009  -7.386  0.00  0.00    +0.000 HD
BRANCH   9  12
ATOM     12  C   UNL     1       1.259  10.308  -6.351  0.00  0.00    +0.000 C 
ATOM     13  C   UNL     1       0.274  10.184  -5.168  0.00  0.00    +0.000 C 
ATOM     14  C   UNL     1      -0.879  10.479  -6.142  0.00  0.00    +0.000 C 
ATOM     15  C   UNL     1       0.056  10.110  -7.303  0.00  0.00    +0.000 C 
ENDBRANCH   9  12
ENDBRANCH   1   4
BRANCH   1  16
ATOM     16  C   UNL     1       4.549   5.175  -3.449  0.00  0.00    +0.000 C 
BRANCH  16  17
ATOM     17  N   UNL     1       4.906   3.738  -3.434  0.00  0.00    +0.000 N 
ATOM     18  H   UNL     1       4.979   3.356  -4.378  0.00  0.00    +0.000 HD
BRANCH  17  22
ATOM     19  C   UNL     1       3.243   1.010  -0.763  0.00  0.00    +0.000 A 
ATOM     20  C   UNL     1       3.248   2.348  -0.400  0.00  0.00    +0.000 A 
ATOM     21  C   UNL     1       3.778   3.279  -1.296  0.00  0.00    +0.000 A 
ATOM     22  C   UNL     1       4.271   2.873  -2.538  0.00  0.00    +0.000 A 
ATOM     23  C   UNL     1       4.242   1.492  -2.779  0.00  0.00    +0.000 A 
ATOM     24  N   UNL     1       3.733   0.550  -1.944  0.00  0.00    +0.000 NA
BRANCH  19  26
ATOM     25  N   UNL     1       2.797  -1.312  -0.220  0.00  0.00    +0.000 N 
ATOM     26  C   UNL     1       2.701  -0.011   0.190  0.00  0.00    +0.000 C 
ATOM     27  O   UNL     1       2.211   0.289   1.273  0.00  0.00    +0.000 OA
ATOM     28  H   UNL     1       2.476  -2.052   0.387  0.00  0.00    +0.000 HD
ATOM     29  H   UNL     1       3.234  -1.525  -1.110  0.00  0.00    +0.000 HD
ENDBRANCH  19  26
ENDBRANCH  17  22
ENDBRANCH  16  17
ENDBRANCH   1  16
TORSDOF 6
