REMARK  Name = 
REMARK  5 active torsions:
REMARK  status: ('A' for Active; 'I' for Inactive)
REMARK    1  A    between atoms: C_1  and  C_2
REMARK    2  A    between atoms: C_2  and  O_3
REMARK    3  A    between atoms: C_2  and  C_13
REMARK    4  A    between atoms: O_3  and  C_4
REMARK    5  A    between atoms: C_7  and  C_8
REMARK                            x       y       z     vdW  Elec       q    Type
REMARK                         _______ _______ _______ _____ _____    ______ ____
ROOT
ATOM      1  C   UNL     1       2.362   0.224  -2.369  0.00  0.00    +0.000 A 
ATOM      2  C   UNL     1       2.031   1.071  -3.410  0.00  0.00    +0.000 A 
ATOM      3  C   UNL     1       1.723   0.521  -4.647  0.00  0.00    +0.000 A 
ATOM      4  C   UNL     1       1.791  -0.855  -4.782  0.00  0.00    +0.000 A 
ATOM      5  N   UNL     1       2.124  -1.669  -3.745  0.00  0.00    +0.000 NA
ATOM      6  N   UNL     1       2.412  -1.118  -2.517  0.00  0.00    +0.000 NA
ENDROOT
BRANCH   4   7
ATOM      7  C   UNL     1       1.526  -1.486  -6.107  0.00  0.00    +0.000 C 
ATOM      8  N   UNL     1       1.653  -2.848  -6.180  0.00  0.00    +0.000 N 
ATOM      9  O   UNL     1       1.224  -0.826  -7.093  0.00  0.00    +0.000 OA
ATOM     10  H   UNL     1       1.932  -3.396  -5.376  0.00  0.00    +0.000 HD
ATOM     11  H   UNL     1       1.521  -3.298  -7.076  0.00  0.00    +0.000 HD
ENDBRANCH   4   7
BRANCH   1  12
ATOM     12  O   UNL     1       2.716   0.828  -1.188  0.00  0.00    +0.000 OA
BRANCH  12  14
ATOM     13  C   UNL     1       1.018  -0.111   0.298  0.00  0.00    +0.000 C 
ATOM     14  C   UNL     1       2.511   0.061   0.007  0.00  0.00    +0.000 C 
BRANCH  14  15
ATOM     15  C   UNL     1       3.151   0.863   1.138  0.00  0.00    +0.000 A 
ATOM     16  C   UNL     1       4.117   0.283   1.962  0.00  0.00    +0.000 A 
ATOM     17  C   UNL     1       4.720   1.062   2.948  0.00  0.00    +0.000 A 
ATOM     18  C   UNL     1       4.345   2.391   3.096  0.00  0.00    +0.000 A 
ATOM     19  C   UNL     1       3.361   2.885   2.259  0.00  0.00    +0.000 A 
ATOM     20  N   UNL     1       2.757   2.155   1.297  0.00  0.00    +0.000 NA
ENDBRANCH  14  15
ENDBRANCH  12  14
ENDBRANCH   1  12
TORSDOF 4
