REMARK  Name = 
REMARK  7 active torsions:
REMARK  status: ('A' for Active; 'I' for Inactive)
REMARK    1  A    between atoms: C_1  and  C_2
REMARK    2  A    between atoms: C_2  and  C_3
REMARK    3  A    between atoms: C_2  and  N_4
REMARK    4  A    between atoms: C_2  and  C_5
REMARK    5  A    between atoms: C_8  and  C_9
REMARK    6  A    between atoms: C_9  and  N_10
REMARK    7  A    between atoms: C_15  and  C_16
REMARK                            x       y       z     vdW  Elec       q    Type
REMARK                         _______ _______ _______ _____ _____    ______ ____
ROOT
ATOM      1  N   UNL     1       5.601  -2.612  -5.073  0.00  0.00    +0.000 N 
ATOM      2  C   UNL     1       6.244  -1.692  -5.855  0.00  0.00    +0.000 A 
ATOM      3  N   UNL     1       7.545  -1.875  -5.861  0.00  0.00    +0.000 NA
ATOM      4  C   UNL     1       7.753  -2.966  -5.057  0.00  0.00    +0.000 A 
ATOM      5  N   UNL     1       8.955  -3.499  -4.770  0.00  0.00    +0.000 NA
ATOM      6  C   UNL     1       8.855  -4.567  -3.949  0.00  0.00    +0.000 A 
ATOM      7  N   UNL     1       7.726  -5.122  -3.441  0.00  0.00    +0.000 NA
ATOM      8  C   UNL     1       6.542  -4.563  -3.750  0.00  0.00    +0.000 A 
ATOM      9  C   UNL     1       6.552  -3.457  -4.567  0.00  0.00    +0.000 A 
ENDROOT
BRANCH   6  10
ATOM     10  C   UNL     1      10.161  -5.212  -3.534  0.00  0.00    +0.000 C 
ATOM     11  N   UNL     1      11.310  -4.655  -4.046  0.00  0.00    +0.000 N 
ATOM     12  O   UNL     1      10.233  -6.178  -2.780  0.00  0.00    +0.000 OA
ATOM     13  H   UNL     1      11.268  -3.853  -4.665  0.00  0.00    +0.000 HD
ATOM     14  H   UNL     1      12.199  -5.057  -3.788  0.00  0.00    +0.000 HD
ENDBRANCH   6  10
BRANCH   1  15
ATOM     15  C   UNL     1       4.163  -2.687  -4.861  0.00  0.00    +0.000 C 
BRANCH  15  19
ATOM     16  C   UNL     1       2.892  -0.667  -1.212  0.00  0.00    +0.000 A 
ATOM     17  C   UNL     1       3.543   0.032  -2.240  0.00  0.00    +0.000 A 
ATOM     18  C   UNL     1       3.952  -0.612  -3.415  0.00  0.00    +0.000 A 
ATOM     19  C   UNL     1       3.739  -1.985  -3.595  0.00  0.00    +0.000 A 
ATOM     20  C   UNL     1       3.076  -2.689  -2.584  0.00  0.00    +0.000 A 
ATOM     21  C   UNL     1       2.652  -2.038  -1.421  0.00  0.00    +0.000 A 
BRANCH  16  23
ATOM     22  C   UNL     1       0.961   0.532  -0.164  0.00  0.00    +0.000 C 
ATOM     23  C   UNL     1       2.398   0.033   0.061  0.00  0.00    +0.000 C 
ATOM     24  C   UNL     1       3.279   1.226   0.487  0.00  0.00    +0.000 C 
BRANCH  23  25
ATOM     25  N   UNL     1       2.383  -0.906   1.198  0.00  0.00    +0.000 NA
ATOM     26  H   UNL     1       2.108  -0.418   2.048  0.00  0.00    +0.000 HD
ATOM     27  H   UNL     1       3.334  -1.238   1.357  0.00  0.00    +0.000 HD
ENDBRANCH  23  25
ENDBRANCH  16  23
ENDBRANCH  15  19
ENDBRANCH   1  15
TORSDOF 5
