REMARK  Name = 
REMARK  5 active torsions:
REMARK  status: ('A' for Active; 'I' for Inactive)
REMARK    1  A    between atoms: N_1  and  C_2
REMARK    2  A    between atoms: C_6  and  C_7
REMARK    3  A    between atoms: C_7  and  C_8
REMARK    4  A    between atoms: C_8  and  S_9
REMARK    5  A    between atoms: S_9  and  C_10
REMARK                            x       y       z     vdW  Elec       q    Type
REMARK                         _______ _______ _______ _____ _____    ______ ____
ROOT
ATOM      1  C   UNL     1      -0.179   0.658  -1.280  0.00  0.00    +0.000 A 
ATOM      2  C   UNL     1       0.116   1.303  -0.078  0.00  0.00    +0.000 A 
ATOM      3  C   UNL     1      -0.194   0.705   1.146  0.00  0.00    +0.000 A 
ATOM      4  C   UNL     1      -0.839  -0.530   1.177  0.00  0.00    +0.000 A 
ATOM      5  C   UNL     1      -1.191  -1.171  -0.017  0.00  0.00    +0.000 A 
ATOM      6  C   UNL     1      -0.880  -0.552  -1.238  0.00  0.00    +0.000 A 
ENDROOT
BRANCH   1   7
ATOM      7  N   UNL     1       0.015   1.318  -2.500  0.00  0.00    +0.000 N 
ATOM      8  H   UNL     1       0.774   1.992  -2.481  0.00  0.00    +0.000 HD
ATOM      9  H   UNL     1       0.081   0.691  -3.296  0.00  0.00    +0.000 HD
ENDBRANCH   1   7
BRANCH   5  10
ATOM     10  C   UNL     1      -1.923  -2.494   0.003  0.00  0.00    +0.000 C 
BRANCH  10  11
ATOM     11  C   UNL     1      -3.441  -2.299  -0.015  0.00  0.00    +0.000 C 
BRANCH  11  12
ATOM     12  S   UNL     1      -4.286  -3.922  -0.032  0.00  0.00    +0.000 S 
BRANCH  12  13
ATOM     13  C   UNL     1      -6.017  -3.485  -0.050  0.00  0.00    +0.000 A 
ATOM     14  C   UNL     1      -6.953  -4.524  -0.068  0.00  0.00    +0.000 A 
ATOM     15  C   UNL     1      -8.320  -4.243  -0.079  0.00  0.00    +0.000 A 
ATOM     16  C   UNL     1      -8.718  -2.918  -0.072  0.00  0.00    +0.000 A 
ATOM     17  N   UNL     1      -7.854  -1.883  -0.056  0.00  0.00    +0.000 NA
ATOM     18  C   UNL     1      -6.532  -2.192  -0.046  0.00  0.00    +0.000 A 
ENDBRANCH  12  13
ENDBRANCH  11  12
ENDBRANCH  10  11
ENDBRANCH   5  10
TORSDOF 5
