REMARK  Name = 
REMARK  6 active torsions:
REMARK  status: ('A' for Active; 'I' for Inactive)
REMARK    1  A    between atoms: C_1  and  C_2
REMARK    2  A    between atoms: C_6  and  C_7
REMARK    3  A    between atoms: C_13  and  C_14
REMARK    4  A    between atoms: C_14  and  N_15
REMARK    5  A    between atoms: N_15  and  C_16
REMARK    6  A    between atoms: C_19  and  C_20
REMARK                            x       y       z     vdW  Elec       q    Type
REMARK                         _______ _______ _______ _____ _____    ______ ____
ROOT
ATOM      1  C   UNL     1       3.418  -3.735   3.759  0.00  0.00    +0.000 C 
ATOM      2  C   UNL     1       3.033  -5.201   3.762  0.00  0.00    +0.000 C 
ATOM      3  C   UNL     1       1.954  -4.181   3.624  0.00  0.00    +0.000 C 
ENDROOT
BRANCH   1  16
ATOM      4  C   UNL     1       0.823  -0.213   0.213  0.00  0.00    +0.000 C 
ATOM      5  C   UNL     1       2.352  -0.134   0.227  0.00  0.00    +0.000 C 
ATOM      6  C   UNL     1       2.862   1.044  -0.633  0.00  0.00    +0.000 C 
ATOM      7  O   UNL     1       2.628   0.837  -2.036  0.00  0.00    +0.000 OA
ATOM      8  C   UNL     1       3.309  -0.350  -2.492  0.00  0.00    +0.000 C 
ATOM      9  C   UNL     1       2.823  -1.600  -1.738  0.00  0.00    +0.000 C 
ATOM     10  C   UNL     1       3.461  -2.881  -2.260  0.00  0.00    +0.000 C 
ATOM     11  N   UNL     1       2.920  -1.391  -0.288  0.00  0.00    +0.000 N 
ATOM     12  C   UNL     1       3.819  -2.011   0.532  0.00  0.00    +0.000 A 
ATOM     13  N   UNL     1       5.054  -2.333   0.108  0.00  0.00    +0.000 NA
ATOM     14  C   UNL     1       5.808  -3.079   0.932  0.00  0.00    +0.000 A 
ATOM     15  C   UNL     1       5.374  -3.548   2.142  0.00  0.00    +0.000 A 
ATOM     16  C   UNL     1       4.086  -3.187   2.500  0.00  0.00    +0.000 A 
ATOM     17  N   UNL     1       3.358  -2.362   1.732  0.00  0.00    +0.000 NA
ENDBRANCH   1  16
BRANCH   1  18
ATOM     18  N   UNL     1       3.658  -2.916   4.963  0.00  0.00    +0.000 N 
ATOM     19  H   UNL     1       3.451  -1.935   4.781  0.00  0.00    +0.000 HD
BRANCH  18  20
ATOM     20  C   UNL     1       4.771  -3.026   5.819  0.00  0.00    +0.000 A 
ATOM     21  C   UNL     1       5.646  -4.110   5.844  0.00  0.00    +0.000 A 
ATOM     22  C   UNL     1       6.671  -4.174   6.800  0.00  0.00    +0.000 A 
ATOM     23  C   UNL     1       6.819  -3.161   7.755  0.00  0.00    +0.000 A 
ATOM     24  C   UNL     1       5.937  -2.081   7.750  0.00  0.00    +0.000 A 
ATOM     25  C   UNL     1       4.914  -2.030   6.800  0.00  0.00    +0.000 A 
BRANCH  23  26
ATOM     26  C   UNL     1       7.876  -3.304   8.788  0.00  0.00    +0.000 C 
ATOM     27  N   UNL     1       8.366  -2.162   9.361  0.00  0.00    +0.000 N 
ATOM     28  O   UNL     1       8.301  -4.401   9.120  0.00  0.00    +0.000 OA
ATOM     29  H   UNL     1       8.123  -1.228   9.068  0.00  0.00    +0.000 HD
ATOM     30  H   UNL     1       9.104  -2.273  10.046  0.00  0.00    +0.000 HD
ENDBRANCH  23  26
ENDBRANCH  18  20
ENDBRANCH   1  18
TORSDOF 4
