REMARK  Name = 
REMARK  6 active torsions:
REMARK  status: ('A' for Active; 'I' for Inactive)
REMARK    1  A    between atoms: C_2  and  C_4
REMARK    2  A    between atoms: C_7  and  O_8
REMARK    3  A    between atoms: O_8  and  C_9
REMARK    4  A    between atoms: C_9  and  C_10
REMARK    5  A    between atoms: C_15  and  N_16
REMARK    6  A    between atoms: C_19  and  O_20
REMARK                            x       y       z     vdW  Elec       q    Type
REMARK                         _______ _______ _______ _____ _____    ______ ____
ROOT
ATOM      1  C   UNL     1       5.033   5.920   0.673  0.00  0.00    +0.000 C 
ATOM      2  C   UNL     1       3.890   5.102   0.064  0.00  0.00    +0.000 C 
ATOM      3  C   UNL     1       5.198   4.448   0.344  0.00  0.00    +0.000 C 
ENDROOT
BRANCH   1   4
ATOM      4  C   UNL     1       5.768   6.932  -0.199  0.00  0.00    +0.000 A 
ATOM      5  C   UNL     1       7.161   7.049  -0.178  0.00  0.00    +0.000 A 
ATOM      6  C   UNL     1       7.831   7.915  -1.037  0.00  0.00    +0.000 A 
ATOM      7  C   UNL     1       7.127   8.663  -1.986  0.00  0.00    +0.000 A 
ATOM      8 CL   UNL     1       8.128   9.519  -3.116  0.00  0.00    +0.000 Cl
ATOM      9  C   UNL     1       5.717   8.605  -2.060  0.00  0.00    +0.000 A 
ATOM     10  C   UNL     1       5.084   7.756  -1.116  0.00  0.00    +0.000 A 
BRANCH   9  11
ATOM     11  N   UNL     1       4.935   9.273  -2.995  0.00  0.00    +0.000 N 
ATOM     12  C   UNL     1       3.709   8.670  -3.528  0.00  0.00    +0.000 C 
ATOM     13  C   UNL     1       2.509   9.527  -3.138  0.00  0.00    +0.000 C 
ATOM     14  C   UNL     1       2.701  10.978  -3.580  0.00  0.00    +0.000 C 
ATOM     15  C   UNL     1       4.036  11.547  -3.110  0.00  0.00    +0.000 C 
ATOM     16  C   UNL     1       5.218  10.638  -3.439  0.00  0.00    +0.000 C 
BRANCH  14  17
ATOM     17  O   UNL     1       2.574  11.090  -4.998  0.00  0.00    +0.000 OA
ATOM     18  H   UNL     1       3.287  10.586  -5.422  0.00  0.00    +0.000 HD
ENDBRANCH  14  17
ENDBRANCH   9  11
ENDBRANCH   1   4
BRANCH   1  19
ATOM     19  O   UNL     1       4.657   6.335   2.007  0.00  0.00    +0.000 OA
BRANCH  19  23
ATOM     20  C   UNL     1       7.002   5.915   5.432  0.00  0.00    +0.000 A 
ATOM     21  C   UNL     1       7.537   5.507   4.203  0.00  0.00    +0.000 A 
ATOM     22  C   UNL     1       6.773   5.611   3.034  0.00  0.00    +0.000 A 
ATOM     23  C   UNL     1       5.494   6.156   3.074  0.00  0.00    +0.000 A 
ATOM     24  C   UNL     1       4.963   6.560   4.304  0.00  0.00    +0.000 A 
ATOM     25  C   UNL     1       5.705   6.428   5.480  0.00  0.00    +0.000 A 
BRANCH  20  27
ATOM     26  N   UNL     1       9.124   5.780   6.618  0.00  0.00    +0.000 N 
ATOM     27  C   UNL     1       7.763   5.762   6.701  0.00  0.00    +0.000 C 
ATOM     28  O   UNL     1       7.195   5.648   7.783  0.00  0.00    +0.000 OA
ATOM     29  H   UNL     1       9.623   5.764   7.499  0.00  0.00    +0.000 HD
ATOM     30  H   UNL     1       9.614   6.142   5.812  0.00  0.00    +0.000 HD
ENDBRANCH  20  27
ENDBRANCH  19  23
ENDBRANCH   1  19
TORSDOF 6
