REMARK  Name = 
REMARK  11 active torsions:
REMARK  status: ('A' for Active; 'I' for Inactive)
REMARK    1  A    between atoms: C_1  and  C_2
REMARK    2  A    between atoms: C_2  and  N_3
REMARK    3  A    between atoms: C_2  and  C_20
REMARK    4  A    between atoms: N_3  and  C_4
REMARK    5  A    between atoms: C_4  and  C_5
REMARK    6  A    between atoms: C_8  and  C_9
REMARK    7  A    between atoms: C_9  and  O_10
REMARK    8  A    between atoms: C_9  and  C_11
REMARK    9  A    between atoms: C_11  and  N_12
REMARK   10  A    between atoms: N_12  and  C_13
REMARK   11  A    between atoms: N_26  and  C_27
REMARK                            x       y       z     vdW  Elec       q    Type
REMARK                         _______ _______ _______ _____ _____    ______ ____
ROOT
ATOM      1  C   UNL     1      -6.356  -5.511 -10.259  0.00  0.00    +0.000 A 
ATOM      2  C   UNL     1      -7.153  -5.672  -9.119  0.00  0.00    +0.000 A 
ATOM      3  C   UNL     1      -6.859  -4.986  -7.944  0.00  0.00    +0.000 A 
ATOM      4  C   UNL     1      -5.760  -4.115  -7.881  0.00  0.00    +0.000 A 
ATOM      5  C   UNL     1      -4.957  -3.964  -9.022  0.00  0.00    +0.000 A 
ATOM      6  C   UNL     1      -5.249  -4.657 -10.198  0.00  0.00    +0.000 A 
ENDROOT
BRANCH   1   7
ATOM      7  C   UNL     1      -6.616  -6.335 -11.495  0.00  0.00    +0.000 C 
BRANCH   7   8
ATOM      8  N   UNL     1      -7.997  -6.212 -11.978  0.00  0.00    +0.000 NA
ATOM      9  H   UNL     1      -8.118  -5.231 -12.258  0.00  0.00    +0.000 HD
BRANCH   8  11
ATOM     10  C   UNL     1      -7.955  -8.529 -12.867  0.00  0.00    +0.000 C 
ATOM     11  C   UNL     1      -8.244  -7.043 -13.165  0.00  0.00    +0.000 C 
BRANCH  11  12
ATOM     12  C   UNL     1      -9.685  -6.822 -13.636  0.00  0.00    +0.000 A 
ATOM     13  C   UNL     1     -10.637  -7.827 -13.736  0.00  0.00    +0.000 A 
ATOM     14  S   UNL     1     -12.116  -7.324 -14.412  0.00  0.00    +0.000 S 
ATOM     15  C   UNL     1     -11.565  -5.725 -14.561  0.00  0.00    +0.000 A 
ATOM     16  N   UNL     1     -12.372  -4.769 -15.085  0.00  0.00    +0.000 NA
ATOM     17  C   UNL     1     -11.850  -3.587 -15.105  0.00  0.00    +0.000 A 
ATOM     18  N   UNL     1     -10.582  -3.258 -14.656  0.00  0.00    +0.000 N 
ATOM     19  C   UNL     1     -10.152  -1.879 -14.686  0.00  0.00    +0.000 C 
ATOM     20  C   UNL     1      -9.712  -4.226 -14.146  0.00  0.00    +0.000 A 
ATOM     21  O   UNL     1      -8.573  -3.970 -13.759  0.00  0.00    +0.000 OA
ATOM     22  C   UNL     1     -10.271  -5.572 -14.098  0.00  0.00    +0.000 A 
ENDBRANCH  11  12
ENDBRANCH   8  11
ENDBRANCH   7   8
ENDBRANCH   1   7
BRANCH   4  23
ATOM     23  C   UNL     1      -5.479  -3.346  -6.605  0.00  0.00    +0.000 C 
BRANCH  23  24
ATOM     24  O   UNL     1      -4.221  -3.750  -6.050  0.00  0.00    +0.000 OA
ATOM     25  H   UNL     1      -3.688  -4.127  -6.770  0.00  0.00    +0.000 HD
ENDBRANCH  23  24
BRANCH  23  26
ATOM     26  C   UNL     1      -5.444  -1.811  -6.808  0.00  0.00    +0.000 C 
BRANCH  26  27
ATOM     27  N   UNL     1      -6.682  -1.246  -7.361  0.00  0.00    +0.000 NA
ATOM     28  H   UNL     1      -7.465  -1.460  -6.744  0.00  0.00    +0.000 HD
BRANCH  27  29
ATOM     29  C   UNL     1      -6.581   0.195  -7.577  0.00  0.00    +0.000 C 
ATOM     30  C   UNL     1      -5.577   0.595  -8.641  0.00  0.00    +0.000 C 
ATOM     31  C   UNL     1      -6.037   1.989  -9.006  0.00  0.00    +0.000 C 
ATOM     32  O   UNL     1      -7.458   2.030  -8.820  0.00  0.00    +0.000 OA
ATOM     33  C   UNL     1      -7.856   0.830  -8.136  0.00  0.00    +0.000 C 
ENDBRANCH  27  29
ENDBRANCH  26  27
ENDBRANCH  23  26
ENDBRANCH   4  23
TORSDOF 9
