REMARK  Name = 
REMARK  3 active torsions:
REMARK  status: ('A' for Active; 'I' for Inactive)
REMARK    1  A    between atoms: C_5  and  C_6
REMARK    2  A    between atoms: C_10  and  C_11
REMARK    3  A    between atoms: C_11  and  N_12
REMARK                            x       y       z     vdW  Elec       q    Type
REMARK                         _______ _______ _______ _____ _____    ______ ____
ROOT
ATOM      1  C   UNL     1       1.585  -2.450   0.034  0.00  0.00    +0.000 A 
ATOM      2  C   UNL     1       2.485  -2.708   1.067  0.00  0.00    +0.000 A 
ATOM      3  C   UNL     1       3.218  -3.892   1.057  0.00  0.00    +0.000 A 
ATOM      4  C   UNL     1       3.037  -4.798   0.021  0.00  0.00    +0.000 A 
ATOM      5  C   UNL     1       2.112  -4.498  -0.975  0.00  0.00    +0.000 A 
ATOM      6  N   UNL     1       1.400  -3.338  -0.978  0.00  0.00    +0.000 NA
ENDROOT
BRANCH   1  11
ATOM      7  C   UNL     1      -0.230   0.587  -1.336  0.00  0.00    +0.000 A 
ATOM      8  C   UNL     1      -0.560   1.208  -0.143  0.00  0.00    +0.000 A 
ATOM      9  N   UNL     1      -0.271   0.694   1.068  0.00  0.00    +0.000 NA
ATOM     10  C   UNL     1       0.395  -0.490   1.081  0.00  0.00    +0.000 A 
ATOM     11  C   UNL     1       0.809  -1.199  -0.049  0.00  0.00    +0.000 A 
ATOM     12  C   UNL     1       0.457  -0.627  -1.281  0.00  0.00    +0.000 A 
ENDBRANCH   1  11
BRANCH   5  13
ATOM     13  C   UNL     1       1.864  -5.482  -2.105  0.00  0.00    +0.000 C 
BRANCH  13  14
ATOM     14  N   UNL     1       2.741  -5.228  -3.235  0.00  0.00    +0.000 N 
ATOM     15  C   UNL     1       2.675  -6.024  -4.361  0.00  0.00    +0.000 A 
ATOM     16  C   UNL     1       1.510  -6.627  -4.844  0.00  0.00    +0.000 A 
ATOM     17  N   UNL     1       1.450  -7.366  -5.983  0.00  0.00    +0.000 NA
ATOM     18  C   UNL     1       2.612  -7.461  -6.657  0.00  0.00    +0.000 A 
ATOM     19  C   UNL     1       3.773  -6.864  -6.202  0.00  0.00    +0.000 A 
ATOM     20  N   UNL     1       3.829  -6.151  -5.050  0.00  0.00    +0.000 NA
ATOM     21  H   UNL     1       3.712  -5.019  -3.024  0.00  0.00    +0.000 HD
ENDBRANCH  13  14
ENDBRANCH   5  13
TORSDOF 3
