REMARK  Name = 
REMARK  13 active torsions:
REMARK  status: ('A' for Active; 'I' for Inactive)
REMARK    1  A    between atoms: C_1  and  C_2
REMARK    2  A    between atoms: C_2  and  C_3
REMARK    3  A    between atoms: C_2  and  C_4
REMARK    4  A    between atoms: C_2  and  O_5
REMARK    5  A    between atoms: O_5  and  C_6
REMARK    6  A    between atoms: N_8  and  CA_9
REMARK    7  A    between atoms: CA_9  and  C_10
REMARK    8  A    between atoms: CA_9  and  C_12
REMARK    9  A    between atoms: C_10  and  O_11
REMARK   10  A    between atoms: N_14  and  C_15
REMARK   11  A    between atoms: C_15  and  C_16
REMARK   12  A    between atoms: C_19  and  C_20
REMARK   13  A    between atoms: C_20  and  N_21
REMARK                            x       y       z     vdW  Elec       q    Type
REMARK                         _______ _______ _______ _____ _____    ______ ____
ROOT
ATOM      1  C   UNL     1       6.446   2.501  -4.069  0.00  0.00    +0.000 A 
ATOM      2  C   UNL     1       6.281   3.873  -4.168  0.00  0.00    +0.000 A 
ATOM      3  N   UNL     1       6.521   4.258  -5.464  0.00  0.00    +0.000 N 
ATOM      4  C   UNL     1       6.787   3.152  -6.241  0.00  0.00    +0.000 A 
ATOM      5  C   UNL     1       7.058   3.031  -7.602  0.00  0.00    +0.000 A 
ATOM      6  N   UNL     1       7.315   1.812  -8.125  0.00  0.00    +0.000 NA
ATOM      7  C   UNL     1       7.294   0.736  -7.314  0.00  0.00    +0.000 A 
ATOM      8  C   UNL     1       7.023   0.776  -5.954  0.00  0.00    +0.000 A 
ATOM      9  C   UNL     1       6.758   2.039  -5.394  0.00  0.00    +0.000 A 
ENDROOT
BRANCH   1  10
ATOM     10  CA  UNL     1       6.336   1.653  -2.830  0.00  0.00    +0.000 C 
BRANCH  10  13
ATOM     11  C   UNL     1       7.333   1.870  -0.592  0.00  0.00    +0.000 C 
ATOM     12  O   UNL     1       7.523   0.671  -0.508  0.00  0.00    +0.000 OA
ATOM     13  N   UNL     1       6.752   2.445  -1.675  0.00  0.00    +0.000 N 
ATOM     14  H   UNL     1       6.528   3.429  -1.610  0.00  0.00    +0.000 HD
BRANCH  11  15
ATOM     15  O   UNL     1       7.630   2.799   0.346  0.00  0.00    +0.000 OA
BRANCH  15  17
ATOM     16  C   UNL     1       9.750   1.880   1.163  0.00  0.00    +0.000 C 
ATOM     17  C   UNL     1       8.346   2.378   1.537  0.00  0.00    +0.000 C 
ATOM     18  C   UNL     1       7.553   1.339   2.343  0.00  0.00    +0.000 C 
ATOM     19  C   UNL     1       8.504   3.630   2.414  0.00  0.00    +0.000 C 
ENDBRANCH  15  17
ENDBRANCH  11  15
ENDBRANCH  10  13
BRANCH  10  20
ATOM     20  C   UNL     1       4.921   1.056  -2.644  0.00  0.00    +0.000 C 
BRANCH  20  21
ATOM     21  O   UNL     1       4.805   0.178  -1.520  0.00  0.00    +0.000 OA
ATOM     22  H   UNL     1       5.611   0.257  -0.974  0.00  0.00    +0.000 HD
ENDBRANCH  20  21
ENDBRANCH  10  20
ENDBRANCH   1  10
BRANCH   3  23
ATOM     23  C   UNL     1       6.551   5.651  -5.905  0.00  0.00    +0.000 C 
BRANCH  23  24
ATOM     24  C   UNL     1       5.218   6.091  -6.450  0.00  0.00    +0.000 A 
ATOM     25  C   UNL     1       4.081   6.129  -5.629  0.00  0.00    +0.000 A 
ATOM     26  C   UNL     1       2.830   6.451  -6.157  0.00  0.00    +0.000 A 
ATOM     27  C   UNL     1       2.689   6.756  -7.516  0.00  0.00    +0.000 A 
ATOM     28  C   UNL     1       3.836   6.788  -8.321  0.00  0.00    +0.000 A 
ATOM     29  C   UNL     1       5.088   6.459  -7.795  0.00  0.00    +0.000 A 
BRANCH  27  30
ATOM     30  C   UNL     1       1.324   6.976  -8.113  0.00  0.00    +0.000 C 
BRANCH  30  31
ATOM     31  N   UNL     1       1.172   8.313  -8.668  0.00  0.00    +0.000 NA
ATOM     32  H   UNL     1       1.273   8.993  -7.915  0.00  0.00    +0.000 HD
ATOM     33  H   UNL     1       0.222   8.415  -9.020  0.00  0.00    +0.000 HD
ENDBRANCH  30  31
ENDBRANCH  27  30
ENDBRANCH  23  24
ENDBRANCH   3  23
TORSDOF 10
