REMARK  Name = 
REMARK  7 active torsions:
REMARK  status: ('A' for Active; 'I' for Inactive)
REMARK    1  A    between atoms: C_2  and  C_20
REMARK    2  A    between atoms: N_3  and  C_4
REMARK    3  A    between atoms: C_4  and  C_5
REMARK    4  A    between atoms: C_8  and  C_9
REMARK    5  A    between atoms: C_9  and  C_10
REMARK    6  A    between atoms: C_10  and  N_11
REMARK    7  A    between atoms: N_11  and  C_12
REMARK                            x       y       z     vdW  Elec       q    Type
REMARK                         _______ _______ _______ _____ _____    ______ ____
ROOT
ATOM      1  C   UNL     1       2.245  -1.651   1.793  0.00  0.00    +0.000 C 
ENDROOT
BRANCH   1   2
ATOM      2  C   UNL     1       3.206  -2.401   2.683  0.00  0.00    +0.000 A 
ATOM      3  C   UNL     1       4.165  -1.707   3.413  0.00  0.00    +0.000 A 
ATOM      4  C   UNL     1       5.011  -2.414   4.263  0.00  0.00    +0.000 A 
ATOM      5  C   UNL     1       4.884  -3.798   4.385  0.00  0.00    +0.000 A 
ATOM      6  C   UNL     1       3.927  -4.409   3.579  0.00  0.00    +0.000 A 
ATOM      7  N   UNL     1       3.096  -3.754   2.733  0.00  0.00    +0.000 NA
BRANCH   5   8
ATOM      8  C   UNL     1       5.749  -4.635   5.298  0.00  0.00    +0.000 C 
BRANCH   8   9
ATOM      9  C   UNL     1       6.324  -3.931   6.545  0.00  0.00    +0.000 C 
BRANCH   9  10
ATOM     10  N   UNL     1       5.274  -3.393   7.418  0.00  0.00    +0.000 NA
ATOM     11  H   UNL     1       4.642  -4.140   7.701  0.00  0.00    +0.000 HD
BRANCH  10  12
ATOM     12  C   UNL     1       5.783  -2.691   8.605  0.00  0.00    +0.000 C 
ATOM     13  C   UNL     1       4.577  -2.226   9.444  0.00  0.00    +0.000 C 
ATOM     14  C   UNL     1       5.002  -1.406  10.663  0.00  0.00    +0.000 C 
ATOM     15  C   UNL     1       5.879  -0.224  10.268  0.00  0.00    +0.000 C 
ATOM     16  C   UNL     1       7.090  -0.688   9.469  0.00  0.00    +0.000 C 
ATOM     17  C   UNL     1       6.673  -1.489   8.240  0.00  0.00    +0.000 C 
ENDBRANCH  10  12
ENDBRANCH   9  10
ENDBRANCH   8   9
ENDBRANCH   5   8
ENDBRANCH   1   2
BRANCH   1  20
ATOM     18  O   UNL     1       3.709   0.584   0.956  0.00  0.00    +0.000 OA
ATOM     19  C   UNL     1       3.517  -0.324   0.156  0.00  0.00    +0.000 C 
ATOM     20  N   UNL     1       2.771  -1.439   0.461  0.00  0.00    +0.000 N 
ATOM     21  H   UNL     1       2.799  -2.238  -0.156  0.00  0.00    +0.000 HD
BRANCH  19  22
ATOM     22  C   UNL     1       4.040  -0.297  -1.207  0.00  0.00    +0.000 A 
ATOM     23  C   UNL     1       3.400  -0.853  -2.311  0.00  0.00    +0.000 A 
ATOM     24  N   UNL     1       4.138  -0.571  -3.429  0.00  0.00    +0.000 N 
ATOM     25  C   UNL     1       5.249   0.136  -3.076  0.00  0.00    +0.000 A 
ATOM     26  N   UNL     1       6.177   0.551  -3.954  0.00  0.00    +0.000 NA
ATOM     27  C   UNL     1       7.177   1.213  -3.352  0.00  0.00    +0.000 A 
ATOM     28  N   UNL     1       7.321   1.469  -2.045  0.00  0.00    +0.000 NA
ATOM     29  C   UNL     1       6.348   1.027  -1.227  0.00  0.00    +0.000 A 
ATOM     30 CL   UNL     1       6.590   1.276   0.432  0.00  0.00    +0.000 Cl
ATOM     31  C   UNL     1       5.239   0.329  -1.700  0.00  0.00    +0.000 A 
ATOM     32  H   UNL     1       3.911  -0.825  -4.381  0.00  0.00    +0.000 HD
ENDBRANCH  19  22
ENDBRANCH   1  20
TORSDOF 7
