REMARK  Name = 
REMARK  5 active torsions:
REMARK  status: ('A' for Active; 'I' for Inactive)
REMARK    1  A    between atoms: C_2  and  C_5
REMARK    2  A    between atoms: C_7  and  O_8
REMARK    3  A    between atoms: O_8  and  C_9
REMARK    4  A    between atoms: C_9  and  C_10
REMARK    5  A    between atoms: C_14  and  C_15
REMARK                            x       y       z     vdW  Elec       q    Type
REMARK                         _______ _______ _______ _____ _____    ______ ____
ROOT
ATOM      1  C   UNL     1       4.873   0.007   4.630  0.00  0.00    +0.000 C 
ENDROOT
BRANCH   1   2
ATOM      2  C   UNL     1       5.526   0.131   5.977  0.00  0.00    +0.000 A 
ATOM      3  C   UNL     1       5.907  -0.994   6.693  0.00  0.00    +0.000 A 
ATOM      4  N   UNL     1       6.516  -0.947   7.896  0.00  0.00    +0.000 NA
ATOM      5  C   UNL     1       6.743   0.283   8.420  0.00  0.00    +0.000 A 
ATOM      6  C   UNL     1       6.401   1.492   7.810  0.00  0.00    +0.000 A 
ATOM      7  C   UNL     1       5.770   1.382   6.560  0.00  0.00    +0.000 A 
BRANCH   6   8
ATOM      8  C   UNL     1       6.689   2.794   8.432  0.00  0.00    +0.000 A 
ATOM      9  C   UNL     1       7.802   3.039   9.224  0.00  0.00    +0.000 A 
ATOM     10  N   UNL     1       8.091   4.221   9.812  0.00  0.00    +0.000 NA
ATOM     11  C   UNL     1       7.219   5.212   9.585  0.00  0.00    +0.000 A 
ATOM     12  N   UNL     1       6.112   5.121   8.838  0.00  0.00    +0.000 NA
ATOM     13  C   UNL     1       5.876   3.910   8.285  0.00  0.00    +0.000 A 
ENDBRANCH   6   8
ENDBRANCH   1   2
BRANCH   1  14
ATOM     14  O   UNL     1       3.462  -0.110   4.805  0.00  0.00    +0.000 OA
BRANCH  14  17
ATOM     15  C   UNL     1       2.268  -0.265   1.301  0.00  0.00    +0.000 A 
ATOM     16  C   UNL     1       3.177  -0.180   2.361  0.00  0.00    +0.000 A 
ATOM     17  C   UNL     1       2.699  -0.194   3.670  0.00  0.00    +0.000 A 
ATOM     18  C   UNL     1       1.332  -0.302   3.887  0.00  0.00    +0.000 A 
ATOM     19  C   UNL     1       0.490  -0.389   2.792  0.00  0.00    +0.000 A 
ATOM     20  N   UNL     1       0.926  -0.373   1.516  0.00  0.00    +0.000 NA
BRANCH  15  22
ATOM     21  F   UNL     1       4.139  -0.089  -0.213  0.00  0.00    +0.000 F 
ATOM     22  C   UNL     1       2.781  -0.234  -0.135  0.00  0.00    +0.000 C 
ATOM     23  F   UNL     1       2.268   0.795  -0.867  0.00  0.00    +0.000 F 
ATOM     24  F   UNL     1       2.500  -1.374  -0.829  0.00  0.00    +0.000 F 
ENDBRANCH  15  22
ENDBRANCH  14  17
ENDBRANCH   1  14
TORSDOF 5
