REMARK  Name = 
REMARK  7 active torsions:
REMARK  status: ('A' for Active; 'I' for Inactive)
REMARK    1  A    between atoms: C_1  and  C_2
REMARK    2  A    between atoms: C_2  and  C_3
REMARK    3  A    between atoms: C_2  and  C_4
REMARK    4  A    between atoms: C_2  and  C_20
REMARK    5  A    between atoms: C_4  and  N_5
REMARK    6  A    between atoms: N_5  and  C_6
REMARK    7  A    between atoms: C_10  and  C_11
REMARK                            x       y       z     vdW  Elec       q    Type
REMARK                         _______ _______ _______ _____ _____    ______ ____
ROOT
ATOM      1  C   UNL     1       2.989  -3.244  -1.928  0.00  0.00    +0.000 A 
ATOM      2  C   UNL     1       3.816  -2.938  -3.010  0.00  0.00    +0.000 A 
ATOM      3  C   UNL     1       4.224  -3.929  -3.901  0.00  0.00    +0.000 A 
ATOM      4  C   UNL     1       3.839  -5.255  -3.702  0.00  0.00    +0.000 A 
ATOM      5  C   UNL     1       3.046  -5.624  -2.603  0.00  0.00    +0.000 A 
ATOM      6  C   UNL     1       2.631  -4.592  -1.737  0.00  0.00    +0.000 A 
ENDROOT
BRANCH   5   7
ATOM      7  C   UNL     1       2.690  -7.038  -2.354  0.00  0.00    +0.000 A 
ATOM      8  C   UNL     1       1.472  -7.417  -1.774  0.00  0.00    +0.000 A 
ATOM      9  N   UNL     1       1.088  -8.693  -1.506  0.00  0.00    +0.000 NA
ATOM     10  C   UNL     1       1.966  -9.662  -1.843  0.00  0.00    +0.000 A 
ATOM     11  F   UNL     1       1.612 -10.930  -1.593  0.00  0.00    +0.000 F 
ATOM     12  C   UNL     1       3.194  -9.409  -2.427  0.00  0.00    +0.000 A 
ATOM     13  F   UNL     1       4.030 -10.405  -2.746  0.00  0.00    +0.000 F 
ATOM     14  C   UNL     1       3.560  -8.089  -2.678  0.00  0.00    +0.000 A 
ENDBRANCH   5   7
BRANCH   1  15
ATOM     15  N   UNL     1       2.586  -2.317  -0.960  0.00  0.00    +0.000 N 
ATOM     16  H   UNL     1       1.606  -2.460  -0.718  0.00  0.00    +0.000 HD
BRANCH  15  17
ATOM     17  C   UNL     1       2.925  -0.898  -1.114  0.00  0.00    +0.000 C 
BRANCH  17  19
ATOM     18  C   UNL     1       2.959  -0.556   1.399  0.00  0.00    +0.000 C 
ATOM     19  C   UNL     1       2.386  -0.032   0.063  0.00  0.00    +0.000 C 
ATOM     20  C   UNL     1       2.914   1.411  -0.120  0.00  0.00    +0.000 C 
BRANCH  19  21
ATOM     21  C   UNL     1       0.856   0.023   0.010  0.00  0.00    +0.000 A 
ATOM     22  C   UNL     1       0.043  -0.409   1.058  0.00  0.00    +0.000 A 
ATOM     23  C   UNL     1      -1.340  -0.270   0.956  0.00  0.00    +0.000 A 
ATOM     24  C   UNL     1      -1.889   0.286  -0.191  0.00  0.00    +0.000 A 
ATOM     25  C   UNL     1      -1.027   0.670  -1.198  0.00  0.00    +0.000 A 
ATOM     26  N   UNL     1       0.317   0.549  -1.122  0.00  0.00    +0.000 NA
ENDBRANCH  19  21
ENDBRANCH  17  19
ENDBRANCH  15  17
ENDBRANCH   1  15
TORSDOF 5
