REMARK  Name = 
REMARK  4 active torsions:
REMARK  status: ('A' for Active; 'I' for Inactive)
REMARK    1  A    between atoms: C_2  and  C_4
REMARK    2  A    between atoms: N_8  and  C_9
REMARK    3  A    between atoms: C_9  and  C_10
REMARK    4  A    between atoms: C_15  and  C_16
REMARK                            x       y       z     vdW  Elec       q    Type
REMARK                         _______ _______ _______ _____ _____    ______ ____
ROOT
ATOM      1  C   UNL     1       4.971  -2.223  -5.634  0.00  0.00    +0.000 C 
ATOM      2  C   UNL     1       5.102  -0.938  -6.440  0.00  0.00    +0.000 C 
ATOM      3  C   UNL     1       3.783  -1.625  -6.368  0.00  0.00    +0.000 C 
ENDROOT
BRANCH   1   8
ATOM      4  C   UNL     1       3.075  -3.561  -0.966  0.00  0.00    +0.000 A 
ATOM      5  C   UNL     1       2.381  -3.177  -2.114  0.00  0.00    +0.000 A 
ATOM      6  C   UNL     1       3.084  -2.695  -3.219  0.00  0.00    +0.000 A 
ATOM      7  C   UNL     1       4.466  -2.597  -3.163  0.00  0.00    +0.000 A 
ATOM      8  N   UNL     1       5.235  -2.052  -4.194  0.00  0.00    +0.000 N 
ATOM      9  N   UNL     1       5.154  -2.952  -2.051  0.00  0.00    +0.000 NA
ATOM     10  C   UNL     1       4.452  -3.409  -0.978  0.00  0.00    +0.000 A 
ATOM     11  H   UNL     1       6.205  -2.162  -3.903  0.00  0.00    +0.000 HD
BRANCH   4  13
ATOM     12  N   UNL     1       1.191  -4.677   0.054  0.00  0.00    +0.000 N 
ATOM     13  C   UNL     1       2.389  -4.049   0.241  0.00  0.00    +0.000 C 
ATOM     14  O   UNL     1       2.878  -3.922   1.353  0.00  0.00    +0.000 OA
ATOM     15  H   UNL     1       0.743  -5.073   0.873  0.00  0.00    +0.000 HD
ATOM     16  H   UNL     1       0.874  -5.006  -0.849  0.00  0.00    +0.000 HD
ENDBRANCH   4  13
ENDBRANCH   1   8
BRANCH   1  17
ATOM     17  C   UNL     1       5.532  -3.523  -6.201  0.00  0.00    +0.000 A 
ATOM     18  C   UNL     1       6.836  -3.618  -6.712  0.00  0.00    +0.000 A 
ATOM     19  C   UNL     1       7.343  -4.836  -7.166  0.00  0.00    +0.000 A 
ATOM     20  C   UNL     1       6.548  -5.979  -7.115  0.00  0.00    +0.000 A 
ATOM     21  F   UNL     1       7.100  -7.132  -7.525  0.00  0.00    +0.000 F 
ATOM     22  C   UNL     1       5.228  -5.949  -6.646  0.00  0.00    +0.000 A 
ATOM     23  C   UNL     1       4.752  -4.699  -6.195  0.00  0.00    +0.000 A 
BRANCH  22  24
ATOM     24  C   UNL     1       4.368  -7.147  -6.611  0.00  0.00    +0.000 A 
ATOM     25  C   UNL     1       3.364  -7.342  -5.675  0.00  0.00    +0.000 A 
ATOM     26  N   UNL     1       2.542  -8.414  -5.625  0.00  0.00    +0.000 NA
ATOM     27  C   UNL     1       2.746  -9.342  -6.565  0.00  0.00    +0.000 A 
ATOM     28  N   UNL     1       3.678  -9.288  -7.528  0.00  0.00    +0.000 NA
ATOM     29  C   UNL     1       4.462  -8.189  -7.525  0.00  0.00    +0.000 A 
ENDBRANCH  22  24
ENDBRANCH   1  17
TORSDOF 4
