REMARK  Name = 
REMARK  11 active torsions:
REMARK  status: ('A' for Active; 'I' for Inactive)
REMARK    1  A    between atoms: C_1  and  C_2
REMARK    2  A    between atoms: C_2  and  N_3
REMARK    3  A    between atoms: C_2  and  C_13
REMARK    4  A    between atoms: N_3  and  C_4
REMARK    5  A    between atoms: C_4  and  C_5
REMARK    6  A    between atoms: C_8  and  C_9
REMARK    7  A    between atoms: C_9  and  O_10
REMARK    8  A    between atoms: C_16  and  C_17
REMARK    9  A    between atoms: C_17  and  N_18
REMARK   10  A    between atoms: C_19  and  C_21
REMARK   11  A    between atoms: N_27  and  C_28
REMARK                            x       y       z     vdW  Elec       q    Type
REMARK                         _______ _______ _______ _____ _____    ______ ____
ROOT
ATOM      1  C   UNL     1       0.561  -2.104  -4.104  0.00  0.00    +0.000 A 
ATOM      2  C   UNL     1       0.348  -1.901  -5.463  0.00  0.00    +0.000 A 
ATOM      3  C   UNL     1      -0.759  -1.167  -5.870  0.00  0.00    +0.000 A 
ATOM      4  C   UNL     1      -1.613  -0.659  -4.905  0.00  0.00    +0.000 A 
ATOM      5  N   UNL     1      -1.391  -0.873  -3.590  0.00  0.00    +0.000 NA
ATOM      6  N   UNL     1      -0.297  -1.591  -3.191  0.00  0.00    +0.000 NA
ENDROOT
BRANCH   1   8
ATOM      7  C   UNL     1       1.614  -3.244  -2.112  0.00  0.00    +0.000 C 
ATOM      8  C   UNL     1       1.743  -2.943  -3.617  0.00  0.00    +0.000 C 
BRANCH   8   9
ATOM      9  N   UNL     1       3.036  -2.303  -3.960  0.00  0.00    +0.000 NA
ATOM     10  H   UNL     1       3.077  -2.137  -4.963  0.00  0.00    +0.000 HD
BRANCH   9  11
ATOM     11  C   UNL     1       4.191  -3.103  -3.559  0.00  0.00    +0.000 C 
BRANCH  11  12
ATOM     12  C   UNL     1       5.537  -2.464  -3.964  0.00  0.00    +0.000 C 
ATOM     13  C   UNL     1       5.735  -1.046  -3.405  0.00  0.00    +0.000 C 
ATOM     14  C   UNL     1       5.883  -1.022  -1.884  0.00  0.00    +0.000 C 
ATOM     15  C   UNL     1       6.995  -1.964  -1.392  0.00  0.00    +0.000 C 
ATOM     16  C   UNL     1       6.853  -3.377  -1.974  0.00  0.00    +0.000 C 
ATOM     17  C   UNL     1       6.701  -3.358  -3.497  0.00  0.00    +0.000 C 
BRANCH  15  18
ATOM     18  C   UNL     1       7.028  -2.024   0.140  0.00  0.00    +0.000 C 
BRANCH  18  19
ATOM     19  O   UNL     1       7.282  -0.740   0.694  0.00  0.00    +0.000 OA
ATOM     20  H   UNL     1       8.104  -0.406   0.299  0.00  0.00    +0.000 HD
ENDBRANCH  18  19
ENDBRANCH  15  18
ENDBRANCH  11  12
ENDBRANCH   9  11
ENDBRANCH   8   9
ENDBRANCH   1   8
BRANCH   4  21
ATOM     21  C   UNL     1      -2.854   0.094  -5.281  0.00  0.00    +0.000 C 
BRANCH  21  22
ATOM     22  N   UNL     1      -3.990  -0.786  -5.425  0.00  0.00    +0.000 N 
ATOM     23  C   UNL     1      -4.424  -1.269  -6.629  0.00  0.00    +0.000 C 
ATOM     24  O   UNL     1      -3.795  -1.127  -7.669  0.00  0.00    +0.000 OA
ATOM     25  H   UNL     1      -4.534  -0.942  -4.589  0.00  0.00    +0.000 HD
BRANCH  23  26
ATOM     26  C   UNL     1      -5.669  -2.040  -6.564  0.00  0.00    +0.000 A 
ATOM     27  C   UNL     1      -5.907  -3.089  -7.438  0.00  0.00    +0.000 A 
ATOM     28  S   UNL     1      -7.382  -3.894  -7.129  0.00  0.00    +0.000 S 
ATOM     29  C   UNL     1      -7.769  -2.827  -5.859  0.00  0.00    +0.000 A 
ATOM     30  N   UNL     1      -8.916  -2.963  -5.147  0.00  0.00    +0.000 NA
ATOM     31  C   UNL     1      -9.086  -2.069  -4.227  0.00  0.00    +0.000 A 
ATOM     32  N   UNL     1      -8.225  -1.027  -3.953  0.00  0.00    +0.000 N 
ATOM     33  C   UNL     1      -8.520  -0.073  -2.904  0.00  0.00    +0.000 C 
ATOM     34  C   UNL     1      -7.050  -0.848  -4.673  0.00  0.00    +0.000 A 
ATOM     35  O   UNL     1      -6.277   0.083  -4.460  0.00  0.00    +0.000 OA
ATOM     36  C   UNL     1      -6.798  -1.863  -5.683  0.00  0.00    +0.000 A 
ENDBRANCH  23  26
ENDBRANCH  21  22
ENDBRANCH   4  21
TORSDOF 9
