REMARK  Name = 
REMARK  7 active torsions:
REMARK  status: ('A' for Active; 'I' for Inactive)
REMARK    1  A    between atoms: C_1  and  C_2
REMARK    2  A    between atoms: C_2  and  N_3
REMARK    3  A    between atoms: N_3  and  C_4
REMARK    4  A    between atoms: C_4  and  C_5
REMARK    5  A    between atoms: N_11  and  C_12
REMARK    6  A    between atoms: C_12  and  C_13
REMARK    7  A    between atoms: C_16  and  C_17
REMARK                            x       y       z     vdW  Elec       q    Type
REMARK                         _______ _______ _______ _____ _____    ______ ____
ROOT
ATOM      1  C   UNL     1       4.873  -2.835  -0.837  0.00  0.00    +0.000 A 
ATOM      2  C   UNL     1       4.316  -4.001  -0.312  0.00  0.00    +0.000 A 
ATOM      3  N   UNL     1       4.703  -5.261  -0.602  0.00  0.00    +0.000 NA
ATOM      4  C   UNL     1       5.744  -5.352  -1.464  0.00  0.00    +0.000 A 
ATOM      5  C   UNL     1       6.374  -6.518  -1.948  0.00  0.00    +0.000 A 
ATOM      6  C   UNL     1       7.411  -6.116  -2.762  0.00  0.00    +0.000 A 
ATOM      7  N   UNL     1       7.426  -4.738  -2.791  0.00  0.00    +0.000 N 
ATOM      8  C   UNL     1       6.385  -4.246  -2.025  0.00  0.00    +0.000 A 
ATOM      9  C   UNL     1       5.938  -2.951  -1.739  0.00  0.00    +0.000 A 
ENDROOT
BRANCH   1  10
ATOM     10  C   UNL     1       4.326  -1.488  -0.443  0.00  0.00    +0.000 C 
BRANCH  10  11
ATOM     11  N   UNL     1       3.761  -0.732  -1.564  0.00  0.00    +0.000 NA
ATOM     12  H   UNL     1       3.502   0.197  -1.233  0.00  0.00    +0.000 HD
BRANCH  11  14
ATOM     13  C   UNL     1       2.031  -0.549  -3.277  0.00  0.00    +0.000 C 
ATOM     14  C   UNL     1       2.575  -1.383  -2.126  0.00  0.00    +0.000 C 
ENDBRANCH  11  14
ENDBRANCH  10  11
ENDBRANCH   1  10
BRANCH   7  15
ATOM     15  C   UNL     1       8.488  -3.951  -3.415  0.00  0.00    +0.000 C 
BRANCH  15  16
ATOM     16  C   UNL     1       8.207  -3.684  -4.873  0.00  0.00    +0.000 A 
ATOM     17  C   UNL     1       7.576  -2.495  -5.261  0.00  0.00    +0.000 A 
ATOM     18  C   UNL     1       7.186  -2.303  -6.588  0.00  0.00    +0.000 A 
ATOM     19  C   UNL     1       7.434  -3.291  -7.548  0.00  0.00    +0.000 A 
ATOM     20  C   UNL     1       8.121  -4.451  -7.184  0.00  0.00    +0.000 A 
ATOM     21  C   UNL     1       8.509  -4.644  -5.852  0.00  0.00    +0.000 A 
BRANCH  19  22
ATOM     22  C   UNL     1       6.873  -3.089  -8.906  0.00  0.00    +0.000 C 
ATOM     23  N   UNL     1       7.470  -3.739  -9.949  0.00  0.00    +0.000 N 
ATOM     24  O   UNL     1       5.910  -2.358  -9.101  0.00  0.00    +0.000 OA
ATOM     25  H   UNL     1       8.383  -4.164  -9.883  0.00  0.00    +0.000 HD
ATOM     26  H   UNL     1       7.116  -3.518 -10.873  0.00  0.00    +0.000 HD
ENDBRANCH  19  22
ENDBRANCH  15  16
ENDBRANCH   7  15
TORSDOF 6
