REMARK  Name = 
REMARK  5 active torsions:
REMARK  status: ('A' for Active; 'I' for Inactive)
REMARK    1  A    between atoms: C_1  and  C_2
REMARK    2  A    between atoms: C_9  and  C_10
REMARK    3  A    between atoms: C_10  and  N_11
REMARK    4  A    between atoms: C_15  and  C_16
REMARK    5  A    between atoms: C_25  and  C_26
REMARK                            x       y       z     vdW  Elec       q    Type
REMARK                         _______ _______ _______ _____ _____    ______ ____
ROOT
ATOM      1  C   UNL     1       2.323   4.682  -4.886  0.00  0.00    +0.000 C 
ATOM      2  C   UNL     1       3.195   4.555  -6.119  0.00  0.00    +0.000 C 
ATOM      3  C   UNL     1       3.858   4.628  -4.788  0.00  0.00    +0.000 C 
ENDROOT
BRANCH   1  12
ATOM      4  C   UNL     1       3.532  -1.231  -4.696  0.00  0.00    +0.000 C 
ATOM      5  C   UNL     1       3.564  -1.410  -3.175  0.00  0.00    +0.000 C 
ATOM      6  C   UNL     1       2.328  -0.789  -2.465  0.00  0.00    +0.000 C 
ATOM      7  N   UNL     1       2.426   0.667  -2.360  0.00  0.00    +0.000 N 
ATOM      8  C   UNL     1       1.717   1.428  -3.269  0.00  0.00    +0.000 A 
ATOM      9  N   UNL     1       0.619   0.936  -3.861  0.00  0.00    +0.000 NA
ATOM     10  C   UNL     1      -0.016   1.729  -4.744  0.00  0.00    +0.000 A 
ATOM     11  C   UNL     1       0.425   2.980  -5.100  0.00  0.00    +0.000 A 
ATOM     12  C   UNL     1       1.575   3.409  -4.476  0.00  0.00    +0.000 A 
ATOM     13  N   UNL     1       2.169   2.652  -3.533  0.00  0.00    +0.000 NA
ATOM     14  C   UNL     1       3.717   1.192  -1.885  0.00  0.00    +0.000 C 
ATOM     15  C   UNL     1       4.919   0.540  -2.621  0.00  0.00    +0.000 C 
ATOM     16  C   UNL     1       6.233   0.965  -1.963  0.00  0.00    +0.000 C 
ATOM     17  N   UNL     1       4.857  -0.942  -2.615  0.00  0.00    +0.000 NA
ATOM     18  H   UNL     1       4.896  -1.247  -1.641  0.00  0.00    +0.000 HD
ENDBRANCH   1  12
BRANCH   1  19
ATOM     19  N   UNL     1       1.811   5.922  -4.294  0.00  0.00    +0.000 N 
ATOM     20  C   UNL     1       0.801   6.735  -4.791  0.00  0.00    +0.000 A 
ATOM     21  C   UNL     1       0.601   7.006  -6.139  0.00  0.00    +0.000 A 
ATOM     22  C   UNL     1      -0.333   7.981  -6.499  0.00  0.00    +0.000 A 
ATOM     23  C   UNL     1      -1.037   8.661  -5.506  0.00  0.00    +0.000 A 
ATOM     24  C   UNL     1      -0.818   8.287  -4.193  0.00  0.00    +0.000 A 
ATOM     25  N   UNL     1       0.091   7.356  -3.822  0.00  0.00    +0.000 NA
ATOM     26  H   UNL     1       1.688   5.896  -3.283  0.00  0.00    +0.000 HD
BRANCH  23  27
ATOM     27  C   UNL     1      -1.976   9.747  -5.850  0.00  0.00    +0.000 C 
ATOM     28  N   UNL     1      -2.214  10.702  -4.900  0.00  0.00    +0.000 N 
ATOM     29  O   UNL     1      -2.486   9.818  -6.960  0.00  0.00    +0.000 OA
ATOM     30  H   UNL     1      -1.631  10.839  -4.085  0.00  0.00    +0.000 HD
ATOM     31  H   UNL     1      -2.774  11.495  -5.198  0.00  0.00    +0.000 HD
ENDBRANCH  23  27
ENDBRANCH   1  19
TORSDOF 3
