REMARK  Name = 
REMARK  9 active torsions:
REMARK  status: ('A' for Active; 'I' for Inactive)
REMARK    1  A    between atoms: C_1  and  O_2
REMARK    2  A    between atoms: O_2  and  C_3
REMARK    3  A    between atoms: C_10  and  C_11
REMARK    4  A    between atoms: N_13  and  C_14
REMARK    5  A    between atoms: C_14  and  C_15
REMARK    6  A    between atoms: C_18  and  N_19
REMARK    7  A    between atoms: N_19  and  C_20
REMARK    8  A    between atoms: C_20  and  C_21
REMARK    9  A    between atoms: N_25  and  C_26
REMARK                            x       y       z     vdW  Elec       q    Type
REMARK                         _______ _______ _______ _____ _____    ______ ____
ROOT
ATOM      1  C   UNL     1       2.757   3.344   0.565  0.00  0.00    +0.000 C 
ENDROOT
BRANCH   1   2
ATOM      2  C   UNL     1       1.606   3.405  -0.431  0.00  0.00    +0.000 A 
ATOM      3  C   UNL     1       1.196   2.240  -1.093  0.00  0.00    +0.000 A 
ATOM      4  C   UNL     1      -0.047   2.176  -1.738  0.00  0.00    +0.000 A 
ATOM      5  C   UNL     1      -0.853   3.304  -1.905  0.00  0.00    +0.000 A 
ATOM      6  C   UNL     1      -0.359   4.511  -1.388  0.00  0.00    +0.000 A 
ATOM      7  C   UNL     1       0.842   4.561  -0.649  0.00  0.00    +0.000 A 
BRANCH   5   8
ATOM      8  N   UNL     1      -2.133   3.253  -2.484  0.00  0.00    +0.000 N 
ATOM      9  H   UNL     1      -2.272   4.012  -3.147  0.00  0.00    +0.000 HD
BRANCH   8  10
ATOM     10  C   UNL     1      -2.678   1.956  -2.916  0.00  0.00    +0.000 C 
BRANCH  10  11
ATOM     11  C   UNL     1      -4.099   2.064  -3.508  0.00  0.00    +0.000 C 
ATOM     12  C   UNL     1      -5.099   2.610  -2.484  0.00  0.00    +0.000 C 
ATOM     13  C   UNL     1      -6.518   2.579  -3.044  0.00  0.00    +0.000 C 
ATOM     14  C   UNL     1      -6.899   1.175  -3.516  0.00  0.00    +0.000 C 
ATOM     15  N   UNL     1      -5.942   0.686  -4.523  0.00  0.00    +0.000 NA
ATOM     16  C   UNL     1      -6.315  -0.657  -4.973  0.00  0.00    +0.000 C 
ATOM     17  C   UNL     1      -4.567   0.674  -3.998  0.00  0.00    +0.000 C 
ENDBRANCH  10  11
ENDBRANCH   8  10
ENDBRANCH   5   8
ENDBRANCH   1   2
BRANCH   1  20
ATOM     18  C   UNL     1       5.230   3.631   0.697  0.00  0.00    +0.000 C 
ATOM     19  O   UNL     1       5.260   3.395   1.911  0.00  0.00    +0.000 OA
ATOM     20  N   UNL     1       4.049   3.634  -0.007  0.00  0.00    +0.000 N 
ATOM     21  H   UNL     1       4.078   3.753  -1.005  0.00  0.00    +0.000 HD
BRANCH  18  29
ATOM     22  C   UNL     1       5.863   4.317  -2.608  0.00  0.00    +0.000 A 
ATOM     23  N   UNL     1       6.335   4.725  -3.802  0.00  0.00    +0.000 NA
ATOM     24  C   UNL     1       7.620   5.071  -3.883  0.00  0.00    +0.000 A 
ATOM     25  N   UNL     1       8.516   5.040  -2.903  0.00  0.00    +0.000 NA
ATOM     26  C   UNL     1       7.997   4.646  -1.727  0.00  0.00    +0.000 A 
ATOM     27  S   UNL     1       8.993   4.540  -0.352  0.00  0.00    +0.000 S 
ATOM     28  C   UNL     1       7.687   4.053   0.628  0.00  0.00    +0.000 A 
ATOM     29  C   UNL     1       6.471   3.970  -0.053  0.00  0.00    +0.000 A 
ATOM     30  C   UNL     1       6.681   4.287  -1.467  0.00  0.00    +0.000 A 
BRANCH  22  32
ATOM     31  C   UNL     1       3.851   4.022  -3.761  0.00  0.00    +0.000 C 
ATOM     32  O   UNL     1       4.552   3.900  -2.530  0.00  0.00    +0.000 OA
ENDBRANCH  22  32
ENDBRANCH  18  29
ENDBRANCH   1  20
TORSDOF 7
