REMARK  Name = 
REMARK  7 active torsions:
REMARK  status: ('A' for Active; 'I' for Inactive)
REMARK    1  A    between atoms: C_1  and  C_2
REMARK    2  A    between atoms: C_7  and  C_8
REMARK    3  A    between atoms: N_13  and  C_14
REMARK    4  A    between atoms: C_14  and  C_15
REMARK    5  A    between atoms: C_18  and  C_19
REMARK    6  A    between atoms: C_19  and  N_20
REMARK    7  A    between atoms: C_22  and  O_23
REMARK                            x       y       z     vdW  Elec       q    Type
REMARK                         _______ _______ _______ _____ _____    ______ ____
ROOT
ATOM      1  C   UNL     1       1.013  -0.353  -0.132  0.00  0.00    +0.000 C 
ATOM      2  C   UNL     1       2.491  -0.221  -0.112  0.00  0.00    +0.000 A 
ATOM      3  N   UNL     1       3.309  -1.254  -0.106  0.00  0.00    +0.000 NA
ATOM      4  C   UNL     1       4.570  -0.744  -0.085  0.00  0.00    +0.000 A 
ATOM      5  C   UNL     1       5.793  -1.427  -0.067  0.00  0.00    +0.000 A 
ATOM      6  C   UNL     1       6.976  -0.679  -0.045  0.00  0.00    +0.000 A 
ATOM      7  C   UNL     1       6.953   0.724  -0.041  0.00  0.00    +0.000 A 
ATOM      8  C   UNL     1       5.726   1.415  -0.046  0.00  0.00    +0.000 A 
ATOM      9  C   UNL     1       4.552   0.643  -0.074  0.00  0.00    +0.000 A 
ATOM     10  N   UNL     1       3.204   0.966  -0.085  0.00  0.00    +0.000 N 
ENDROOT
BRANCH   7  11
ATOM     11  C   UNL     1       8.271   1.422  -0.025  0.00  0.00    +0.000 C 
ATOM     12  N   UNL     1       8.293   2.792  -0.021  0.00  0.00    +0.000 N 
ATOM     13  O   UNL     1       9.329   0.807  -0.029  0.00  0.00    +0.000 OA
ATOM     14  H   UNL     1       7.486   3.385  -0.019  0.00  0.00    +0.000 HD
ATOM     15  H   UNL     1       9.204   3.228  -0.015  0.00  0.00    +0.000 HD
ENDBRANCH   7  11
BRANCH  10  16
ATOM     16  C   UNL     1       2.667   2.323   0.014  0.00  0.00    +0.000 C 
BRANCH  16  17
ATOM     17  C   UNL     1       2.551   2.976  -1.334  0.00  0.00    +0.000 A 
ATOM     18  N   UNL     1       1.666   2.449  -2.221  0.00  0.00    +0.000 NA
ATOM     19  C   UNL     1       1.668   2.996  -3.464  0.00  0.00    +0.000 A 
ATOM     20  C   UNL     1       2.500   4.050  -3.828  0.00  0.00    +0.000 A 
ATOM     21  N   UNL     1       3.326   4.636  -2.921  0.00  0.00    +0.000 NA
ATOM     22  C   UNL     1       3.324   4.074  -1.696  0.00  0.00    +0.000 A 
BRANCH  22  23
ATOM     23  O   UNL     1       4.153   4.712  -0.833  0.00  0.00    +0.000 OA
ATOM     24  H   UNL     1       4.434   5.455  -1.401  0.00  0.00    +0.000 HD
ENDBRANCH  22  23
BRANCH  20  25
ATOM     25  C   UNL     1       2.527   4.551  -5.254  0.00  0.00    +0.000 C 
BRANCH  25  26
ATOM     26  N   UNL     1       2.931   3.519  -6.213  0.00  0.00    +0.000 NA
ATOM     27  H   UNL     1       3.910   3.280  -6.044  0.00  0.00    +0.000 HD
ATOM     28  H   UNL     1       2.902   3.909  -7.155  0.00  0.00    +0.000 HD
ENDBRANCH  25  26
ENDBRANCH  20  25
ENDBRANCH  16  17
ENDBRANCH  10  16
TORSDOF 6
