REMARK  Name = 
REMARK  9 active torsions:
REMARK  status: ('A' for Active; 'I' for Inactive)
REMARK    1  A    between atoms: C_1  and  C_2
REMARK    2  A    between atoms: C_2  and  C_3
REMARK    3  A    between atoms: C_2  and  C_4
REMARK    4  A    between atoms: C_2  and  C_5
REMARK    5  A    between atoms: N_12  and  C_13
REMARK    6  A    between atoms: C_13  and  C_14
REMARK    7  A    between atoms: C_17  and  C_18
REMARK    8  A    between atoms: C_18  and  C_19
REMARK    9  A    between atoms: C_19  and  N_20
REMARK                            x       y       z     vdW  Elec       q    Type
REMARK                         _______ _______ _______ _____ _____    ______ ____
ROOT
ATOM      1  C   UNL     1       3.136   1.453  -0.277  0.00  0.00    +0.000 A 
ATOM      2  C   UNL     1       2.342   2.599  -0.161  0.00  0.00    +0.000 A 
ATOM      3  N   UNL     1       2.745   3.892  -0.281  0.00  0.00    +0.000 NA
ATOM      4  C   UNL     1       4.061   4.018  -0.538  0.00  0.00    +0.000 A 
ATOM      5  C   UNL     1       4.975   2.983  -0.699  0.00  0.00    +0.000 A 
ATOM      6  C   UNL     1       6.237   3.576  -0.971  0.00  0.00    +0.000 A 
ATOM      7  C   UNL     1       6.068   4.945  -0.951  0.00  0.00    +0.000 A 
ATOM      8  N   UNL     1       4.748   5.204  -0.660  0.00  0.00    +0.000 N 
ATOM      9  C   UNL     1       4.497   1.667  -0.565  0.00  0.00    +0.000 A 
ENDROOT
BRANCH   1  11
ATOM     10  C   UNL     1       1.078  -0.028   0.215  0.00  0.00    +0.000 C 
ATOM     11  C   UNL     1       2.590   0.027  -0.103  0.00  0.00    +0.000 C 
ATOM     12  C   UNL     1       3.324  -0.674   1.061  0.00  0.00    +0.000 C 
ATOM     13  C   UNL     1       2.814  -0.782  -1.398  0.00  0.00    +0.000 C 
ENDBRANCH   1  11
BRANCH   8  14
ATOM     14  C   UNL     1       4.170   6.534  -0.510  0.00  0.00    +0.000 C 
BRANCH  14  15
ATOM     15  C   UNL     1       4.286   7.030   0.907  0.00  0.00    +0.000 A 
ATOM     16  C   UNL     1       3.587   6.425   1.954  0.00  0.00    +0.000 A 
ATOM     17  C   UNL     1       3.783   6.854   3.263  0.00  0.00    +0.000 A 
ATOM     18  C   UNL     1       4.662   7.904   3.505  0.00  0.00    +0.000 A 
ATOM     19  N   UNL     1       5.313   8.543   2.501  0.00  0.00    +0.000 NA
ATOM     20  C   UNL     1       5.115   8.094   1.238  0.00  0.00    +0.000 A 
BRANCH  18  21
ATOM     21  C   UNL     1       4.985   8.315   4.920  0.00  0.00    +0.000 C 
BRANCH  21  22
ATOM     22  C   UNL     1       4.600   9.766   5.212  0.00  0.00    +0.000 C 
BRANCH  22  23
ATOM     23  N   UNL     1       4.894  10.119   6.605  0.00  0.00    +0.000 NA
ATOM     24  H   UNL     1       4.333   9.546   7.233  0.00  0.00    +0.000 HD
ATOM     25  H   UNL     1       4.616  11.085   6.770  0.00  0.00    +0.000 HD
ENDBRANCH  22  23
ENDBRANCH  21  22
ENDBRANCH  18  21
ENDBRANCH  14  15
ENDBRANCH   8  14
TORSDOF 6
