REMARK  Name = 
REMARK  6 active torsions:
REMARK  status: ('A' for Active; 'I' for Inactive)
REMARK    1  A    between atoms: C_1  and  C_2
REMARK    2  A    between atoms: C_2  and  N_3
REMARK    3  A    between atoms: C_2  and  C_16
REMARK    4  A    between atoms: C_4  and  C_6
REMARK    5  A    between atoms: C_19  and  C_20
REMARK    6  A    between atoms: C_20  and  C_21
REMARK                            x       y       z     vdW  Elec       q    Type
REMARK                         _______ _______ _______ _____ _____    ______ ____
ROOT
ATOM      1  C   UNL     1       0.813  -0.127  -0.067  0.00  0.00    +0.000 C 
ATOM      2  C   UNL     1       2.342  -0.053  -0.131  0.00  0.00    +0.000 C 
ENDROOT
BRANCH   2   3
ATOM      3  C   UNL     1       2.932  -0.159   1.270  0.00  0.00    +0.000 A 
ATOM      4  C   UNL     1       3.765  -1.229   1.616  0.00  0.00    +0.000 A 
ATOM      5  C   UNL     1       4.337  -1.300   2.891  0.00  0.00    +0.000 A 
ATOM      6  C   UNL     1       4.106  -0.293   3.840  0.00  0.00    +0.000 A 
ATOM      7  C   UNL     1       3.270   0.774   3.498  0.00  0.00    +0.000 A 
ATOM      8  C   UNL     1       2.685   0.836   2.231  0.00  0.00    +0.000 A 
BRANCH   6   9
ATOM      9  C   UNL     1       4.752  -0.347   5.207  0.00  0.00    +0.000 C 
BRANCH   9  10
ATOM     10  C   UNL     1       6.104   0.327   5.319  0.00  0.00    +0.000 A 
ATOM     11  C   UNL     1       7.191  -0.110   4.561  0.00  0.00    +0.000 A 
ATOM     12  C   UNL     1       8.444   0.458   4.778  0.00  0.00    +0.000 A 
ATOM     13  C   UNL     1       8.586   1.446   5.743  0.00  0.00    +0.000 A 
ATOM     14  C   UNL     1       7.459   1.836   6.444  0.00  0.00    +0.000 A 
ATOM     15  N   UNL     1       6.231   1.302   6.257  0.00  0.00    +0.000 NA
ENDBRANCH   9  10
ENDBRANCH   6   9
ENDBRANCH   2   3
BRANCH   2  16
ATOM     16  N   UNL     1       2.827   1.174  -0.743  0.00  0.00    +0.000 N 
ATOM     17  C   UNL     1       2.532   1.567  -2.022  0.00  0.00    +0.000 C 
ATOM     18  O   UNL     1       1.784   0.934  -2.761  0.00  0.00    +0.000 OA
ATOM     19  H   UNL     1       3.673   1.551  -0.327  0.00  0.00    +0.000 HD
BRANCH  17  20
ATOM     20  C   UNL     1       3.108   2.852  -2.442  0.00  0.00    +0.000 A 
ATOM     21  C   UNL     1       2.454   3.625  -3.391  0.00  0.00    +0.000 A 
ATOM     22  S   UNL     1       3.234   5.107  -3.718  0.00  0.00    +0.000 S 
ATOM     23  C   UNL     1       4.499   4.743  -2.637  0.00  0.00    +0.000 A 
ATOM     24  N   UNL     1       5.536   5.604  -2.458  0.00  0.00    +0.000 NA
ATOM     25  C   UNL     1       6.435   5.187  -1.627  0.00  0.00    +0.000 A 
ATOM     26  N   UNL     1       6.390   3.990  -0.961  0.00  0.00    +0.000 N 
ATOM     27  C   UNL     1       5.352   3.100  -1.099  0.00  0.00    +0.000 A 
ATOM     28  O   UNL     1       5.322   2.050  -0.466  0.00  0.00    +0.000 OA
ATOM     29  C   UNL     1       4.316   3.517  -2.023  0.00  0.00    +0.000 A 
ATOM     30  H   UNL     1       7.121   3.726  -0.318  0.00  0.00    +0.000 HD
ENDBRANCH  17  20
ENDBRANCH   2  16
TORSDOF 5
