REMARK  Name = 
REMARK  7 active torsions:
REMARK  status: ('A' for Active; 'I' for Inactive)
REMARK    1  A    between atoms: N_1  and  C_2
REMARK    2  A    between atoms: C_2  and  C_3
REMARK    3  A    between atoms: C_3  and  C_4
REMARK    4  A    between atoms: C_7  and  C_8
REMARK    5  A    between atoms: C_8  and  O_9
REMARK    6  A    between atoms: O_9  and  C_10
REMARK    7  A    between atoms: C_12  and  C_13
REMARK                            x       y       z     vdW  Elec       q    Type
REMARK                         _______ _______ _______ _____ _____    ______ ____
ROOT
ATOM      1  C   UNL     1       8.820  -0.570   1.557  0.00  0.00    +0.000 C 
ENDROOT
BRANCH   1   5
ATOM      2  C   UNL     1       4.499  -0.306   1.460  0.00  0.00    +0.000 A 
ATOM      3  C   UNL     1       5.170  -0.533   2.668  0.00  0.00    +0.000 A 
ATOM      4  C   UNL     1       6.563  -0.638   2.700  0.00  0.00    +0.000 A 
ATOM      5  C   UNL     1       7.311  -0.512   1.524  0.00  0.00    +0.000 A 
ATOM      6  C   UNL     1       6.640  -0.293   0.314  0.00  0.00    +0.000 A 
ATOM      7  C   UNL     1       5.249  -0.166   0.286  0.00  0.00    +0.000 A 
BRANCH   2   8
ATOM      8  C   UNL     1       2.989  -0.253   1.427  0.00  0.00    +0.000 C 
BRANCH   8   9
ATOM      9  C   UNL     1       2.427   1.145   1.698  0.00  0.00    +0.000 C 
BRANCH   9  10
ATOM     10  N   UNL     1       0.959   1.134   1.685  0.00  0.00    +0.000 NA
ATOM     11  H   UNL     1       0.616   2.071   1.896  0.00  0.00    +0.000 HD
ATOM     12  H   UNL     1       0.612   0.531   2.429  0.00  0.00    +0.000 HD
ENDBRANCH   9  10
ENDBRANCH   8   9
ENDBRANCH   2   8
ENDBRANCH   1   5
BRANCH   1  13
ATOM     13  O   UNL     1       9.285  -1.918   1.425  0.00  0.00    +0.000 OA
BRANCH  13  14
ATOM     14  C   UNL     1      10.665  -1.970   1.383  0.00  0.00    +0.000 A 
ATOM     15  C   UNL     1      11.265  -3.213   1.280  0.00  0.00    +0.000 A 
ATOM     16  C   UNL     1      12.661  -3.252   1.217  0.00  0.00    +0.000 A 
ATOM     17  C   UNL     1      13.399  -2.063   1.235  0.00  0.00    +0.000 A 
ATOM     18  C   UNL     1      12.701  -0.879   1.337  0.00  0.00    +0.000 A 
ATOM     19  N   UNL     1      11.360  -0.809   1.424  0.00  0.00    +0.000 NA
BRANCH  16  20
ATOM     20  C   UNL     1      13.393  -4.536   1.089  0.00  0.00    +0.000 C 
ATOM     21  N   UNL     1      12.809  -5.653   1.621  0.00  0.00    +0.000 N 
ATOM     22  O   UNL     1      14.493  -4.594   0.554  0.00  0.00    +0.000 OA
ATOM     23  H   UNL     1      11.967  -5.644   2.179  0.00  0.00    +0.000 HD
ATOM     24  H   UNL     1      13.328  -6.521   1.562  0.00  0.00    +0.000 HD
ENDBRANCH  16  20
ENDBRANCH  13  14
ENDBRANCH   1  13
TORSDOF 7
