REMARK  Name = 
REMARK  7 active torsions:
REMARK  status: ('A' for Active; 'I' for Inactive)
REMARK    1  A    between atoms: C_1  and  C_2
REMARK    2  A    between atoms: C_2  and  C_3
REMARK    3  A    between atoms: C_7  and  C_8
REMARK    4  A    between atoms: C_8  and  C_9
REMARK    5  A    between atoms: C_9  and  N_10
REMARK    6  A    between atoms: C_14  and  C_15
REMARK    7  A    between atoms: C_23  and  O_24
REMARK                            x       y       z     vdW  Elec       q    Type
REMARK                         _______ _______ _______ _____ _____    ______ ____
ROOT
ATOM      1  C   UNL     1       2.883   0.387   1.324  0.00  0.00    +0.000 A 
ATOM      2  C   UNL     1       2.627   1.658   1.858  0.00  0.00    +0.000 A 
ATOM      3  C   UNL     1       2.939   1.959   3.186  0.00  0.00    +0.000 A 
ATOM      4  C   UNL     1       3.501   0.989   4.020  0.00  0.00    +0.000 A 
ATOM      5  C   UNL     1       3.776  -0.288   3.525  0.00  0.00    +0.000 A 
ATOM      6  C   UNL     1       3.492  -0.547   2.172  0.00  0.00    +0.000 A 
ENDROOT
BRANCH   1   8
ATOM      7  C   UNL     1       0.867   0.097  -0.079  0.00  0.00    +0.000 C 
ATOM      8  C   UNL     1       2.412  -0.003  -0.095  0.00  0.00    +0.000 C 
ATOM      9  C   UNL     1       3.021   0.962  -1.146  0.00  0.00    +0.000 C 
ATOM     10  C   UNL     1       2.666   0.596  -2.589  0.00  0.00    +0.000 C 
ATOM     11  C   UNL     1       3.033  -0.846  -2.928  0.00  0.00    +0.000 C 
ATOM     12  C   UNL     1       2.444  -1.835  -1.930  0.00  0.00    +0.000 C 
ATOM     13  C   UNL     1       2.811  -1.459  -0.499  0.00  0.00    +0.000 C 
BRANCH  11  14
ATOM     14  O   UNL     1       2.569  -1.161  -4.236  0.00  0.00    +0.000 OA
ATOM     15  H   UNL     1       1.596  -1.140  -4.223  0.00  0.00    +0.000 HD
ENDBRANCH  11  14
ENDBRANCH   1   8
BRANCH   5  16
ATOM     16  C   UNL     1       4.304  -1.376   4.451  0.00  0.00    +0.000 C 
BRANCH  16  17
ATOM     17  C   UNL     1       4.534  -2.721   3.745  0.00  0.00    +0.000 C 
BRANCH  17  18
ATOM     18  N   UNL     1       4.997  -3.790   4.637  0.00  0.00    +0.000 N 
ATOM     19  C   UNL     1       5.193  -4.993   3.911  0.00  0.00    +0.000 A 
ATOM     20  C   UNL     1       5.638  -6.149   4.567  0.00  0.00    +0.000 A 
ATOM     21  N   UNL     1       5.860  -7.347   3.951  0.00  0.00    +0.000 NA
ATOM     22  C   UNL     1       5.622  -7.337   2.610  0.00  0.00    +0.000 A 
ATOM     23  C   UNL     1       5.189  -6.206   1.942  0.00  0.00    +0.000 A 
ATOM     24  N   UNL     1       4.975  -5.026   2.579  0.00  0.00    +0.000 NA
ATOM     25  H   UNL     1       4.330  -3.969   5.385  0.00  0.00    +0.000 HD
BRANCH  22  26
ATOM     26  C   UNL     1       5.833  -8.596   1.843  0.00  0.00    +0.000 C 
ATOM     27  N   UNL     1       6.263  -9.679   2.556  0.00  0.00    +0.000 N 
ATOM     28  O   UNL     1       5.630  -8.664   0.638  0.00  0.00    +0.000 OA
ATOM     29  H   UNL     1       6.436  -9.607   3.553  0.00  0.00    +0.000 HD
ATOM     30  H   UNL     1       6.424 -10.552   2.072  0.00  0.00    +0.000 HD
ENDBRANCH  22  26
ENDBRANCH  17  18
ENDBRANCH  16  17
ENDBRANCH   5  16
TORSDOF 6
