REMARK  Name = 
REMARK  11 active torsions:
REMARK  status: ('A' for Active; 'I' for Inactive)
REMARK    1  A    between atoms: C_2  and  C_21
REMARK    2  A    between atoms: N_3  and  C_4
REMARK    3  A    between atoms: C_4  and  C_5
REMARK    4  A    between atoms: C_8  and  C_9
REMARK    5  A    between atoms: C_9  and  C_10
REMARK    6  A    between atoms: C_10  and  O_11
REMARK    7  A    between atoms: C_10  and  C_12
REMARK    8  A    between atoms: C_12  and  C_13
REMARK    9  A    between atoms: C_28  and  O_29
REMARK   10  A    between atoms: O_29  and  C_30
REMARK   11  A    between atoms: C_30  and  C_31
REMARK                            x       y       z     vdW  Elec       q    Type
REMARK                         _______ _______ _______ _____ _____    ______ ____
ROOT
ATOM      1  O   UNL     1       2.603  -0.056   2.073  0.00  0.00    +0.000 OA
ATOM      2  C   UNL     1       2.107  -1.050   2.591  0.00  0.00    +0.000 C 
ATOM      3  N   UNL     1       1.824  -2.182   1.886  0.00  0.00    +0.000 N 
ATOM      4  H   UNL     1       1.715  -3.046   2.402  0.00  0.00    +0.000 HD
ENDROOT
BRANCH   2   5
ATOM      5  C   UNL     1       1.855  -1.130   4.028  0.00  0.00    +0.000 A 
ATOM      6  C   UNL     1       2.039  -0.032   4.861  0.00  0.00    +0.000 A 
ATOM      7  N   UNL     1       2.029  -0.463   6.154  0.00  0.00    +0.000 N 
ATOM      8  C   UNL     1       1.790  -1.806   6.179  0.00  0.00    +0.000 A 
ATOM      9  N   UNL     1       1.858  -2.556   7.285  0.00  0.00    +0.000 NA
ATOM     10  C   UNL     1       1.582  -3.841   7.028  0.00  0.00    +0.000 A 
ATOM     11  N   UNL     1       1.145  -4.373   5.872  0.00  0.00    +0.000 NA
ATOM     12  C   UNL     1       1.041  -3.563   4.794  0.00  0.00    +0.000 A 
ATOM     13  C   UNL     1       1.488  -2.230   4.888  0.00  0.00    +0.000 A 
ATOM     14  H   UNL     1       2.238   0.091   6.974  0.00  0.00    +0.000 HD
BRANCH  12  15
ATOM     15  O   UNL     1       0.634  -4.199   3.637  0.00  0.00    +0.000 OA
BRANCH  15  16
ATOM     16  C   UNL     1      -0.524  -3.614   3.013  0.00  0.00    +0.000 C 
BRANCH  16  17
ATOM     17  C   UNL     1      -1.837  -4.375   3.158  0.00  0.00    +0.000 C 
ATOM     18  F   UNL     1      -1.797  -5.365   4.068  0.00  0.00    +0.000 F 
ATOM     19  F   UNL     1      -2.828  -3.523   3.520  0.00  0.00    +0.000 F 
ATOM     20  F   UNL     1      -2.207  -4.917   1.972  0.00  0.00    +0.000 F 
ENDBRANCH  16  17
ENDBRANCH  15  16
ENDBRANCH  12  15
ENDBRANCH   2   5
BRANCH   3  21
ATOM     21  C   UNL     1       2.245  -2.387   0.519  0.00  0.00    +0.000 C 
BRANCH  21  22
ATOM     22  C   UNL     1       3.241  -3.520   0.509  0.00  0.00    +0.000 A 
ATOM     23  C   UNL     1       4.585  -3.259   0.740  0.00  0.00    +0.000 A 
ATOM     24  C   UNL     1       5.462  -4.330   0.870  0.00  0.00    +0.000 A 
ATOM     25  C   UNL     1       4.978  -5.640   0.783  0.00  0.00    +0.000 A 
ATOM     26  C   UNL     1       3.611  -5.800   0.583  0.00  0.00    +0.000 A 
ATOM     27  N   UNL     1       2.733  -4.778   0.464  0.00  0.00    +0.000 NA
BRANCH  25  28
ATOM     28  C   UNL     1       5.917  -6.814   0.917  0.00  0.00    +0.000 C 
BRANCH  28  29
ATOM     29  C   UNL     1       5.957  -7.720  -0.328  0.00  0.00    +0.000 C 
BRANCH  29  30
ATOM     30  O   UNL     1       6.345  -6.969  -1.485  0.00  0.00    +0.000 OA
ATOM     31  H   UNL     1       7.317  -6.846  -1.443  0.00  0.00    +0.000 HD
ENDBRANCH  29  30
BRANCH  29  32
ATOM     32  C   UNL     1       6.857  -8.952  -0.150  0.00  0.00    +0.000 C 
BRANCH  32  33
ATOM     33  C   UNL     1       8.303  -8.615   0.122  0.00  0.00    +0.000 A 
ATOM     34  N   UNL     1       8.858  -9.081   1.246  0.00  0.00    +0.000 NA
ATOM     35  C   UNL     1      10.175  -8.794   1.428  0.00  0.00    +0.000 A 
ATOM     36  C   UNL     1      10.924  -8.067   0.539  0.00  0.00    +0.000 A 
ATOM     37  C   UNL     1      10.248  -7.622  -0.573  0.00  0.00    +0.000 A 
ATOM     38  N   UNL     1       8.950  -7.869  -0.802  0.00  0.00    +0.000 NA
ENDBRANCH  32  33
ENDBRANCH  29  32
ENDBRANCH  28  29
ENDBRANCH  25  28
ENDBRANCH  21  22
ENDBRANCH   3  21
TORSDOF 11
