REMARK  Name = 
REMARK  8 active torsions:
REMARK  status: ('A' for Active; 'I' for Inactive)
REMARK    1  A    between atoms: C_2  and  O_3
REMARK    2  A    between atoms: C_2  and  C_20
REMARK    3  A    between atoms: O_3  and  C_4
REMARK    4  A    between atoms: C_4  and  C_5
REMARK    5  A    between atoms: C_8  and  C_9
REMARK    6  A    between atoms: C_9  and  N_10
REMARK    7  A    between atoms: N_10  and  C_11
REMARK    8  A    between atoms: C_11  and  C_12
REMARK                            x       y       z     vdW  Elec       q    Type
REMARK                         _______ _______ _______ _____ _____    ______ ____
ROOT
ATOM      1  C   UNL     1       4.798   1.062   2.349  0.00  0.00    +0.000 A 
ATOM      2  C   UNL     1       4.775   2.457   2.464  0.00  0.00    +0.000 A 
ATOM      3  C   UNL     1       5.049   3.073   3.688  0.00  0.00    +0.000 A 
ATOM      4  C   UNL     1       5.348   2.309   4.826  0.00  0.00    +0.000 A 
ATOM      5  C   UNL     1       5.375   0.914   4.709  0.00  0.00    +0.000 A 
ATOM      6  C   UNL     1       5.098   0.299   3.485  0.00  0.00    +0.000 A 
ENDROOT
BRANCH   1   7
ATOM      7  C   UNL     1       4.501   0.394   1.030  0.00  0.00    +0.000 C 
BRANCH   7   8
ATOM      8  O   UNL     1       5.596  -0.427   0.603  0.00  0.00    +0.000 OA
BRANCH   8  10
ATOM      9  O   UNL     1       6.565   1.404  -0.369  0.00  0.00    +0.000 OA
ATOM     10  C   UNL     1       6.590   0.218  -0.056  0.00  0.00    +0.000 C 
BRANCH  10  11
ATOM     11  C   UNL     1       7.678  -0.669  -0.462  0.00  0.00    +0.000 A 
ATOM     12  C   UNL     1       8.391  -0.428  -1.628  0.00  0.00    +0.000 A 
ATOM     13  S   UNL     1       9.602  -1.592  -1.932  0.00  0.00    +0.000 S 
ATOM     14  C   UNL     1       9.264  -2.403  -0.474  0.00  0.00    +0.000 A 
ATOM     15  N   UNL     1      10.008  -3.472  -0.084  0.00  0.00    +0.000 NA
ATOM     16  C   UNL     1       9.688  -3.951   1.071  0.00  0.00    +0.000 A 
ATOM     17  N   UNL     1       8.675  -3.471   1.858  0.00  0.00    +0.000 N 
ATOM     18  C   UNL     1       7.868  -2.419   1.493  0.00  0.00    +0.000 A 
ATOM     19  O   UNL     1       6.970  -2.047   2.235  0.00  0.00    +0.000 OA
ATOM     20  C   UNL     1       8.214  -1.824   0.212  0.00  0.00    +0.000 A 
ATOM     21  H   UNL     1       8.475  -3.889   2.756  0.00  0.00    +0.000 HD
ENDBRANCH  10  11
ENDBRANCH   8  10
ENDBRANCH   7   8
ENDBRANCH   1   7
BRANCH   4  22
ATOM     22  C   UNL     1       5.641   2.980   6.148  0.00  0.00    +0.000 C 
BRANCH  22  23
ATOM     23  N   UNL     1       4.497   3.774   6.595  0.00  0.00    +0.000 NA
ATOM     24  H   UNL     1       3.685   3.162   6.673  0.00  0.00    +0.000 HD
BRANCH  23  25
ATOM     25  C   UNL     1       4.752   4.404   7.886  0.00  0.00    +0.000 C 
BRANCH  25  26
ATOM     26  C   UNL     1       3.552   5.196   8.347  0.00  0.00    +0.000 A 
ATOM     27  C   UNL     1       2.898   4.879   9.542  0.00  0.00    +0.000 A 
ATOM     28  C   UNL     1       1.801   5.637   9.922  0.00  0.00    +0.000 A 
ATOM     29  N   UNL     1       1.316   6.673   9.207  0.00  0.00    +0.000 NA
ATOM     30  C   UNL     1       1.960   6.964   8.056  0.00  0.00    +0.000 A 
ATOM     31  C   UNL     1       3.067   6.269   7.593  0.00  0.00    +0.000 A 
ENDBRANCH  25  26
ENDBRANCH  23  25
ENDBRANCH  22  23
ENDBRANCH   4  22
TORSDOF 8
