REMARK  Name = 
REMARK  4 active torsions:
REMARK  status: ('A' for Active; 'I' for Inactive)
REMARK    1  A    between atoms: C_2  and  C_4
REMARK    2  A    between atoms: C_7  and  O_8
REMARK    3  A    between atoms: O_8  and  C_9
REMARK    4  A    between atoms: C_9  and  C_10
REMARK                            x       y       z     vdW  Elec       q    Type
REMARK                         _______ _______ _______ _____ _____    ______ ____
ROOT
ATOM      1  C   UNL     1       5.268  -4.815  -3.476  0.00  0.00    +0.000 C 
ENDROOT
BRANCH   1   2
ATOM      2  C   UNL     1       6.105  -6.048  -3.702  0.00  0.00    +0.000 A 
ATOM      3  C   UNL     1       5.546  -7.310  -3.585  0.00  0.00    +0.000 A 
ATOM      4  C   UNL     1       6.349  -8.416  -3.828  0.00  0.00    +0.000 A 
ATOM      5  C   UNL     1       7.684  -8.265  -4.182  0.00  0.00    +0.000 A 
ATOM      6  N   UNL     1       8.419  -9.392  -4.500  0.00  0.00    +0.000 N 
ATOM      7  C   UNL     1       9.613  -9.276  -5.339  0.00  0.00    +0.000 C 
ATOM      8  C   UNL     1       9.777 -10.633  -6.059  0.00  0.00    +0.000 C 
ATOM      9  O   UNL     1       9.875 -11.729  -5.124  0.00  0.00    +0.000 OA
ATOM     10  C   UNL     1       8.722 -11.780  -4.262  0.00  0.00    +0.000 C 
ATOM     11  C   UNL     1       8.538 -10.459  -3.498  0.00  0.00    +0.000 C 
ATOM     12  N   UNL     1       8.185  -7.018  -4.303  0.00  0.00    +0.000 NA
ATOM     13  N   UNL     1       7.399  -5.904  -4.048  0.00  0.00    +0.000 NA
ENDBRANCH   1   2
BRANCH   1  14
ATOM     14  O   UNL     1       5.206  -4.534  -2.077  0.00  0.00    +0.000 OA
BRANCH  14  18
ATOM     15  C   UNL     1       2.985  -1.309  -0.629  0.00  0.00    +0.000 A 
ATOM     16  C   UNL     1       2.970  -1.564  -2.006  0.00  0.00    +0.000 A 
ATOM     17  C   UNL     1       3.708  -2.631  -2.535  0.00  0.00    +0.000 A 
ATOM     18  C   UNL     1       4.463  -3.450  -1.693  0.00  0.00    +0.000 A 
ATOM     19  C   UNL     1       4.490  -3.181  -0.322  0.00  0.00    +0.000 A 
ATOM     20  C   UNL     1       3.762  -2.111   0.210  0.00  0.00    +0.000 A 
BRANCH  15  22
ATOM     21  N   UNL     1       1.072   0.202  -0.683  0.00  0.00    +0.000 N 
ATOM     22  C   UNL     1       2.209  -0.191  -0.029  0.00  0.00    +0.000 C 
ATOM     23  O   UNL     1       2.542   0.332   1.026  0.00  0.00    +0.000 OA
ATOM     24  H   UNL     1       0.493   0.871  -0.200  0.00  0.00    +0.000 HD
ATOM     25  H   UNL     1       0.630  -0.380  -1.384  0.00  0.00    +0.000 HD
ENDBRANCH  15  22
ENDBRANCH  14  18
ENDBRANCH   1  14
TORSDOF 4
