REMARK  Name = 
REMARK  8 active torsions:
REMARK  status: ('A' for Active; 'I' for Inactive)
REMARK    1  A    between atoms: C_1  and  C_2
REMARK    2  A    between atoms: C_2  and  C_3
REMARK    3  A    between atoms: C_7  and  C_8
REMARK    4  A    between atoms: C_8  and  C_9
REMARK    5  A    between atoms: C_9  and  C_10
REMARK    6  A    between atoms: C_10  and  C_11
REMARK    7  A    between atoms: C_14  and  C_15
REMARK    8  A    between atoms: C_23  and  O_24
REMARK                            x       y       z     vdW  Elec       q    Type
REMARK                         _______ _______ _______ _____ _____    ______ ____
ROOT
ATOM      1  C   UNL     1       3.038   0.388   1.448  0.00  0.00    +0.000 A 
ATOM      2  C   UNL     1       2.760   1.660   1.982  0.00  0.00    +0.000 A 
ATOM      3  C   UNL     1       3.061   1.967   3.309  0.00  0.00    +0.000 A 
ATOM      4  C   UNL     1       3.633   1.004   4.138  0.00  0.00    +0.000 A 
ATOM      5  C   UNL     1       3.920  -0.272   3.642  0.00  0.00    +0.000 A 
ATOM      6  C   UNL     1       3.659  -0.547   2.294  0.00  0.00    +0.000 A 
ENDROOT
BRANCH   1   8
ATOM      7  C   UNL     1       1.006   0.096   0.064  0.00  0.00    +0.000 C 
ATOM      8  C   UNL     1       2.554   0.011   0.033  0.00  0.00    +0.000 C 
ATOM      9  C   UNL     1       3.139   0.993  -1.018  0.00  0.00    +0.000 C 
ATOM     10  C   UNL     1       2.777   0.626  -2.459  0.00  0.00    +0.000 C 
ATOM     11  C   UNL     1       3.163  -0.810  -2.802  0.00  0.00    +0.000 C 
ATOM     12  C   UNL     1       2.591  -1.808  -1.804  0.00  0.00    +0.000 C 
ATOM     13  C   UNL     1       2.967  -1.435  -0.376  0.00  0.00    +0.000 C 
BRANCH  11  14
ATOM     14  O   UNL     1       2.698  -1.131  -4.108  0.00  0.00    +0.000 OA
ATOM     15  H   UNL     1       1.725  -1.122  -4.091  0.00  0.00    +0.000 HD
ENDBRANCH  11  14
ENDBRANCH   1   8
BRANCH   5  16
ATOM     16  C   UNL     1       4.413  -1.387   4.540  0.00  0.00    +0.000 C 
BRANCH  16  17
ATOM     17  C   UNL     1       3.364  -1.728   5.605  0.00  0.00    +0.000 C 
BRANCH  17  18
ATOM     18  C   UNL     1       3.776  -2.887   6.515  0.00  0.00    +0.000 C 
BRANCH  18  19
ATOM     19  C   UNL     1       2.707  -3.170   7.541  0.00  0.00    +0.000 A 
ATOM     20  C   UNL     1       1.662  -4.038   7.295  0.00  0.00    +0.000 A 
ATOM     21  N   UNL     1       0.659  -4.279   8.166  0.00  0.00    +0.000 NA
ATOM     22  C   UNL     1       0.728  -3.594   9.333  0.00  0.00    +0.000 A 
ATOM     23  N   UNL     1       1.695  -2.723   9.678  0.00  0.00    +0.000 NA
ATOM     24  C   UNL     1       2.669  -2.529   8.765  0.00  0.00    +0.000 A 
BRANCH  22  25
ATOM     25  C   UNL     1      -0.396  -3.828  10.322  0.00  0.00    +0.000 C 
ATOM     26  N   UNL     1      -1.362  -4.724   9.923  0.00  0.00    +0.000 N 
ATOM     27  O   UNL     1      -0.477  -3.276  11.412  0.00  0.00    +0.000 OA
ATOM     28  H   UNL     1      -1.301  -5.171   9.017  0.00  0.00    +0.000 HD
ATOM     29  H   UNL     1      -2.138  -4.912  10.541  0.00  0.00    +0.000 HD
ENDBRANCH  22  25
ENDBRANCH  18  19
ENDBRANCH  17  18
ENDBRANCH  16  17
ENDBRANCH   5  16
TORSDOF 7
