REMARK  Name = 
REMARK  8 active torsions:
REMARK  status: ('A' for Active; 'I' for Inactive)
REMARK    1  A    between atoms: C_1  and  C_2
REMARK    2  A    between atoms: C_2  and  N_3
REMARK    3  A    between atoms: C_2  and  C_17
REMARK    4  A    between atoms: C_4  and  C_6
REMARK    5  A    between atoms: N_12  and  C_13
REMARK    6  A    between atoms: C_20  and  C_21
REMARK    7  A    between atoms: C_21  and  N_22
REMARK    8  A    between atoms: C_23  and  C_25
REMARK                            x       y       z     vdW  Elec       q    Type
REMARK                         _______ _______ _______ _____ _____    ______ ____
ROOT
ATOM      1  C   UNL     1       1.030   0.113  -0.002  0.00  0.00    +0.000 C 
ATOM      2  C   UNL     1       2.561   0.030   0.039  0.00  0.00    +0.000 C 
ENDROOT
BRANCH   2   3
ATOM      3  C   UNL     1       3.033  -1.012  -0.980  0.00  0.00    +0.000 A 
ATOM      4  C   UNL     1       2.637  -2.348  -0.871  0.00  0.00    +0.000 A 
ATOM      5  C   UNL     1       2.978  -3.253  -1.873  0.00  0.00    +0.000 A 
ATOM      6  C   UNL     1       3.696  -2.812  -2.982  0.00  0.00    +0.000 A 
ATOM      7  C   UNL     1       4.101  -1.482  -2.985  0.00  0.00    +0.000 A 
ATOM      8  N   UNL     1       3.791  -0.583  -2.019  0.00  0.00    +0.000 NA
BRANCH   6   9
ATOM      9  C   UNL     1       4.016  -3.730  -4.123  0.00  0.00    +0.000 C 
BRANCH   9  10
ATOM     10  N   UNL     1       5.284  -4.383  -3.940  0.00  0.00    +0.000 N 
ATOM     11  C   UNL     1       5.755  -5.320  -4.838  0.00  0.00    +0.000 C 
ATOM     12  O   UNL     1       5.101  -5.646  -5.825  0.00  0.00    +0.000 OA
ATOM     13  H   UNL     1       5.886  -4.109  -3.175  0.00  0.00    +0.000 HD
BRANCH  11  14
ATOM     14  C   UNL     1       7.066  -5.878  -4.527  0.00  0.00    +0.000 A 
ATOM     15  C   UNL     1       7.794  -6.777  -5.288  0.00  0.00    +0.000 A 
ATOM     16  C   UNL     1       9.039  -7.126  -4.686  0.00  0.00    +0.000 A 
ATOM     17  C   UNL     1       9.224  -6.487  -3.482  0.00  0.00    +0.000 A 
ATOM     18  S   UNL     1       7.910  -5.470  -3.087  0.00  0.00    +0.000 S 
ENDBRANCH  11  14
ENDBRANCH   9  10
ENDBRANCH   6   9
ENDBRANCH   2   3
BRANCH   2  19
ATOM     19  N   UNL     1       3.057  -0.280   1.374  0.00  0.00    +0.000 N 
ATOM     20  C   UNL     1       2.853   0.500   2.480  0.00  0.00    +0.000 C 
ATOM     21  O   UNL     1       2.308   1.598   2.428  0.00  0.00    +0.000 OA
ATOM     22  H   UNL     1       3.486  -1.190   1.490  0.00  0.00    +0.000 HD
BRANCH  20  23
ATOM     23  C   UNL     1       3.349  -0.049   3.753  0.00  0.00    +0.000 A 
ATOM     24  C   UNL     1       3.632   0.799   4.814  0.00  0.00    +0.000 A 
ATOM     25  S   UNL     1       4.202  -0.012   6.203  0.00  0.00    +0.000 S 
ATOM     26  C   UNL     1       4.041  -1.531   5.451  0.00  0.00    +0.000 A 
ATOM     27  N   UNL     1       4.342  -2.677   6.113  0.00  0.00    +0.000 NA
ATOM     28  C   UNL     1       4.146  -3.760   5.432  0.00  0.00    +0.000 A 
ATOM     29  N   UNL     1       3.682  -3.816   4.136  0.00  0.00    +0.000 N 
ATOM     30  C   UNL     1       3.512  -5.085   3.457  0.00  0.00    +0.000 C 
ATOM     31  C   UNL     1       3.394  -2.662   3.421  0.00  0.00    +0.000 A 
ATOM     32  O   UNL     1       3.033  -2.692   2.248  0.00  0.00    +0.000 OA
ATOM     33  C   UNL     1       3.583  -1.420   4.152  0.00  0.00    +0.000 A 
ENDBRANCH  20  23
ENDBRANCH   2  19
TORSDOF 6
