REMARK  Name = 
REMARK  7 active torsions:
REMARK  status: ('A' for Active; 'I' for Inactive)
REMARK    1  A    between atoms: N_1  and  C_2
REMARK    2  A    between atoms: C_2  and  C_3
REMARK    3  A    between atoms: C_3  and  N_4
REMARK    4  A    between atoms: C_3  and  C_17
REMARK    5  A    between atoms: C_5  and  C_7
REMARK    6  A    between atoms: C_20  and  C_21
REMARK    7  A    between atoms: C_21  and  C_22
REMARK                            x       y       z     vdW  Elec       q    Type
REMARK                         _______ _______ _______ _____ _____    ______ ____
ROOT
ATOM      1  C   UNL     1       2.926   0.528   1.182  0.00  0.00    +0.000 C 
ENDROOT
BRANCH   1   2
ATOM      2  C   UNL     1       4.452   0.584   1.256  0.00  0.00    +0.000 A 
ATOM      3  C   UNL     1       5.105   1.818   1.365  0.00  0.00    +0.000 A 
ATOM      4  C   UNL     1       6.500   1.889   1.433  0.00  0.00    +0.000 A 
ATOM      5  C   UNL     1       7.281   0.725   1.411  0.00  0.00    +0.000 A 
ATOM      6  C   UNL     1       6.632  -0.512   1.312  0.00  0.00    +0.000 A 
ATOM      7  C   UNL     1       5.236  -0.582   1.231  0.00  0.00    +0.000 A 
BRANCH   5   8
ATOM      8  C   UNL     1       8.792   0.806   1.472  0.00  0.00    +0.000 C 
BRANCH   8   9
ATOM      9  C   UNL     1       9.415   0.808   2.853  0.00  0.00    +0.000 A 
ATOM     10  C   UNL     1       9.080   1.777   3.799  0.00  0.00    +0.000 A 
ATOM     11  C   UNL     1       9.786   1.830   5.000  0.00  0.00    +0.000 A 
ATOM     12  C   UNL     1      10.806   0.919   5.231  0.00  0.00    +0.000 A 
ATOM     13  C   UNL     1      11.071  -0.022   4.253  0.00  0.00    +0.000 A 
ATOM     14  N   UNL     1      10.405  -0.096   3.077  0.00  0.00    +0.000 NA
ENDBRANCH   8   9
ENDBRANCH   5   8
ENDBRANCH   1   2
BRANCH   1  15
ATOM     15  N   UNL     1       2.420  -0.168   2.362  0.00  0.00    +0.000 N 
ATOM     16  C   UNL     1       1.081  -0.238   2.654  0.00  0.00    +0.000 C 
ATOM     17  O   UNL     1       0.210   0.157   1.886  0.00  0.00    +0.000 OA
ATOM     18  H   UNL     1       3.080  -0.272   3.128  0.00  0.00    +0.000 HD
BRANCH  16  19
ATOM     19  C   UNL     1       0.721  -0.859   3.931  0.00  0.00    +0.000 A 
ATOM     20  C   UNL     1      -0.487  -1.531   4.059  0.00  0.00    +0.000 A 
ATOM     21  S   UNL     1      -0.765  -2.137   5.629  0.00  0.00    +0.000 S 
ATOM     22  C   UNL     1       0.700  -1.484   6.199  0.00  0.00    +0.000 A 
ATOM     23  N   UNL     1       1.050  -1.584   7.509  0.00  0.00    +0.000 NA
ATOM     24  C   UNL     1       2.166  -1.006   7.807  0.00  0.00    +0.000 A 
ATOM     25  N   UNL     1       2.974  -0.357   6.909  0.00  0.00    +0.000 N 
ATOM     26  C   UNL     1       2.693  -0.288   5.568  0.00  0.00    +0.000 A 
ATOM     27  O   UNL     1       3.485   0.199   4.767  0.00  0.00    +0.000 OA
ATOM     28  C   UNL     1       1.416  -0.865   5.190  0.00  0.00    +0.000 A 
ATOM     29  H   UNL     1       3.856   0.042   7.199  0.00  0.00    +0.000 HD
ENDBRANCH  16  19
ENDBRANCH   1  15
BRANCH   1  30
ATOM     30  C   UNL     1       2.427  -0.117  -0.149  0.00  0.00    +0.000 C 
BRANCH  30  31
ATOM     31  N   UNL     1       2.896   0.554  -1.371  0.00  0.00    +0.000 NA
ATOM     32  H   UNL     1       2.650  -0.025  -2.173  0.00  0.00    +0.000 HD
ATOM     33  H   UNL     1       3.915   0.607  -1.356  0.00  0.00    +0.000 HD
ENDBRANCH  30  31
ENDBRANCH   1  30
TORSDOF 7
