REMARK  Name = 
REMARK  5 active torsions:
REMARK  status: ('A' for Active; 'I' for Inactive)
REMARK    1  A    between atoms: N_1  and  C_2
REMARK    2  A    between atoms: C_2  and  C_3
REMARK    3  A    between atoms: C_3  and  C_4
REMARK    4  A    between atoms: N_10  and  C_11
REMARK    5  A    between atoms: C_11  and  C_12
REMARK                            x       y       z     vdW  Elec       q    Type
REMARK                         _______ _______ _______ _____ _____    ______ ____
ROOT
ATOM      1  C   UNL     1       4.608  -0.593   1.408  0.00  0.00    +0.000 A 
ATOM      2  C   UNL     1       5.395   0.536   1.606  0.00  0.00    +0.000 A 
ATOM      3  N   UNL     1       6.747   0.562   1.586  0.00  0.00    +0.000 NA
ATOM      4  C   UNL     1       7.345  -0.621   1.303  0.00  0.00    +0.000 A 
ATOM      5  C   UNL     1       8.723  -0.905   1.181  0.00  0.00    +0.000 A 
ATOM      6  C   UNL     1       8.843  -2.224   0.838  0.00  0.00    +0.000 A 
ATOM      7  N   UNL     1       7.591  -2.788   0.755  0.00  0.00    +0.000 N 
ATOM      8  C   UNL     1       6.642  -1.812   1.079  0.00  0.00    +0.000 A 
ATOM      9  C   UNL     1       5.252  -1.822   1.191  0.00  0.00    +0.000 A 
ENDROOT
BRANCH   1  10
ATOM     10  C   UNL     1       3.101  -0.530   1.385  0.00  0.00    +0.000 C 
BRANCH  10  11
ATOM     11  C   UNL     1       2.481  -0.735   2.769  0.00  0.00    +0.000 C 
BRANCH  11  12
ATOM     12  N   UNL     1       1.021  -0.685   2.702  0.00  0.00    +0.000 NA
ATOM     13  H   UNL     1       0.638  -0.845   3.633  0.00  0.00    +0.000 HD
ATOM     14  H   UNL     1       0.674  -1.446   2.118  0.00  0.00    +0.000 HD
ENDBRANCH  11  12
ENDBRANCH  10  11
ENDBRANCH   1  10
BRANCH   7  15
ATOM     15  C   UNL     1       7.361  -4.140   0.228  0.00  0.00    +0.000 C 
BRANCH  15  16
ATOM     16  C   UNL     1       7.394  -5.192   1.304  0.00  0.00    +0.000 A 
ATOM     17  C   UNL     1       8.579  -5.838   1.665  0.00  0.00    +0.000 A 
ATOM     18  C   UNL     1       8.613  -6.625   2.817  0.00  0.00    +0.000 A 
ATOM     19  C   UNL     1       7.441  -6.772   3.539  0.00  0.00    +0.000 A 
ATOM     20  N   UNL     1       6.253  -6.258   3.157  0.00  0.00    +0.000 NA
ATOM     21  C   UNL     1       6.259  -5.474   2.053  0.00  0.00    +0.000 A 
ENDBRANCH  15  16
ENDBRANCH   7  15
TORSDOF 5
