REMARK  Name = 
REMARK  8 active torsions:
REMARK  status: ('A' for Active; 'I' for Inactive)
REMARK    1  A    between atoms: C_1  and  O_2
REMARK    2  A    between atoms: O_2  and  C_3
REMARK    3  A    between atoms: C_6  and  C_7
REMARK    4  A    between atoms: C_7  and  N_8
REMARK    5  A    between atoms: N_8  and  C_9
REMARK    6  A    between atoms: C_12  and  C_13
REMARK    7  A    between atoms: C_21  and  C_22
REMARK    8  A    between atoms: C_25  and  C_26
REMARK                            x       y       z     vdW  Elec       q    Type
REMARK                         _______ _______ _______ _____ _____    ______ ____
ROOT
ATOM      1  C   UNL     1       5.451   0.052  -4.822  0.00  0.00    +0.000 C 
ATOM      2  C   UNL     1       4.800  -0.660  -5.991  0.00  0.00    +0.000 C 
ATOM      3  C   UNL     1       5.881  -1.360  -5.243  0.00  0.00    +0.000 C 
ENDROOT
BRANCH   1   7
ATOM      4  C   UNL     1       3.095   0.061  -1.140  0.00  0.00    +0.000 A 
ATOM      5  C   UNL     1       2.742   0.901  -2.207  0.00  0.00    +0.000 A 
ATOM      6  C   UNL     1       3.500   0.927  -3.386  0.00  0.00    +0.000 A 
ATOM      7  C   UNL     1       4.663   0.165  -3.518  0.00  0.00    +0.000 A 
ATOM      8  C   UNL     1       5.052  -0.582  -2.399  0.00  0.00    +0.000 A 
ATOM      9  C   UNL     1       4.256  -0.735  -1.242  0.00  0.00    +0.000 A 
BRANCH   9  10
ATOM     10  C   UNL     1       4.658  -1.789  -0.278  0.00  0.00    +0.000 A 
ATOM     11  C   UNL     1       5.216  -2.995  -0.741  0.00  0.00    +0.000 A 
ATOM     12  C   UNL     1       5.651  -3.980   0.141  0.00  0.00    +0.000 A 
ATOM     13  C   UNL     1       5.501  -3.762   1.498  0.00  0.00    +0.000 A 
ATOM     14  C   UNL     1       5.968  -4.785   2.488  0.00  0.00    +0.000 C 
ATOM     15  N   UNL     1       4.942  -2.633   1.994  0.00  0.00    +0.000 NA
ATOM     16  C   UNL     1       4.538  -1.686   1.104  0.00  0.00    +0.000 A 
ENDBRANCH   9  10
BRANCH   4  18
ATOM     17  C   UNL     1       1.225   0.793   0.162  0.00  0.00    +0.000 C 
ATOM     18  O   UNL     1       2.348  -0.065   0.002  0.00  0.00    +0.000 OA
ENDBRANCH   4  18
ENDBRANCH   1   7
BRANCH   1  19
ATOM     19  N   UNL     1       6.489   1.072  -4.995  0.00  0.00    +0.000 N 
ATOM     20  H   UNL     1       7.453   0.779  -4.878  0.00  0.00    +0.000 HD
BRANCH  19  21
ATOM     21  C   UNL     1       6.332   2.325  -5.601  0.00  0.00    +0.000 A 
ATOM     22  C   UNL     1       5.146   2.774  -6.180  0.00  0.00    +0.000 A 
ATOM     23  C   UNL     1       5.073   4.063  -6.723  0.00  0.00    +0.000 A 
ATOM     24  C   UNL     1       6.193   4.875  -6.647  0.00  0.00    +0.000 A 
ATOM     25  N   UNL     1       7.363   4.497  -6.070  0.00  0.00    +0.000 NA
ATOM     26  C   UNL     1       7.387   3.245  -5.556  0.00  0.00    +0.000 A 
BRANCH  24  27
ATOM     27  C   UNL     1       6.164   6.251  -7.234  0.00  0.00    +0.000 C 
ATOM     28  N   UNL     1       7.323   6.967  -7.093  0.00  0.00    +0.000 N 
ATOM     29  O   UNL     1       5.178   6.715  -7.794  0.00  0.00    +0.000 OA
ATOM     30  H   UNL     1       8.117   6.541  -6.624  0.00  0.00    +0.000 HD
ATOM     31  H   UNL     1       7.386   7.901  -7.469  0.00  0.00    +0.000 HD
ENDBRANCH  24  27
ENDBRANCH  19  21
ENDBRANCH   1  19
TORSDOF 6
