REMARK  Name = 
REMARK  8 active torsions:
REMARK  status: ('A' for Active; 'I' for Inactive)
REMARK    1  A    between atoms: C_1  and  C_2
REMARK    2  A    between atoms: C_9  and  C_10
REMARK    3  A    between atoms: C_10  and  C_11
REMARK    4  A    between atoms: C_10  and  C_12
REMARK    5  A    between atoms: C_12  and  N_13
REMARK    6  A    between atoms: N_13  and  C_14
REMARK    7  A    between atoms: C_17  and  C_18
REMARK    8  A    between atoms: C_26  and  C_27
REMARK                            x       y       z     vdW  Elec       q    Type
REMARK                         _______ _______ _______ _____ _____    ______ ____
ROOT
ATOM      1  C   UNL     1       2.361   4.804  -5.013  0.00  0.00    +0.000 C 
ATOM      2  C   UNL     1       2.436   5.714  -3.784  0.00  0.00    +0.000 C 
ENDROOT
BRANCH   1  11
ATOM      3  C   UNL     1       3.062   2.420   0.123  0.00  0.00    +0.000 C 
ATOM      4  C   UNL     1       3.942   1.295  -0.421  0.00  0.00    +0.000 C 
ATOM      5  C   UNL     1       4.015   1.282  -1.960  0.00  0.00    +0.000 C 
ATOM      6  N   UNL     1       2.772   0.765  -2.520  0.00  0.00    +0.000 N 
ATOM      7  C   UNL     1       2.015   1.511  -3.381  0.00  0.00    +0.000 A 
ATOM      8  N   UNL     1       0.866   1.011  -3.852  0.00  0.00    +0.000 NA
ATOM      9  C   UNL     1       0.172   1.766  -4.728  0.00  0.00    +0.000 A 
ATOM     10  C   UNL     1       0.577   3.009  -5.153  0.00  0.00    +0.000 A 
ATOM     11  C   UNL     1       1.762   3.462  -4.621  0.00  0.00    +0.000 A 
ATOM     12  N   UNL     1       2.470   2.721  -3.742  0.00  0.00    +0.000 NA
ATOM     13  C   UNL     1       2.312  -0.510  -1.984  0.00  0.00    +0.000 C 
ATOM     14  C   UNL     1       2.285  -0.447  -0.441  0.00  0.00    +0.000 C 
ATOM     15  C   UNL     1       2.014  -1.825   0.150  0.00  0.00    +0.000 C 
ATOM     16  O   UNL     1       3.539   0.013   0.102  0.00  0.00    +0.000 OA
ENDBRANCH   1  11
BRANCH   1  17
ATOM     17  C   UNL     1       3.744   4.552  -5.648  0.00  0.00    +0.000 C 
BRANCH  17  18
ATOM     18  N   UNL     1       4.396   5.791  -6.110  0.00  0.00    +0.000 N 
ATOM     19  H   UNL     1       4.420   6.499  -5.376  0.00  0.00    +0.000 HD
BRANCH  18  20
ATOM     20  C   UNL     1       5.685   5.641  -6.661  0.00  0.00    +0.000 A 
ATOM     21  C   UNL     1       6.058   4.529  -7.428  0.00  0.00    +0.000 A 
ATOM     22  C   UNL     1       7.335   4.428  -7.991  0.00  0.00    +0.000 A 
ATOM     23  C   UNL     1       8.264   5.459  -7.829  0.00  0.00    +0.000 A 
ATOM     24  C   UNL     1       7.879   6.592  -7.115  0.00  0.00    +0.000 A 
ATOM     25  F   UNL     1       8.723   7.622  -6.941  0.00  0.00    +0.000 F 
ATOM     26  C   UNL     1       6.602   6.693  -6.553  0.00  0.00    +0.000 A 
BRANCH  23  27
ATOM     27  C   UNL     1       9.609   5.298  -8.438  0.00  0.00    +0.000 C 
ATOM     28  N   UNL     1      10.514   6.306  -8.274  0.00  0.00    +0.000 N 
ATOM     29  O   UNL     1       9.909   4.291  -9.069  0.00  0.00    +0.000 OA
ATOM     30  H   UNL     1      10.307   7.157  -7.766  0.00  0.00    +0.000 HD
ATOM     31  H   UNL     1      11.429   6.197  -8.692  0.00  0.00    +0.000 HD
ENDBRANCH  23  27
ENDBRANCH  18  20
ENDBRANCH  17  18
ENDBRANCH   1  17
TORSDOF 5
