REMARK  Name = 
REMARK  5 active torsions:
REMARK  status: ('A' for Active; 'I' for Inactive)
REMARK    1  A    between atoms: C_1  and  N_2
REMARK    2  A    between atoms: N_2  and  C_3
REMARK    3  A    between atoms: C_3  and  C_4
REMARK    4  A    between atoms: C_7  and  C_8
REMARK    5  A    between atoms: C_15  and  C_16
REMARK                            x       y       z     vdW  Elec       q    Type
REMARK                         _______ _______ _______ _____ _____    ______ ____
ROOT
ATOM      1  C   UNL     1       3.009  -1.287   0.448  0.00  0.00    +0.000 C 
ATOM      2  C   UNL     1       2.999  -2.489  -0.547  0.00  0.00    +0.000 C 
ATOM      3  C   UNL     1       2.782  -3.400   0.684  0.00  0.00    +0.000 C 
ATOM      4  C   UNL     1       2.089  -2.186   1.388  0.00  0.00    +0.000 C 
ENDROOT
BRANCH   4   5
ATOM      5  C   UNL     1       0.491  -2.152   1.373  0.00  0.00    +0.000 A 
ATOM      6  C   UNL     1      -0.300  -2.738   0.366  0.00  0.00    +0.000 A 
ATOM      7  C   UNL     1      -1.674  -2.522   0.306  0.00  0.00    +0.000 A 
ATOM      8  C   UNL     1      -2.247  -1.761   1.304  0.00  0.00    +0.000 A 
ATOM      9 CL   UNL     1      -3.908  -1.344   1.246  0.00  0.00    +0.000 Cl
ATOM     10  N   UNL     1      -1.571  -1.253   2.349  0.00  0.00    +0.000 NA
ATOM     11  C   UNL     1      -0.234  -1.467   2.358  0.00  0.00    +0.000 A 
ENDBRANCH   4   5
BRANCH   1  12
ATOM     12  C   UNL     1       4.445  -0.850   1.057  0.00  0.00    +0.000 A 
ATOM     13  C   UNL     1       4.560  -0.248   2.328  0.00  0.00    +0.000 A 
ATOM     14  C   UNL     1       5.802   0.053   2.895  0.00  0.00    +0.000 A 
ATOM     15  C   UNL     1       6.980  -0.245   2.205  0.00  0.00    +0.000 A 
ATOM     16  C   UNL     1       6.903  -0.760   0.914  0.00  0.00    +0.000 A 
ATOM     17  C   UNL     1       5.653  -1.045   0.353  0.00  0.00    +0.000 A 
BRANCH  15  18
ATOM     18  C   UNL     1       8.278   0.014   2.875  0.00  0.00    +0.000 C 
ATOM     19  N   UNL     1       9.354  -0.721   2.469  0.00  0.00    +0.000 N 
ATOM     20  O   UNL     1       8.380   0.825   3.794  0.00  0.00    +0.000 OA
ATOM     21  H   UNL     1       9.280  -1.522   1.859  0.00  0.00    +0.000 HD
ATOM     22  H   UNL     1      10.204  -0.613   3.009  0.00  0.00    +0.000 HD
ENDBRANCH  15  18
ENDBRANCH   1  12
BRANCH   1  24
ATOM     23  C   UNL     1       1.161  -0.057  -0.812  0.00  0.00    +0.000 C 
ATOM     24  N   UNL     1       2.427  -0.060  -0.115  0.00  0.00    +0.000 NA
ATOM     25  H   UNL     1       2.479   0.749   0.502  0.00  0.00    +0.000 HD
ENDBRANCH   1  24
TORSDOF 4
