REMARK  Name = 
REMARK  7 active torsions:
REMARK  status: ('A' for Active; 'I' for Inactive)
REMARK    1  A    between atoms: C_2  and  C_19
REMARK    2  A    between atoms: N_3  and  C_4
REMARK    3  A    between atoms: C_4  and  C_5
REMARK    4  A    between atoms: C_8  and  C_9
REMARK    5  A    between atoms: C_9  and  C_10
REMARK    6  A    between atoms: C_10  and  O_11
REMARK    7  A    between atoms: O_11  and  C_12
REMARK                            x       y       z     vdW  Elec       q    Type
REMARK                         _______ _______ _______ _____ _____    ______ ____
ROOT
ATOM      1  O   UNL     1      16.167  -2.971  13.192  0.00  0.00    +0.000 OA
ATOM      2  C   UNL     1      16.098  -1.766  12.967  0.00  0.00    +0.000 C 
ATOM      3  N   UNL     1      14.907  -1.139  12.707  0.00  0.00    +0.000 N 
ATOM      4  H   UNL     1      14.917  -0.202  12.317  0.00  0.00    +0.000 HD
ENDROOT
BRANCH   2   5
ATOM      5  C   UNL     1      17.288  -0.910  13.006  0.00  0.00    +0.000 A 
ATOM      6  C   UNL     1      18.391  -1.288  13.758  0.00  0.00    +0.000 A 
ATOM      7  S   UNL     1      19.675  -0.167  13.697  0.00  0.00    +0.000 S 
ATOM      8  C   UNL     1      18.817   0.841  12.628  0.00  0.00    +0.000 A 
ATOM      9  N   UNL     1      19.371   1.986  12.146  0.00  0.00    +0.000 NA
ATOM     10  C   UNL     1      18.624   2.637  11.320  0.00  0.00    +0.000 A 
ATOM     11  N   UNL     1      17.365   2.248  10.936  0.00  0.00    +0.000 N 
ATOM     12  C   UNL     1      16.751   1.120  11.420  0.00  0.00    +0.000 A 
ATOM     13  O   UNL     1      15.603   0.830  11.098  0.00  0.00    +0.000 OA
ATOM     14  C   UNL     1      17.561   0.343  12.339  0.00  0.00    +0.000 A 
ATOM     15  H   UNL     1      16.825   2.812  10.296  0.00  0.00    +0.000 HD
ENDBRANCH   2   5
BRANCH   3  16
ATOM     16  C   UNL     1      13.694  -1.898  12.546  0.00  0.00    +0.000 C 
BRANCH  16  17
ATOM     17  C   UNL     1      12.522  -1.000  12.291  0.00  0.00    +0.000 A 
ATOM     18  C   UNL     1      12.157  -0.630  10.996  0.00  0.00    +0.000 A 
ATOM     19  C   UNL     1      11.058   0.203  10.796  0.00  0.00    +0.000 A 
ATOM     20  C   UNL     1      10.346   0.658  11.902  0.00  0.00    +0.000 A 
ATOM     21  N   UNL     1      10.716   0.352  13.170  0.00  0.00    +0.000 NA
ATOM     22  C   UNL     1      11.781  -0.466  13.336  0.00  0.00    +0.000 A 
BRANCH  20  23
ATOM     23  C   UNL     1       9.126   1.536  11.737  0.00  0.00    +0.000 C 
BRANCH  23  24
ATOM     24  C   UNL     1       7.999   0.873  10.940  0.00  0.00    +0.000 C 
BRANCH  24  25
ATOM     25  O   UNL     1       7.534  -0.264  11.659  0.00  0.00    +0.000 OA
BRANCH  25  26
ATOM     26  C   UNL     1       6.563  -1.043  10.980  0.00  0.00    +0.000 C 
ATOM     27  C   UNL     1       6.263  -2.266  11.815  0.00  0.00    +0.000 C 
ATOM     28  C   UNL     1       4.873  -2.647  11.371  0.00  0.00    +0.000 C 
ATOM     29  O   UNL     1       4.215  -1.446  10.946  0.00  0.00    +0.000 OA
ATOM     30  C   UNL     1       5.191  -0.395  10.880  0.00  0.00    +0.000 C 
ENDBRANCH  25  26
ENDBRANCH  24  25
ENDBRANCH  23  24
ENDBRANCH  20  23
ENDBRANCH  16  17
ENDBRANCH   3  16
TORSDOF 7
