REMARK  Name = 
REMARK  5 active torsions:
REMARK  status: ('A' for Active; 'I' for Inactive)
REMARK    1  A    between atoms: C_2  and  C_4
REMARK    2  A    between atoms: N_8  and  C_9
REMARK    3  A    between atoms: C_9  and  C_10
REMARK    4  A    between atoms: C_15  and  N_16
REMARK    5  A    between atoms: C_19  and  N_20
REMARK                            x       y       z     vdW  Elec       q    Type
REMARK                         _______ _______ _______ _____ _____    ______ ____
ROOT
ATOM      1  C   UNL     1       7.463   4.119  -4.584  0.00  0.00    +0.000 A 
ATOM      2  C   UNL     1       7.112   5.440  -4.287  0.00  0.00    +0.000 A 
ATOM      3  C   UNL     1       7.707   6.492  -4.977  0.00  0.00    +0.000 A 
ATOM      4  C   UNL     1       8.654   6.229  -5.966  0.00  0.00    +0.000 A 
ATOM      5  F   UNL     1       9.159   7.284  -6.627  0.00  0.00    +0.000 F 
ATOM      6  C   UNL     1       9.044   4.920  -6.305  0.00  0.00    +0.000 A 
ATOM      7  C   UNL     1       8.414   3.877  -5.597  0.00  0.00    +0.000 A 
ENDROOT
BRANCH   6   8
ATOM      8  N   UNL     1      10.010   4.643  -7.262  0.00  0.00    +0.000 N 
ATOM      9  C   UNL     1      11.169   5.517  -7.454  0.00  0.00    +0.000 C 
ATOM     10  C   UNL     1      11.202   6.057  -8.881  0.00  0.00    +0.000 C 
ATOM     11  C   UNL     1      11.093   4.941  -9.927  0.00  0.00    +0.000 C 
ATOM     12  C   UNL     1       9.863   4.073  -9.637  0.00  0.00    +0.000 C 
ATOM     13  C   UNL     1       9.845   3.536  -8.206  0.00  0.00    +0.000 C 
BRANCH  11  14
ATOM     14  N   UNL     1      12.312   4.124 -10.002  0.00  0.00    +0.000 NA
ATOM     15  H   UNL     1      12.503   3.683  -9.104  0.00  0.00    +0.000 HD
ATOM     16  H   UNL     1      13.113   4.725 -10.195  0.00  0.00    +0.000 HD
ENDBRANCH  11  14
ENDBRANCH   6   8
BRANCH   1  17
ATOM     17  C   UNL     1       6.835   2.974  -3.817  0.00  0.00    +0.000 C 
BRANCH  17  22
ATOM     18  C   UNL     1       3.664  -0.590  -2.649  0.00  0.00    +0.000 A 
ATOM     19  C   UNL     1       4.422   0.298  -1.928  0.00  0.00    +0.000 A 
ATOM     20  N   UNL     1       5.065   1.355  -2.476  0.00  0.00    +0.000 NA
ATOM     21  C   UNL     1       4.950   1.525  -3.804  0.00  0.00    +0.000 A 
ATOM     22  N   UNL     1       5.579   2.593  -4.428  0.00  0.00    +0.000 N 
ATOM     23  N   UNL     1       4.249   0.702  -4.596  0.00  0.00    +0.000 NA
ATOM     24  C   UNL     1       3.620  -0.344  -4.001  0.00  0.00    +0.000 A 
ATOM     25  H   UNL     1       5.625   2.376  -5.417  0.00  0.00    +0.000 HD
BRANCH  18  27
ATOM     26  N   UNL     1       2.635  -1.700  -0.745  0.00  0.00    +0.000 N 
ATOM     27  C   UNL     1       2.982  -1.754  -2.067  0.00  0.00    +0.000 C 
ATOM     28  O   UNL     1       2.717  -2.734  -2.750  0.00  0.00    +0.000 OA
ATOM     29  H   UNL     1       2.099  -2.485  -0.391  0.00  0.00    +0.000 HD
ATOM     30  H   UNL     1       2.603  -0.845  -0.207  0.00  0.00    +0.000 HD
ENDBRANCH  18  27
ENDBRANCH  17  22
ENDBRANCH   1  17
TORSDOF 5
