REMARK  Name = 
REMARK  9 active torsions:
REMARK  status: ('A' for Active; 'I' for Inactive)
REMARK    1  A    between atoms: C_1  and  C_2
REMARK    2  A    between atoms: C_4  and  C_5
REMARK    3  A    between atoms: C_5  and  C_6
REMARK    4  A    between atoms: C_5  and  C_7
REMARK    5  A    between atoms: C_7  and  N_8
REMARK    6  A    between atoms: N_8  and  C_9
REMARK    7  A    between atoms: C_14  and  C_15
REMARK    8  A    between atoms: C_19  and  C_20
REMARK    9  A    between atoms: C_26  and  C_27
REMARK                            x       y       z     vdW  Elec       q    Type
REMARK                         _______ _______ _______ _____ _____    ______ ____
ROOT
ATOM      1  N   UNL     1      -1.367   5.114  -0.045  0.00  0.00    +0.000 N 
ATOM      2  H   UNL     1      -2.308   5.161  -0.429  0.00  0.00    +0.000 HD
ENDROOT
BRANCH   1   3
ATOM      3  C   UNL     1      -0.602   6.252  -0.270  0.00  0.00    +0.000 A 
ATOM      4  C   UNL     1       0.789   6.246  -0.280  0.00  0.00    +0.000 A 
ATOM      5  C   UNL     1       1.501   7.432  -0.410  0.00  0.00    +0.000 A 
ATOM      6  C   UNL     1       0.838   8.660  -0.491  0.00  0.00    +0.000 A 
ATOM      7 CL   UNL     1       1.892  10.036  -0.523  0.00  0.00    +0.000 Cl
ATOM      8  C   UNL     1      -0.573   8.730  -0.483  0.00  0.00    +0.000 A 
ATOM      9  C   UNL     1      -1.256   7.493  -0.365  0.00  0.00    +0.000 A 
BRANCH   8  10
ATOM     10  C   UNL     1      -1.372   9.987  -0.581  0.00  0.00    +0.000 A 
ATOM     11  C   UNL     1      -2.612  10.124   0.069  0.00  0.00    +0.000 A 
ATOM     12  C   UNL     1      -3.338  11.302  -0.056  0.00  0.00    +0.000 A 
ATOM     13  N   UNL     1      -2.917  12.368  -0.760  0.00  0.00    +0.000 NA
ATOM     14  C   UNL     1      -1.727  12.239  -1.386  0.00  0.00    +0.000 A 
ATOM     15  C   UNL     1      -0.957  11.083  -1.347  0.00  0.00    +0.000 A 
BRANCH  14  16
ATOM     16  C   UNL     1      -1.262  13.384  -2.116  0.00  0.00    +0.000 C 
ATOM     17  N   UNL     1      -0.841  14.287  -2.714  0.00  0.00    +0.000 NA
ENDBRANCH  14  16
ENDBRANCH   8  10
ENDBRANCH   1   3
BRANCH   1  18
ATOM     18  C   UNL     1      -0.745   3.790  -0.017  0.00  0.00    +0.000 C 
BRANCH  18  19
ATOM     19  C   UNL     1      -1.801   2.668   0.122  0.00  0.00    +0.000 C 
ATOM     20  C   UNL     1      -2.590   2.897   1.423  0.00  0.00    +0.000 C 
BRANCH  19  24
ATOM     21  C   UNL     1      -5.598   0.234  -2.175  0.00  0.00    +0.000 C 
ATOM     22  C   UNL     1      -4.523   1.277  -2.220  0.00  0.00    +0.000 A 
ATOM     23  C   UNL     1      -3.691   1.473  -1.102  0.00  0.00    +0.000 A 
ATOM     24  C   UNL     1      -2.696   2.462  -1.097  0.00  0.00    +0.000 A 
ATOM     25  C   UNL     1      -2.556   3.190  -2.277  0.00  0.00    +0.000 A 
ATOM     26  N   UNL     1      -3.323   3.038  -3.378  0.00  0.00    +0.000 NA
ATOM     27  C   UNL     1      -4.300   2.088  -3.334  0.00  0.00    +0.000 A 
BRANCH  27  28
ATOM     28  C   UNL     1      -5.116   1.992  -4.603  0.00  0.00    +0.000 C 
ATOM     29  N   UNL     1      -4.746   2.879  -5.588  0.00  0.00    +0.000 N 
ATOM     30  O   UNL     1      -6.042   1.217  -4.779  0.00  0.00    +0.000 OA
ATOM     31  H   UNL     1      -3.964   3.505  -5.425  0.00  0.00    +0.000 HD
ATOM     32  H   UNL     1      -5.233   2.869  -6.470  0.00  0.00    +0.000 HD
ENDBRANCH  27  28
ENDBRANCH  19  24
ENDBRANCH  18  19
ENDBRANCH   1  18
TORSDOF 7
