REMARK  Name = 
REMARK  3 active torsions:
REMARK  status: ('A' for Active; 'I' for Inactive)
REMARK    1  A    between atoms: C_2  and  C_4
REMARK    2  A    between atoms: N_8  and  C_9
REMARK    3  A    between atoms: C_9  and  C_10
REMARK                            x       y       z     vdW  Elec       q    Type
REMARK                         _______ _______ _______ _____ _____    ______ ____
ROOT
ATOM      1  C   UNL     1       2.768  -0.941  -1.355  0.00  0.00    +0.000 A 
ATOM      2  C   UNL     1       3.893  -1.396  -0.675  0.00  0.00    +0.000 A 
ATOM      3  C   UNL     1       4.633  -2.443  -1.222  0.00  0.00    +0.000 A 
ATOM      4  C   UNL     1       4.278  -2.974  -2.463  0.00  0.00    +0.000 A 
ATOM      5  N   UNL     1       5.063  -4.015  -2.987  0.00  0.00    +0.000 N 
ATOM      6  N   UNL     1       3.170  -2.561  -3.110  0.00  0.00    +0.000 NA
ATOM      7  C   UNL     1       2.430  -1.575  -2.539  0.00  0.00    +0.000 A 
ATOM      8  H   UNL     1       6.020  -3.903  -2.675  0.00  0.00    +0.000 HD
ENDROOT
BRANCH   1  10
ATOM      9  N   UNL     1       2.558   1.143  -0.136  0.00  0.00    +0.000 N 
ATOM     10  C   UNL     1       1.932   0.174  -0.871  0.00  0.00    +0.000 C 
ATOM     11  O   UNL     1       0.746   0.261  -1.158  0.00  0.00    +0.000 OA
ATOM     12  H   UNL     1       2.005   1.963   0.082  0.00  0.00    +0.000 HD
ATOM     13  H   UNL     1       3.563   1.239  -0.114  0.00  0.00    +0.000 HD
ENDBRANCH   1  10
BRANCH   5  14
ATOM     14  C   UNL     1       4.985  -4.137  -4.444  0.00  0.00    +0.000 C 
BRANCH  14  15
ATOM     15  C   UNL     1       5.929  -5.244  -4.963  0.00  0.00    +0.000 C 
ATOM     16  C   UNL     1       5.560  -6.617  -4.379  0.00  0.00    +0.000 C 
ATOM     17  C   UNL     1       6.504  -7.715  -4.859  0.00  0.00    +0.000 C 
ATOM     18  C   UNL     1       7.959  -7.364  -4.569  0.00  0.00    +0.000 C 
ATOM     19  C   UNL     1       8.339  -6.029  -5.198  0.00  0.00    +0.000 C 
ATOM     20  C   UNL     1       7.414  -4.907  -4.730  0.00  0.00    +0.000 C 
ENDBRANCH  14  15
ENDBRANCH   5  14
TORSDOF 3
