REMARK  Name = 
REMARK  4 active torsions:
REMARK  status: ('A' for Active; 'I' for Inactive)
REMARK    1  A    between atoms: C_2  and  C_4
REMARK    2  A    between atoms: C_7  and  C_8
REMARK    3  A    between atoms: C_9  and  C_10
REMARK    4  A    between atoms: C_14  and  C_15
REMARK                            x       y       z     vdW  Elec       q    Type
REMARK                         _______ _______ _______ _____ _____    ______ ____
ROOT
ATOM      1  C   UNL     1       5.355  -2.212   4.346  0.00  0.00    +0.000 C 
ATOM      2  C   UNL     1       5.237  -3.458   4.834  0.00  0.00    +0.000 C 
ENDROOT
BRANCH   1   6
ATOM      3  C   UNL     1       3.054  -0.575   1.201  0.00  0.00    +0.000 A 
ATOM      4  C   UNL     1       2.442  -1.508   2.026  0.00  0.00    +0.000 A 
ATOM      5  C   UNL     1       3.187  -2.059   3.068  0.00  0.00    +0.000 A 
ATOM      6  C   UNL     1       4.518  -1.679   3.258  0.00  0.00    +0.000 A 
ATOM      7  C   UNL     1       5.028  -0.712   2.387  0.00  0.00    +0.000 A 
ATOM      8  N   UNL     1       4.341  -0.155   1.360  0.00  0.00    +0.000 NA
BRANCH   3  10
ATOM      9  N   UNL     1       2.983   0.882  -0.736  0.00  0.00    +0.000 N 
ATOM     10  C   UNL     1       2.286   0.012   0.058  0.00  0.00    +0.000 C 
ATOM     11  O   UNL     1       1.117  -0.269  -0.168  0.00  0.00    +0.000 OA
ATOM     12  H   UNL     1       2.531   1.287  -1.543  0.00  0.00    +0.000 HD
ATOM     13  H   UNL     1       3.960   1.072  -0.539  0.00  0.00    +0.000 HD
ENDBRANCH   3  10
ENDBRANCH   1   6
BRANCH   2  14
ATOM     14  C   UNL     1       6.065  -4.021   5.910  0.00  0.00    +0.000 A 
ATOM     15  C   UNL     1       6.344  -5.384   5.924  0.00  0.00    +0.000 A 
ATOM     16  N   UNL     1       7.053  -6.008   6.890  0.00  0.00    +0.000 NA
ATOM     17  C   UNL     1       7.494  -5.237   7.912  0.00  0.00    +0.000 A 
ATOM     18  C   UNL     1       7.263  -3.865   8.040  0.00  0.00    +0.000 A 
ATOM     19  C   UNL     1       6.529  -3.269   6.997  0.00  0.00    +0.000 A 
BRANCH  18  20
ATOM     20  C   UNL     1       7.720  -3.093   9.213  0.00  0.00    +0.000 A 
ATOM     21  C   UNL     1       8.126  -1.754   9.118  0.00  0.00    +0.000 A 
ATOM     22  C   UNL     1       8.504  -1.041  10.257  0.00  0.00    +0.000 A 
ATOM     23  C   UNL     1       8.482  -1.691  11.477  0.00  0.00    +0.000 A 
ATOM     24  N   UNL     1       8.120  -2.979  11.624  0.00  0.00    +0.000 NA
ATOM     25  C   UNL     1       7.748  -3.641  10.499  0.00  0.00    +0.000 A 
ENDBRANCH  18  20
ENDBRANCH   2  14
TORSDOF 4
