REMARK  Name = 
REMARK  9 active torsions:
REMARK  status: ('A' for Active; 'I' for Inactive)
REMARK    1  A    between atoms: C_1  and  O_2
REMARK    2  A    between atoms: O_2  and  C_3
REMARK    3  A    between atoms: C_10  and  C_11
REMARK    4  A    between atoms: N_13  and  C_14
REMARK    5  A    between atoms: C_14  and  C_15
REMARK    6  A    between atoms: C_18  and  N_19
REMARK    7  A    between atoms: N_19  and  C_20
REMARK    8  A    between atoms: C_20  and  C_21
REMARK    9  A    between atoms: C_21  and  C_22
REMARK                            x       y       z     vdW  Elec       q    Type
REMARK                         _______ _______ _______ _____ _____    ______ ____
ROOT
ATOM      1  C   UNL     1       1.699   0.885  -3.181  0.00  0.00    +0.000 A 
ATOM      2  C   UNL     1       1.855  -0.503  -3.254  0.00  0.00    +0.000 A 
ATOM      3  C   UNL     1       0.747  -1.336  -3.456  0.00  0.00    +0.000 A 
ATOM      4  C   UNL     1      -0.544  -0.808  -3.560  0.00  0.00    +0.000 A 
ATOM      5  C   UNL     1      -0.677   0.584  -3.595  0.00  0.00    +0.000 A 
ATOM      6  C   UNL     1       0.426   1.424  -3.395  0.00  0.00    +0.000 A 
ENDROOT
BRANCH   4   7
ATOM      7  N   UNL     1      -1.690  -1.588  -3.787  0.00  0.00    +0.000 N 
ATOM      8  H   UNL     1      -1.798  -1.717  -4.793  0.00  0.00    +0.000 HD
BRANCH   7   9
ATOM      9  C   UNL     1      -1.798  -2.866  -3.077  0.00  0.00    +0.000 C 
BRANCH   9  10
ATOM     10  C   UNL     1      -2.400  -2.674  -1.674  0.00  0.00    +0.000 C 
BRANCH  10  11
ATOM     11  C   UNL     1      -3.901  -2.281  -1.676  0.00  0.00    +0.000 C 
ATOM     12  C   UNL     1      -4.473  -2.130  -0.256  0.00  0.00    +0.000 C 
ATOM     13  C   UNL     1      -4.672  -3.473   0.453  0.00  0.00    +0.000 C 
ATOM     14  C   UNL     1      -5.267  -4.572  -0.437  0.00  0.00    +0.000 C 
ATOM     15  N   UNL     1      -4.744  -4.611  -1.803  0.00  0.00    +0.000 NA
ATOM     16  C   UNL     1      -4.796  -3.284  -2.420  0.00  0.00    +0.000 C 
ATOM     17  H   UNL     1      -3.784  -4.948  -1.785  0.00  0.00    +0.000 HD
ENDBRANCH  10  11
ENDBRANCH   9  10
ENDBRANCH   7   9
ENDBRANCH   4   7
BRANCH   1  18
ATOM     18  C   UNL     1       2.886   1.778  -2.927  0.00  0.00    +0.000 C 
BRANCH  18  21
ATOM     19  C   UNL     1       4.676   2.892  -4.190  0.00  0.00    +0.000 C 
ATOM     20  O   UNL     1       5.204   3.297  -3.156  0.00  0.00    +0.000 OA
ATOM     21  N   UNL     1       3.535   2.141  -4.158  0.00  0.00    +0.000 N 
ATOM     22  H   UNL     1       3.088   1.862  -5.020  0.00  0.00    +0.000 HD
BRANCH  19  30
ATOM     23  C   UNL     1       3.885   1.905  -7.391  0.00  0.00    +0.000 A 
ATOM     24  N   UNL     1       3.805   1.668  -8.715  0.00  0.00    +0.000 NA
ATOM     25  C   UNL     1       4.710   2.247  -9.509  0.00  0.00    +0.000 A 
ATOM     26  N   UNL     1       5.707   3.047  -9.141  0.00  0.00    +0.000 NA
ATOM     27  C   UNL     1       5.745   3.258  -7.811  0.00  0.00    +0.000 A 
ATOM     28  S   UNL     1       6.953   4.256  -7.157  0.00  0.00    +0.000 S 
ATOM     29  C   UNL     1       6.371   4.012  -5.579  0.00  0.00    +0.000 A 
ATOM     30  C   UNL     1       5.256   3.184  -5.512  0.00  0.00    +0.000 A 
ATOM     31  C   UNL     1       4.883   2.734  -6.852  0.00  0.00    +0.000 A 
BRANCH  23  33
ATOM     32  C   UNL     1       2.306   0.189  -7.126  0.00  0.00    +0.000 C 
ATOM     33  O   UNL     1       2.921   1.349  -6.573  0.00  0.00    +0.000 OA
ENDBRANCH  23  33
ENDBRANCH  19  30
ENDBRANCH  18  21
ENDBRANCH   1  18
TORSDOF 8
