REMARK  Name = 
REMARK  4 active torsions:
REMARK  status: ('A' for Active; 'I' for Inactive)
REMARK    1  A    between atoms: C_2  and  C_3
REMARK    2  A    between atoms: C_8  and  N_9
REMARK    3  A    between atoms: N_9  and  C_10
REMARK    4  A    between atoms: C_10  and  C_11
REMARK                            x       y       z     vdW  Elec       q    Type
REMARK                         _______ _______ _______ _____ _____    ______ ____
ROOT
ATOM      1  N   UNL     1       0.487  -2.069   0.250  0.00  0.00    +0.000 N 
ATOM      2  H   UNL     1      -0.009  -2.325   1.100  0.00  0.00    +0.000 HD
ENDROOT
BRANCH   1   8
ATOM      3  C   UNL     1      -0.231  -0.965  -1.885  0.00  0.00    +0.000 A 
ATOM      4  C   UNL     1      -1.302  -0.316  -2.528  0.00  0.00    +0.000 A 
ATOM      5  C   UNL     1      -2.508  -0.125  -1.870  0.00  0.00    +0.000 A 
ATOM      6  C   UNL     1      -2.607  -0.599  -0.582  0.00  0.00    +0.000 A 
ATOM      7  N   UNL     1      -1.603  -1.241   0.052  0.00  0.00    +0.000 NA
ATOM      8  C   UNL     1      -0.415  -1.429  -0.585  0.00  0.00    +0.000 A 
BRANCH   3  10
ATOM      9  N   UNL     1       1.929  -1.138  -3.299  0.00  0.00    +0.000 NA
ATOM     10  C   UNL     1       0.982  -1.085  -2.624  0.00  0.00    +0.000 C 
ENDBRANCH   3  10
ENDBRANCH   1   8
BRANCH   1  11
ATOM     11  C   UNL     1       1.833  -2.591   0.042  0.00  0.00    +0.000 C 
ATOM     12  C   UNL     1       2.825  -2.154   1.125  0.00  0.00    +0.000 C 
ATOM     13  C   UNL     1       3.024  -1.712  -0.281  0.00  0.00    +0.000 C 
BRANCH  11  14
ATOM     14  C   UNL     1       1.884  -4.053  -0.393  0.00  0.00    +0.000 A 
ATOM     15  C   UNL     1       1.984  -4.433  -1.739  0.00  0.00    +0.000 A 
ATOM     16  C   UNL     1       2.059  -5.774  -2.109  0.00  0.00    +0.000 A 
ATOM     17  C   UNL     1       2.036  -6.730  -1.111  0.00  0.00    +0.000 A 
ATOM     18  N   UNL     1       1.933  -6.432   0.199  0.00  0.00    +0.000 NA
ATOM     19  C   UNL     1       1.856  -5.113   0.517  0.00  0.00    +0.000 A 
ENDBRANCH  11  14
ENDBRANCH   1  11
TORSDOF 4
