REMARK  Name = 
REMARK  5 active torsions:
REMARK  status: ('A' for Active; 'I' for Inactive)
REMARK    1  A    between atoms: C_2  and  C_4
REMARK    2  A    between atoms: N_8  and  C_9
REMARK    3  A    between atoms: C_9  and  C_10
REMARK    4  A    between atoms: C_12  and  C_13
REMARK    5  A    between atoms: C_17  and  C_18
REMARK                            x       y       z     vdW  Elec       q    Type
REMARK                         _______ _______ _______ _____ _____    ______ ____
ROOT
ATOM      1  C   UNL     1       5.920  -1.371   5.203  0.00  0.00    +0.000 C 
ATOM      2  C   UNL     1       5.661  -1.462   3.701  0.00  0.00    +0.000 C 
ATOM      3  C   UNL     1       4.522  -1.605   4.656  0.00  0.00    +0.000 C 
ENDROOT
BRANCH   1   8
ATOM      4  C   UNL     1       4.710   2.079   8.771  0.00  0.00    +0.000 A 
ATOM      5  C   UNL     1       6.046   2.121   8.460  0.00  0.00    +0.000 A 
ATOM      6  N   UNL     1       6.605   1.388   7.474  0.00  0.00    +0.000 NA
ATOM      7  C   UNL     1       5.796   0.558   6.792  0.00  0.00    +0.000 A 
ATOM      8  N   UNL     1       6.373  -0.059   5.686  0.00  0.00    +0.000 N 
ATOM      9  N   UNL     1       4.494   0.387   7.081  0.00  0.00    +0.000 NA
ATOM     10  C   UNL     1       3.974   1.159   8.063  0.00  0.00    +0.000 A 
ATOM     11  H   UNL     1       7.377   0.073   5.756  0.00  0.00    +0.000 HD
BRANCH   4  13
ATOM     12  N   UNL     1       4.641   4.164  10.004  0.00  0.00    +0.000 N 
ATOM     13  C   UNL     1       4.075   2.941   9.774  0.00  0.00    +0.000 C 
ATOM     14  O   UNL     1       3.047   2.597  10.342  0.00  0.00    +0.000 OA
ATOM     15  H   UNL     1       4.117   4.791  10.605  0.00  0.00    +0.000 HD
ATOM     16  H   UNL     1       5.313   4.590   9.380  0.00  0.00    +0.000 HD
ENDBRANCH   4  13
ENDBRANCH   1   8
BRANCH   1  17
ATOM     17  C   UNL     1       6.638  -2.561   5.849  0.00  0.00    +0.000 A 
ATOM     18  C   UNL     1       6.128  -3.162   7.006  0.00  0.00    +0.000 A 
ATOM     19  C   UNL     1       6.683  -4.348   7.509  0.00  0.00    +0.000 A 
ATOM     20  C   UNL     1       7.802  -4.849   6.830  0.00  0.00    +0.000 A 
ATOM     21  C   UNL     1       8.297  -4.171   5.732  0.00  0.00    +0.000 A 
ATOM     22  N   UNL     1       7.747  -3.050   5.236  0.00  0.00    +0.000 NA
BRANCH  19  23
ATOM     23  C   UNL     1       6.074  -5.092   8.641  0.00  0.00    +0.000 A 
ATOM     24  C   UNL     1       4.694  -5.029   8.908  0.00  0.00    +0.000 A 
ATOM     25  C   UNL     1       4.101  -5.818   9.900  0.00  0.00    +0.000 A 
ATOM     26  C   UNL     1       4.871  -6.712  10.637  0.00  0.00    +0.000 A 
ATOM     27  C   UNL     1       6.248  -6.801  10.410  0.00  0.00    +0.000 A 
ATOM     28  C   UNL     1       6.836  -5.964   9.442  0.00  0.00    +0.000 A 
BRANCH  27  29
ATOM     29  C   UNL     1       7.105  -7.804  11.140  0.00  0.00    +0.000 C 
ATOM     30  F   UNL     1       6.404  -8.621  11.974  0.00  0.00    +0.000 F 
ATOM     31  F   UNL     1       7.769  -8.630  10.283  0.00  0.00    +0.000 F 
ATOM     32  F   UNL     1       8.064  -7.216  11.907  0.00  0.00    +0.000 F 
ENDBRANCH  27  29
ENDBRANCH  19  23
ENDBRANCH   1  17
TORSDOF 5
