REMARK  Name = 
REMARK  5 active torsions:
REMARK  status: ('A' for Active; 'I' for Inactive)
REMARK    1  A    between atoms: C_2  and  C_18
REMARK    2  A    between atoms: N_3  and  C_4
REMARK    3  A    between atoms: C_4  and  C_5
REMARK    4  A    between atoms: C_8  and  C_9
REMARK    5  A    between atoms: C_9  and  C_10
REMARK                            x       y       z     vdW  Elec       q    Type
REMARK                         _______ _______ _______ _____ _____    ______ ____
ROOT
ATOM      1  O   UNL     1       1.766   3.113  -0.275  0.00  0.00    +0.000 OA
ATOM      2  C   UNL     1       2.538   2.162  -0.357  0.00  0.00    +0.000 C 
ATOM      3  N   UNL     1       2.813   1.345   0.708  0.00  0.00    +0.000 N 
ATOM      4  H   UNL     1       3.573   0.676   0.638  0.00  0.00    +0.000 HD
ENDROOT
BRANCH   2   5
ATOM      5  C   UNL     1       3.181   1.806  -1.627  0.00  0.00    +0.000 A 
ATOM      6  C   UNL     1       2.606   2.204  -2.826  0.00  0.00    +0.000 A 
ATOM      7  S   UNL     1       3.491   1.722  -4.201  0.00  0.00    +0.000 S 
ATOM      8  C   UNL     1       4.695   0.998  -3.239  0.00  0.00    +0.000 A 
ATOM      9  N   UNL     1       5.791   0.425  -3.806  0.00  0.00    +0.000 NA
ATOM     10  C   UNL     1       6.641  -0.052  -2.958  0.00  0.00    +0.000 A 
ATOM     11  N   UNL     1       6.486  -0.023  -1.596  0.00  0.00    +0.000 N 
ATOM     12  C   UNL     1       5.357   0.470  -0.984  0.00  0.00    +0.000 A 
ATOM     13  O   UNL     1       5.182   0.342   0.224  0.00  0.00    +0.000 OA
ATOM     14  C   UNL     1       4.402   1.082  -1.890  0.00  0.00    +0.000 A 
ATOM     15  H   UNL     1       7.168  -0.451  -0.990  0.00  0.00    +0.000 HD
ENDBRANCH   2   5
BRANCH   3  16
ATOM     16  C   UNL     1       2.281   1.582   2.024  0.00  0.00    +0.000 C 
BRANCH  16  17
ATOM     17  C   UNL     1       3.226   2.375   2.875  0.00  0.00    +0.000 A 
ATOM     18  C   UNL     1       3.214   3.771   2.865  0.00  0.00    +0.000 A 
ATOM     19  C   UNL     1       4.061   4.477   3.715  0.00  0.00    +0.000 A 
ATOM     20  C   UNL     1       4.922   3.767   4.548  0.00  0.00    +0.000 A 
ATOM     21  N   UNL     1       4.984   2.411   4.545  0.00  0.00    +0.000 NA
ATOM     22  C   UNL     1       4.147   1.753   3.708  0.00  0.00    +0.000 A 
BRANCH  20  23
ATOM     23  C   UNL     1       5.773   4.490   5.565  0.00  0.00    +0.000 C 
BRANCH  23  24
ATOM     24  C   UNL     1       5.052   4.713   6.869  0.00  0.00    +0.000 A 
ATOM     25  C   UNL     1       4.644   3.635   7.654  0.00  0.00    +0.000 A 
ATOM     26  N   UNL     1       3.964   3.783   8.816  0.00  0.00    +0.000 NA
ATOM     27  C   UNL     1       3.704   5.060   9.171  0.00  0.00    +0.000 A 
ATOM     28  C   UNL     1       4.118   6.139   8.411  0.00  0.00    +0.000 A 
ATOM     29  N   UNL     1       4.797   5.995   7.249  0.00  0.00    +0.000 NA
ENDBRANCH  23  24
ENDBRANCH  20  23
ENDBRANCH  16  17
ENDBRANCH   3  16
TORSDOF 5
