REMARK  Name = 
REMARK  11 active torsions:
REMARK  status: ('A' for Active; 'I' for Inactive)
REMARK    1  A    between atoms: C_1  and  O_2
REMARK    2  A    between atoms: O_2  and  C_3
REMARK    3  A    between atoms: C_9  and  C_10
REMARK    4  A    between atoms: N_12  and  C_13
REMARK    5  A    between atoms: C_13  and  C_14
REMARK    6  A    between atoms: C_17  and  O_18
REMARK    7  A    between atoms: O_18  and  C_19
REMARK    8  A    between atoms: C_19  and  C_20
REMARK    9  A    between atoms: C_20  and  O_21
REMARK   10  A    between atoms: C_20  and  C_22
REMARK   11  A    between atoms: N_31  and  C_32
REMARK                            x       y       z     vdW  Elec       q    Type
REMARK                         _______ _______ _______ _____ _____    ______ ____
ROOT
ATOM      1  C   UNL     1       4.726   4.487  -0.343  0.00  0.00    +0.000 C 
ENDROOT
BRANCH   1   2
ATOM      2  C   UNL     1       5.733   5.603  -0.297  0.00  0.00    +0.000 A 
ATOM      3  C   UNL     1       6.760   5.618  -1.240  0.00  0.00    +0.000 A 
ATOM      4  C   UNL     1       7.730   6.614  -1.211  0.00  0.00    +0.000 A 
ATOM      5  C   UNL     1       7.714   7.612  -0.236  0.00  0.00    +0.000 A 
ATOM      6  C   UNL     1       6.689   7.604   0.718  0.00  0.00    +0.000 A 
ATOM      7  C   UNL     1       5.702   6.599   0.688  0.00  0.00    +0.000 A 
BRANCH   5   8
ATOM      8  O   UNL     1       8.649   8.615  -0.151  0.00  0.00    +0.000 OA
BRANCH   8   9
ATOM      9  C   UNL     1       9.735   8.470  -1.087  0.00  0.00    +0.000 C 
BRANCH   9  10
ATOM     10  C   UNL     1      10.807   9.548  -0.912  0.00  0.00    +0.000 C 
BRANCH  10  11
ATOM     11  C   UNL     1      11.561   9.437   0.398  0.00  0.00    +0.000 A 
ATOM     12  C   UNL     1      12.117  10.574   0.979  0.00  0.00    +0.000 A 
ATOM     13  C   UNL     1      12.833  10.448   2.166  0.00  0.00    +0.000 A 
ATOM     14  C   UNL     1      12.980   9.186   2.732  0.00  0.00    +0.000 A 
ATOM     15  C   UNL     1      12.419   8.101   2.088  0.00  0.00    +0.000 A 
ATOM     16  N   UNL     1      11.734   8.196   0.931  0.00  0.00    +0.000 NA
ENDBRANCH  10  11
BRANCH  10  17
ATOM     17  O   UNL     1      10.205  10.840  -1.079  0.00  0.00    +0.000 OA
ATOM     18  H   UNL     1       9.425  10.834  -0.489  0.00  0.00    +0.000 HD
ENDBRANCH  10  17
ENDBRANCH   9  10
ENDBRANCH   8   9
ENDBRANCH   5   8
ENDBRANCH   1   2
BRANCH   1  21
ATOM     19  C   UNL     1       4.398   2.226   0.530  0.00  0.00    +0.000 C 
ATOM     20  O   UNL     1       3.389   2.050  -0.153  0.00  0.00    +0.000 OA
ATOM     21  N   UNL     1       5.156   3.363   0.440  0.00  0.00    +0.000 N 
ATOM     22  H   UNL     1       5.920   3.498   1.089  0.00  0.00    +0.000 HD
BRANCH  19  29
ATOM     23  C   UNL     1       6.176   2.417   3.409  0.00  0.00    +0.000 A 
ATOM     24  N   UNL     1       6.957   2.201   4.496  0.00  0.00    +0.000 NA
ATOM     25  C   UNL     1       7.227   0.937   4.870  0.00  0.00    +0.000 A 
ATOM     26  C   UNL     1       6.741  -0.193   4.239  0.00  0.00    +0.000 A 
ATOM     27  C   UNL     1       5.946   0.039   3.115  0.00  0.00    +0.000 A 
ATOM     28  C   UNL     1       5.679   1.335   2.654  0.00  0.00    +0.000 A 
ATOM     29  C   UNL     1       4.895   1.205   1.451  0.00  0.00    +0.000 A 
ATOM     30  C   UNL     1       4.651  -0.150   1.286  0.00  0.00    +0.000 A 
ATOM     31  N   UNL     1       5.292  -0.836   2.278  0.00  0.00    +0.000 N 
ATOM     32  C   UNL     1       5.273  -2.274   2.437  0.00  0.00    +0.000 C 
BRANCH  23  34
ATOM     33  C   UNL     1       6.290   4.670   4.016  0.00  0.00    +0.000 C 
ATOM     34  O   UNL     1       5.889   3.716   3.039  0.00  0.00    +0.000 OA
ENDBRANCH  23  34
ENDBRANCH  19  29
ENDBRANCH   1  21
TORSDOF 9
