REMARK  Name = 
REMARK  5 active torsions:
REMARK  status: ('A' for Active; 'I' for Inactive)
REMARK    1  A    between atoms: C_8  and  C_9
REMARK    2  A    between atoms: N_11  and  C_12
REMARK    3  A    between atoms: C_12  and  C_13
REMARK    4  A    between atoms: C_16  and  O_17
REMARK    5  A    between atoms: O_17  and  C_18
REMARK                            x       y       z     vdW  Elec       q    Type
REMARK                         _______ _______ _______ _____ _____    ______ ____
ROOT
ATOM      1  C   UNL     1       6.688  -1.806   1.184  0.00  0.00    +0.000 C 
ATOM      2  O   UNL     1       7.184  -1.959   2.301  0.00  0.00    +0.000 OA
ATOM      3  N   UNL     1       7.434  -1.953   0.045  0.00  0.00    +0.000 N 
ATOM      4  H   UNL     1       7.017  -1.778  -0.864  0.00  0.00    +0.000 HD
ENDROOT
BRANCH   1  12
ATOM      5  N   UNL     1       0.754  -0.630  -0.475  0.00  0.00    +0.000 N 
ATOM      6  C   UNL     1       2.069  -0.834  -0.791  0.00  0.00    +0.000 A 
ATOM      7  N   UNL     1       2.382  -0.850  -2.063  0.00  0.00    +0.000 NA
ATOM      8  N   UNL     1       3.693  -1.079  -2.420  0.00  0.00    +0.000 N 
ATOM      9  C   UNL     1       4.756  -1.326  -1.567  0.00  0.00    +0.000 A 
ATOM     10  O   UNL     1       5.882  -1.556  -2.000  0.00  0.00    +0.000 OA
ATOM     11  C   UNL     1       4.434  -1.283  -0.148  0.00  0.00    +0.000 A 
ATOM     12  C   UNL     1       5.262  -1.476   1.028  0.00  0.00    +0.000 A 
ATOM     13  C   UNL     1       4.485  -1.313   2.172  0.00  0.00    +0.000 A 
ATOM     14  S   UNL     1       2.846  -0.969   1.854  0.00  0.00    +0.000 S 
ATOM     15  C   UNL     1       3.119  -1.030   0.187  0.00  0.00    +0.000 A 
ATOM     16  H   UNL     1       0.207  -0.231  -1.229  0.00  0.00    +0.000 HD
ATOM     17  H   UNL     1       0.556  -0.258   0.445  0.00  0.00    +0.000 HD
ATOM     18  H   UNL     1       3.883  -1.107  -3.416  0.00  0.00    +0.000 HD
ENDBRANCH   1  12
BRANCH   3  19
ATOM     19  C   UNL     1       8.827  -2.319   0.077  0.00  0.00    +0.000 C 
BRANCH  19  20
ATOM     20  C   UNL     1       9.726  -1.119   0.085  0.00  0.00    +0.000 A 
ATOM     21  C   UNL     1      10.192  -0.548   1.277  0.00  0.00    +0.000 A 
ATOM     22  C   UNL     1      11.073   0.531   1.228  0.00  0.00    +0.000 A 
ATOM     23  C   UNL     1      11.453   1.007  -0.015  0.00  0.00    +0.000 A 
ATOM     24  N   UNL     1      10.964   0.525  -1.181  0.00  0.00    +0.000 NA
ATOM     25  C   UNL     1      10.123  -0.526  -1.106  0.00  0.00    +0.000 A 
BRANCH  23  26
ATOM     26  O   UNL     1      12.416   2.011  -0.052  0.00  0.00    +0.000 OA
BRANCH  26  27
ATOM     27  C   UNL     1      13.259   2.011  -1.145  0.00  0.00    +0.000 A 
ATOM     28  C   UNL     1      13.597   3.239  -1.699  0.00  0.00    +0.000 A 
ATOM     29  C   UNL     1      14.417   3.237  -2.816  0.00  0.00    +0.000 A 
ATOM     30  N   UNL     1      14.914   2.118  -3.389  0.00  0.00    +0.000 NA
ATOM     31  C   UNL     1      14.591   0.945  -2.807  0.00  0.00    +0.000 A 
ATOM     32  C   UNL     1      13.801   0.842  -1.679  0.00  0.00    +0.000 A 
ENDBRANCH  26  27
ENDBRANCH  23  26
ENDBRANCH  19  20
ENDBRANCH   3  19
TORSDOF 5
