REMARK  Name = 
REMARK  9 active torsions:
REMARK  status: ('A' for Active; 'I' for Inactive)
REMARK    1  A    between atoms: C_1  and  O_2
REMARK    2  A    between atoms: O_2  and  C_3
REMARK    3  A    between atoms: C_10  and  C_11
REMARK    4  A    between atoms: N_13  and  C_14
REMARK    5  A    between atoms: C_14  and  C_15
REMARK    6  A    between atoms: C_18  and  C_19
REMARK    7  A    between atoms: C_19  and  C_20
REMARK    8  A    between atoms: C_20  and  C_21
REMARK    9  A    between atoms: C_21  and  C_22
REMARK                            x       y       z     vdW  Elec       q    Type
REMARK                         _______ _______ _______ _____ _____    ______ ____
ROOT
ATOM      1  C   UNL     1       3.013   2.807   1.804  0.00  0.00    +0.000 C 
ENDROOT
BRANCH   1   2
ATOM      2  C   UNL     1       1.778   3.223   1.041  0.00  0.00    +0.000 A 
ATOM      3  C   UNL     1       0.776   2.286   0.756  0.00  0.00    +0.000 A 
ATOM      4  C   UNL     1      -0.331   2.635  -0.025  0.00  0.00    +0.000 A 
ATOM      5  C   UNL     1      -0.476   3.936  -0.521  0.00  0.00    +0.000 A 
ATOM      6  C   UNL     1       0.502   4.886  -0.199  0.00  0.00    +0.000 A 
ATOM      7  C   UNL     1       1.621   4.532   0.568  0.00  0.00    +0.000 A 
BRANCH   5   8
ATOM      8  C   UNL     1      -1.632   4.297  -1.427  0.00  0.00    +0.000 C 
BRANCH   8   9
ATOM      9  C   UNL     1      -3.028   4.073  -0.833  0.00  0.00    +0.000 C 
BRANCH   9  10
ATOM     10  C   UNL     1      -3.304   4.914   0.418  0.00  0.00    +0.000 C 
BRANCH  10  11
ATOM     11  C   UNL     1      -4.698   4.672   0.948  0.00  0.00    +0.000 A 
ATOM     12  C   UNL     1      -4.934   3.667   1.888  0.00  0.00    +0.000 A 
ATOM     13  C   UNL     1      -6.233   3.468   2.350  0.00  0.00    +0.000 A 
ATOM     14  C   UNL     1      -7.259   4.268   1.866  0.00  0.00    +0.000 A 
ATOM     15  C   UNL     1      -6.942   5.238   0.930  0.00  0.00    +0.000 A 
ATOM     16  N   UNL     1      -5.691   5.454   0.459  0.00  0.00    +0.000 NA
ENDBRANCH  10  11
ENDBRANCH   9  10
ENDBRANCH   8   9
ENDBRANCH   5   8
ENDBRANCH   1   2
BRANCH   1  19
ATOM     17  C   UNL     1       5.218   1.790   1.434  0.00  0.00    +0.000 C 
ATOM     18  O   UNL     1       5.434   1.803   2.648  0.00  0.00    +0.000 OA
ATOM     19  N   UNL     1       4.042   2.278   0.929  0.00  0.00    +0.000 N 
ATOM     20  H   UNL     1       3.863   2.260  -0.067  0.00  0.00    +0.000 HD
BRANCH  17  28
ATOM     21  C   UNL     1       5.306   1.345  -1.990  0.00  0.00    +0.000 A 
ATOM     22  N   UNL     1       5.598   1.044  -3.273  0.00  0.00    +0.000 NA
ATOM     23  C   UNL     1       6.790   0.507  -3.542  0.00  0.00    +0.000 A 
ATOM     24  N   UNL     1       7.748   0.219  -2.667  0.00  0.00    +0.000 NA
ATOM     25  C   UNL     1       7.408   0.514  -1.399  0.00  0.00    +0.000 A 
ATOM     26  S   UNL     1       8.515   0.206  -0.150  0.00  0.00    +0.000 S 
ATOM     27  C   UNL     1       7.432   0.798   1.016  0.00  0.00    +0.000 A 
ATOM     28  C   UNL     1       6.224   1.248   0.495  0.00  0.00    +0.000 A 
ATOM     29  C   UNL     1       6.214   1.072  -0.955  0.00  0.00    +0.000 A 
BRANCH  21  31
ATOM     30  C   UNL     1       3.588   2.657  -2.842  0.00  0.00    +0.000 C 
ATOM     31  O   UNL     1       4.080   1.920  -1.724  0.00  0.00    +0.000 OA
ENDBRANCH  21  31
ENDBRANCH  17  28
ENDBRANCH   1  19
TORSDOF 8
