REMARK  Name = 
REMARK  9 active torsions:
REMARK  status: ('A' for Active; 'I' for Inactive)
REMARK    1  A    between atoms: C_1  and  C_2
REMARK    2  A    between atoms: C_2  and  N_3
REMARK    3  A    between atoms: C_2  and  C_26
REMARK    4  A    between atoms: N_3  and  C_4
REMARK    5  A    between atoms: C_4  and  C_5
REMARK    6  A    between atoms: C_8  and  C_9
REMARK    7  A    between atoms: C_9  and  N_10
REMARK    8  A    between atoms: C_11  and  C_13
REMARK    9  A    between atoms: N_19  and  C_20
REMARK                            x       y       z     vdW  Elec       q    Type
REMARK                         _______ _______ _______ _____ _____    ______ ____
ROOT
ATOM      1  C   UNL     1       3.055  -2.970   2.287  0.00  0.00    +0.000 A 
ATOM      2  C   UNL     1       4.082  -3.119   3.222  0.00  0.00    +0.000 A 
ATOM      3  C   UNL     1       4.475  -4.394   3.617  0.00  0.00    +0.000 A 
ATOM      4  C   UNL     1       3.829  -5.497   3.071  0.00  0.00    +0.000 A 
ATOM      5  N   UNL     1       2.816  -5.382   2.173  0.00  0.00    +0.000 NA
ATOM      6  C   UNL     1       2.463  -4.131   1.800  0.00  0.00    +0.000 A 
ENDROOT
BRANCH   1   7
ATOM      7  C   UNL     1       2.570  -1.614   1.850  0.00  0.00    +0.000 C 
BRANCH   7   8
ATOM      8  N   UNL     1       3.613  -0.864   1.146  0.00  0.00    +0.000 NA
ATOM      9  H   UNL     1       4.407  -0.755   1.779  0.00  0.00    +0.000 HD
BRANCH   8  11
ATOM     10  C   UNL     1       2.014   0.475  -0.246  0.00  0.00    +0.000 C 
ATOM     11  C   UNL     1       3.175   0.492   0.758  0.00  0.00    +0.000 C 
BRANCH  11  12
ATOM     12  C   UNL     1       4.329   1.299   0.177  0.00  0.00    +0.000 A 
ATOM     13  C   UNL     1       4.980   0.897  -0.989  0.00  0.00    +0.000 A 
ATOM     14  N   UNL     1       5.964   1.621  -1.577  0.00  0.00    +0.000 NA
ATOM     15  C   UNL     1       6.289   2.768  -0.943  0.00  0.00    +0.000 A 
ATOM     16  C   UNL     1       5.668   3.168   0.228  0.00  0.00    +0.000 A 
ATOM     17  N   UNL     1       4.681   2.450   0.812  0.00  0.00    +0.000 NA
ENDBRANCH  11  12
ENDBRANCH   8  11
ENDBRANCH   7   8
ENDBRANCH   1   7
BRANCH   4  18
ATOM     18  C   UNL     1       4.201  -6.885   3.521  0.00  0.00    +0.000 C 
BRANCH  18  19
ATOM     19  N   UNL     1       3.405  -7.303   4.647  0.00  0.00    +0.000 N 
ATOM     20  C   UNL     1       3.828  -7.233   5.945  0.00  0.00    +0.000 C 
ATOM     21  O   UNL     1       4.863  -6.663   6.283  0.00  0.00    +0.000 OA
ATOM     22  H   UNL     1       2.528  -7.751   4.421  0.00  0.00    +0.000 HD
BRANCH  20  23
ATOM     23  C   UNL     1       2.922  -7.842   6.919  0.00  0.00    +0.000 A 
ATOM     24  C   UNL     1       2.814  -7.343   8.208  0.00  0.00    +0.000 A 
ATOM     25  S   UNL     1       1.651  -8.167   9.150  0.00  0.00    +0.000 S 
ATOM     26  C   UNL     1       1.300  -9.246   7.879  0.00  0.00    +0.000 A 
ATOM     27  N   UNL     1       0.369 -10.225   8.025  0.00  0.00    +0.000 NA
ATOM     28  C   UNL     1       0.221 -10.983   6.985  0.00  0.00    +0.000 A 
ATOM     29  N   UNL     1       0.925 -10.870   5.806  0.00  0.00    +0.000 N 
ATOM     30  C   UNL     1       0.683 -11.777   4.703  0.00  0.00    +0.000 C 
ATOM     31  C   UNL     1       1.896  -9.889   5.629  0.00  0.00    +0.000 A 
ATOM     32  O   UNL     1       2.545  -9.784   4.593  0.00  0.00    +0.000 OA
ATOM     33  C   UNL     1       2.061  -8.991   6.760  0.00  0.00    +0.000 A 
ENDBRANCH  20  23
ENDBRANCH  18  19
ENDBRANCH   4  18
TORSDOF 7
