REMARK  Name = 
REMARK  6 active torsions:
REMARK  status: ('A' for Active; 'I' for Inactive)
REMARK    1  A    between atoms: N_1  and  C_2
REMARK    2  A    between atoms: C_2  and  C_3
REMARK    3  A    between atoms: C_6  and  C_7
REMARK    4  A    between atoms: C_7  and  O_8
REMARK    5  A    between atoms: O_8  and  C_9
REMARK    6  A    between atoms: C_13  and  C_14
REMARK                            x       y       z     vdW  Elec       q    Type
REMARK                         _______ _______ _______ _____ _____    ______ ____
ROOT
ATOM      1  O   UNL     1       4.583   0.458  -6.088  0.00  0.00    +0.000 OA
ENDROOT
BRANCH   1   2
ATOM      2  C   UNL     1       4.998   0.717  -7.364  0.00  0.00    +0.000 A 
ATOM      3  C   UNL     1       5.325  -0.385  -8.146  0.00  0.00    +0.000 A 
ATOM      4  N   UNL     1       5.780  -0.310  -9.422  0.00  0.00    +0.000 NA
ATOM      5  C   UNL     1       5.916   0.934  -9.945  0.00  0.00    +0.000 A 
ATOM      6  C   UNL     1       5.614   2.100  -9.256  0.00  0.00    +0.000 A 
ATOM      7  C   UNL     1       5.140   1.976  -7.943  0.00  0.00    +0.000 A 
BRANCH   6   8
ATOM      8  C   UNL     1       5.775   3.463  -9.821  0.00  0.00    +0.000 C 
ATOM      9  N   UNL     1       6.263   3.607 -11.090  0.00  0.00    +0.000 N 
ATOM     10  O   UNL     1       5.484   4.455  -9.164  0.00  0.00    +0.000 OA
ATOM     11  H   UNL     1       6.547   2.865 -11.709  0.00  0.00    +0.000 HD
ATOM     12  H   UNL     1       6.364   4.558 -11.425  0.00  0.00    +0.000 HD
ENDBRANCH   6   8
ENDBRANCH   1   2
BRANCH   1  13
ATOM     13  C   UNL     1       4.177   1.589  -5.314  0.00  0.00    +0.000 C 
BRANCH  13  17
ATOM     14  C   UNL     1       3.138   0.449  -1.396  0.00  0.00    +0.000 A 
ATOM     15  C   UNL     1       2.182   0.526  -2.405  0.00  0.00    +0.000 A 
ATOM     16  N   UNL     1       2.479   0.881  -3.679  0.00  0.00    +0.000 NA
ATOM     17  C   UNL     1       3.786   1.148  -3.928  0.00  0.00    +0.000 A 
ATOM     18  C   UNL     1       4.745   1.046  -2.925  0.00  0.00    +0.000 A 
ATOM     19  N   UNL     1       4.448   0.706  -1.648  0.00  0.00    +0.000 NA
BRANCH  14  20
ATOM     20  C   UNL     1       2.739   0.103   0.017  0.00  0.00    +0.000 C 
BRANCH  20  21
ATOM     21  N   UNL     1       2.096  -1.209   0.129  0.00  0.00    +0.000 NA
ATOM     22  H   UNL     1       1.938  -1.409   1.115  0.00  0.00    +0.000 HD
ATOM     23  H   UNL     1       2.761  -1.915  -0.192  0.00  0.00    +0.000 HD
ENDBRANCH  20  21
ENDBRANCH  14  20
ENDBRANCH  13  17
ENDBRANCH   1  13
TORSDOF 6
