REMARK  Name = 
REMARK  5 active torsions:
REMARK  status: ('A' for Active; 'I' for Inactive)
REMARK    1  A    between atoms: C_1  and  N_2
REMARK    2  A    between atoms: C_5  and  C_6
REMARK    3  A    between atoms: C_6  and  C_7
REMARK    4  A    between atoms: C_7  and  N_8
REMARK    5  A    between atoms: C_12  and  C_13
REMARK                            x       y       z     vdW  Elec       q    Type
REMARK                         _______ _______ _______ _____ _____    ______ ____
ROOT
ATOM      1  N   UNL     1       2.553  -1.214  -3.920  0.00  0.00    +0.000 N 
ATOM      2  C   UNL     1       3.088  -2.345  -4.522  0.00  0.00    +0.000 A 
ATOM      3  N   UNL     1       2.985  -3.539  -3.916  0.00  0.00    +0.000 NA
ATOM      4  C   UNL     1       3.564  -4.595  -4.523  0.00  0.00    +0.000 A 
ATOM      5  C   UNL     1       4.224  -4.509  -5.723  0.00  0.00    +0.000 A 
ATOM      6  C   UNL     1       4.275  -3.249  -6.269  0.00  0.00    +0.000 A 
ATOM      7  N   UNL     1       3.719  -2.158  -5.690  0.00  0.00    +0.000 NA
ATOM      8  H   UNL     1       3.030  -0.416  -4.325  0.00  0.00    +0.000 HD
ENDROOT
BRANCH   5   9
ATOM      9  C   UNL     1       4.850  -5.706  -6.303  0.00  0.00    +0.000 C 
ATOM     10  N   UNL     1       5.074  -5.727  -7.650  0.00  0.00    +0.000 N 
ATOM     11  O   UNL     1       5.140  -6.666  -5.602  0.00  0.00    +0.000 OA
ATOM     12  H   UNL     1       4.648  -5.084  -8.302  0.00  0.00    +0.000 HD
ATOM     13  H   UNL     1       5.414  -6.606  -8.026  0.00  0.00    +0.000 HD
ENDBRANCH   5   9
BRANCH   1  14
ATOM     14  C   UNL     1       2.538  -1.285  -2.468  0.00  0.00    +0.000 C 
BRANCH  14  15
ATOM     15  C   UNL     1       1.907  -0.017  -1.893  0.00  0.00    +0.000 C 
BRANCH  15  20
ATOM     16  C   UNL     1      -2.445   0.269  -0.050  0.00  0.00    +0.000 C 
ATOM     17  N   UNL     1      -1.039   0.187   0.351  0.00  0.00    +0.000 NA
ATOM     18  C   UNL     1      -0.462  -1.084  -0.109  0.00  0.00    +0.000 C 
ATOM     19  C   UNL     1       1.023  -1.184   0.243  0.00  0.00    +0.000 C 
ATOM     20  C   UNL     1       1.829  -0.017  -0.348  0.00  0.00    +0.000 C 
ATOM     21  C   UNL     1       1.196   1.285   0.165  0.00  0.00    +0.000 C 
ATOM     22  C   UNL     1      -0.303   1.359  -0.145  0.00  0.00    +0.000 C 
ENDBRANCH  15  20
ENDBRANCH  14  15
ENDBRANCH   1  14
TORSDOF 4
