REMARK  Name = 
REMARK  6 active torsions:
REMARK  status: ('A' for Active; 'I' for Inactive)
REMARK    1  A    between atoms: C_1  and  O_2
REMARK    2  A    between atoms: O_2  and  C_3
REMARK    3  A    between atoms: C_6  and  C_7
REMARK    4  A    between atoms: C_7  and  N_8
REMARK    5  A    between atoms: N_8  and  C_9
REMARK    6  A    between atoms: C_12  and  C_13
REMARK                            x       y       z     vdW  Elec       q    Type
REMARK                         _______ _______ _______ _____ _____    ______ ____
ROOT
ATOM      1  N   UNL     1       4.586   1.922  -5.830  0.00  0.00    +0.000 N 
ATOM      2  H   UNL     1       4.476   2.782  -5.295  0.00  0.00    +0.000 HD
ENDROOT
BRANCH   1   3
ATOM      3  C   UNL     1       5.190   2.154  -7.073  0.00  0.00    +0.000 A 
ATOM      4  C   UNL     1       5.810   1.156  -7.831  0.00  0.00    +0.000 A 
ATOM      5  C   UNL     1       6.321   1.439  -9.099  0.00  0.00    +0.000 A 
ATOM      6  C   UNL     1       6.174   2.723  -9.597  0.00  0.00    +0.000 A 
ATOM      7  N   UNL     1       5.548   3.726  -8.924  0.00  0.00    +0.000 NA
ATOM      8  C   UNL     1       5.063   3.402  -7.699  0.00  0.00    +0.000 A 
BRANCH   6   9
ATOM      9  C   UNL     1       6.708   3.053 -10.957  0.00  0.00    +0.000 C 
ATOM     10  N   UNL     1       6.512   4.346 -11.364  0.00  0.00    +0.000 N 
ATOM     11  O   UNL     1       7.279   2.233 -11.662  0.00  0.00    +0.000 OA
ATOM     12  H   UNL     1       6.020   4.990 -10.757  0.00  0.00    +0.000 HD
ATOM     13  H   UNL     1       6.830   4.633 -12.278  0.00  0.00    +0.000 HD
ENDBRANCH   6   9
ENDBRANCH   1   3
BRANCH   1  14
ATOM     14  C   UNL     1       5.111   0.838  -5.004  0.00  0.00    +0.000 C 
BRANCH  14  18
ATOM     15  C   UNL     1       3.218   0.373  -1.231  0.00  0.00    +0.000 A 
ATOM     16  C   UNL     1       2.427   0.815  -2.279  0.00  0.00    +0.000 A 
ATOM     17  C   UNL     1       3.021   0.989  -3.529  0.00  0.00    +0.000 A 
ATOM     18  C   UNL     1       4.389   0.737  -3.687  0.00  0.00    +0.000 A 
ATOM     19  C   UNL     1       5.081   0.277  -2.571  0.00  0.00    +0.000 A 
ATOM     20  N   UNL     1       4.531   0.094  -1.354  0.00  0.00    +0.000 NA
BRANCH  15  22
ATOM     21  C   UNL     1       3.499  -0.271   0.992  0.00  0.00    +0.000 C 
ATOM     22  O   UNL     1       2.604   0.221  -0.004  0.00  0.00    +0.000 OA
ENDBRANCH  15  22
ENDBRANCH  14  18
ENDBRANCH   1  14
TORSDOF 5
