REMARK  Name = 
REMARK  7 active torsions:
REMARK  status: ('A' for Active; 'I' for Inactive)
REMARK    1  A    between atoms: C_1  and  C_2
REMARK    2  A    between atoms: C_2  and  N_3
REMARK    3  A    between atoms: C_2  and  C_16
REMARK    4  A    between atoms: C_4  and  C_6
REMARK    5  A    between atoms: C_19  and  C_20
REMARK    6  A    between atoms: C_20  and  C_21
REMARK    7  A    between atoms: C_21  and  C_22
REMARK                            x       y       z     vdW  Elec       q    Type
REMARK                         _______ _______ _______ _____ _____    ______ ____
ROOT
ATOM      1  C   UNL     1       3.360  -1.288   0.600  0.00  0.00    +0.000 C 
ATOM      2  C   UNL     1       2.450  -0.168   0.095  0.00  0.00    +0.000 C 
ENDROOT
BRANCH   2   3
ATOM      3  C   UNL     1       2.944   0.534  -1.159  0.00  0.00    +0.000 A 
ATOM      4  C   UNL     1       2.628   1.889  -1.333  0.00  0.00    +0.000 A 
ATOM      5  C   UNL     1       3.008   2.577  -2.489  0.00  0.00    +0.000 A 
ATOM      6  C   UNL     1       3.725   1.933  -3.504  0.00  0.00    +0.000 A 
ATOM      7  C   UNL     1       4.022   0.572  -3.343  0.00  0.00    +0.000 A 
ATOM      8  C   UNL     1       3.633  -0.119  -2.188  0.00  0.00    +0.000 A 
BRANCH   6   9
ATOM      9  C   UNL     1       4.109   2.630  -4.797  0.00  0.00    +0.000 C 
BRANCH   9  10
ATOM     10  C   UNL     1       4.381   4.135  -4.657  0.00  0.00    +0.000 C 
BRANCH  10  11
ATOM     11  C   UNL     1       4.753   4.846  -5.936  0.00  0.00    +0.000 A 
ATOM     12  C   UNL     1       5.021   6.215  -5.883  0.00  0.00    +0.000 A 
ATOM     13  C   UNL     1       5.306   6.896  -7.061  0.00  0.00    +0.000 A 
ATOM     14  C   UNL     1       5.320   6.197  -8.259  0.00  0.00    +0.000 A 
ATOM     15  C   UNL     1       5.051   4.840  -8.227  0.00  0.00    +0.000 A 
ATOM     16  N   UNL     1       4.767   4.152  -7.096  0.00  0.00    +0.000 NA
ENDBRANCH  10  11
ENDBRANCH   9  10
ENDBRANCH   6   9
ENDBRANCH   2   3
BRANCH   2  17
ATOM     17  N   UNL     1       1.111  -0.667  -0.142  0.00  0.00    +0.000 N 
ATOM     18  C   UNL     1       0.175  -0.760   0.854  0.00  0.00    +0.000 C 
ATOM     19  O   UNL     1       0.389  -0.362   1.995  0.00  0.00    +0.000 OA
ATOM     20  H   UNL     1       0.950  -1.137  -1.028  0.00  0.00    +0.000 HD
BRANCH  18  21
ATOM     21  C   UNL     1      -1.131  -1.308   0.472  0.00  0.00    +0.000 A 
ATOM     22  C   UNL     1      -2.264  -0.942   1.185  0.00  0.00    +0.000 A 
ATOM     23  S   UNL     1      -3.696  -1.665   0.608  0.00  0.00    +0.000 S 
ATOM     24  C   UNL     1      -2.844  -2.529  -0.585  0.00  0.00    +0.000 A 
ATOM     25  N   UNL     1      -3.487  -3.391  -1.417  0.00  0.00    +0.000 NA
ATOM     26  C   UNL     1      -2.713  -4.010  -2.244  0.00  0.00    +0.000 A 
ATOM     27  N   UNL     1      -1.355  -3.837  -2.323  0.00  0.00    +0.000 N 
ATOM     28  C   UNL     1      -0.670  -2.937  -1.541  0.00  0.00    +0.000 A 
ATOM     29  O   UNL     1       0.531  -2.741  -1.697  0.00  0.00    +0.000 OA
ATOM     30  C   UNL     1      -1.490  -2.244  -0.565  0.00  0.00    +0.000 A 
ATOM     31  H   UNL     1      -0.811  -4.336  -3.011  0.00  0.00    +0.000 HD
ENDBRANCH  18  21
ENDBRANCH   2  17
TORSDOF 6
