REMARK  Name = 
REMARK  9 active torsions:
REMARK  status: ('A' for Active; 'I' for Inactive)
REMARK    1  A    between atoms: C_1  and  C_2
REMARK    2  A    between atoms: C_2  and  N_3
REMARK    3  A    between atoms: N_3  and  C_4
REMARK    4  A    between atoms: C_6  and  C_7
REMARK    5  A    between atoms: C_7  and  C_8
REMARK    6  A    between atoms: C_8  and  N_9
REMARK    7  A    between atoms: N_9  and  C_10
REMARK    8  A    between atoms: C_13  and  C_14
REMARK    9  A    between atoms: C_20  and  C_21
REMARK                            x       y       z     vdW  Elec       q    Type
REMARK                         _______ _______ _______ _____ _____    ______ ____
ROOT
ATOM      1  C   UNL     1       4.106   0.125  -1.973  0.00  0.00    +0.000 A 
ATOM      2  C   UNL     1       4.931  -0.978  -1.683  0.00  0.00    +0.000 A 
ATOM      3  C   UNL     1       6.195  -1.133  -2.281  0.00  0.00    +0.000 A 
ATOM      4  C   UNL     1       6.606  -0.197  -3.238  0.00  0.00    +0.000 A 
ATOM      5  C   UNL     1       5.781   0.884  -3.579  0.00  0.00    +0.000 A 
ATOM      6  C   UNL     1       4.553   1.050  -2.915  0.00  0.00    +0.000 A 
ENDROOT
BRANCH   5   7
ATOM      7  C   UNL     1       6.158   1.848  -4.676  0.00  0.00    +0.000 C 
ATOM      8  F   UNL     1       7.349   1.560  -5.271  0.00  0.00    +0.000 F 
ATOM      9  F   UNL     1       5.238   1.870  -5.681  0.00  0.00    +0.000 F 
ATOM     10  F   UNL     1       6.259   3.131  -4.234  0.00  0.00    +0.000 F 
ENDBRANCH   5   7
BRANCH   1  11
ATOM     11  N   UNL     1       2.836   0.229  -1.359  0.00  0.00    +0.000 N 
ATOM     12  H   UNL     1       2.693  -0.526  -0.690  0.00  0.00    +0.000 HD
BRANCH  11  14
ATOM     13  C   UNL     1       2.917   2.197   0.118  0.00  0.00    +0.000 C 
ATOM     14  C   UNL     1       2.137   1.442  -0.942  0.00  0.00    +0.000 C 
ATOM     15  C   UNL     1       1.475   2.287  -2.054  0.00  0.00    +0.000 C 
ATOM     16  O   UNL     1       0.187   1.660  -1.832  0.00  0.00    +0.000 OA
ATOM     17  C   UNL     1       0.662   1.115  -0.576  0.00  0.00    +0.000 C 
ENDBRANCH  11  14
ENDBRANCH   1  11
BRANCH   3  18
ATOM     18  C   UNL     1       7.082  -2.317  -1.948  0.00  0.00    +0.000 C 
BRANCH  18  19
ATOM     19  C   UNL     1       6.831  -3.495  -2.895  0.00  0.00    +0.000 C 
BRANCH  19  20
ATOM     20  N   UNL     1       7.726  -4.618  -2.628  0.00  0.00    +0.000 N 
ATOM     21  H   UNL     1       8.226  -4.632  -1.744  0.00  0.00    +0.000 HD
BRANCH  20  22
ATOM     22  C   UNL     1       7.588  -5.826  -3.304  0.00  0.00    +0.000 A 
ATOM     23  C   UNL     1       6.742  -5.990  -4.405  0.00  0.00    +0.000 A 
ATOM     24  C   UNL     1       6.700  -7.195  -5.108  0.00  0.00    +0.000 A 
ATOM     25  C   UNL     1       7.525  -8.228  -4.697  0.00  0.00    +0.000 A 
ATOM     26  N   UNL     1       8.369  -8.134  -3.636  0.00  0.00    +0.000 NA
ATOM     27  C   UNL     1       8.379  -6.943  -2.985  0.00  0.00    +0.000 A 
BRANCH  25  28
ATOM     28  C   UNL     1       7.518  -9.523  -5.452  0.00  0.00    +0.000 C 
ATOM     29  N   UNL     1       8.364 -10.487  -4.987  0.00  0.00    +0.000 N 
ATOM     30  O   UNL     1       6.804  -9.706  -6.436  0.00  0.00    +0.000 OA
ATOM     31  H   UNL     1       8.957 -10.287  -4.191  0.00  0.00    +0.000 HD
ATOM     32  H   UNL     1       8.427 -11.374  -5.471  0.00  0.00    +0.000 HD
ENDBRANCH  25  28
ENDBRANCH  20  22
ENDBRANCH  19  20
ENDBRANCH  18  19
ENDBRANCH   3  18
TORSDOF 8
