REMARK  Name = 
REMARK  5 active torsions:
REMARK  status: ('A' for Active; 'I' for Inactive)
REMARK    1  A    between atoms: C_2  and  C_5
REMARK    2  A    between atoms: C_9  and  N_10
REMARK    3  A    between atoms: N_10  and  C_11
REMARK    4  A    between atoms: C_11  and  C_12
REMARK    5  A    between atoms: C_16  and  C_17
REMARK                            x       y       z     vdW  Elec       q    Type
REMARK                         _______ _______ _______ _____ _____    ______ ____
ROOT
ATOM      1  C   UNL     1       2.937  -6.051  -1.543  0.00  0.00    +0.000 C 
ENDROOT
BRANCH   1   2
ATOM      2  C   UNL     1       2.429  -7.322  -0.900  0.00  0.00    +0.000 A 
ATOM      3  C   UNL     1       1.323  -7.987  -1.444  0.00  0.00    +0.000 A 
ATOM      4  C   UNL     1       0.941  -9.234  -0.956  0.00  0.00    +0.000 A 
ATOM      5  C   UNL     1       1.667  -9.833   0.075  0.00  0.00    +0.000 A 
ATOM      6  C   UNL     1       2.784  -9.198   0.649  0.00  0.00    +0.000 A 
ATOM      7  C   UNL     1       3.121  -7.916   0.170  0.00  0.00    +0.000 A 
BRANCH   6   8
ATOM      8  C   UNL     1       3.624  -9.875   1.658  0.00  0.00    +0.000 A 
ATOM      9  C   UNL     1       3.860 -11.252   1.643  0.00  0.00    +0.000 A 
ATOM     10  N   UNL     1       4.667 -11.891   2.527  0.00  0.00    +0.000 NA
ATOM     11  C   UNL     1       5.249 -11.093   3.445  0.00  0.00    +0.000 A 
ATOM     12  C   UNL     1       5.033  -9.727   3.476  0.00  0.00    +0.000 A 
ATOM     13  N   UNL     1       4.228  -9.090   2.590  0.00  0.00    +0.000 NA
ENDBRANCH   6   8
ENDBRANCH   1   2
BRANCH   1  14
ATOM     14  N   UNL     1       2.165  -4.881  -1.131  0.00  0.00    +0.000 N 
ATOM     15  H   UNL     1       2.074  -4.834  -0.118  0.00  0.00    +0.000 HD
BRANCH  14  20
ATOM     16  C   UNL     1       2.597  -1.192  -1.506  0.00  0.00    +0.000 A 
ATOM     17  C   UNL     1       3.151  -1.109  -2.788  0.00  0.00    +0.000 A 
ATOM     18  C   UNL     1       3.372  -2.266  -3.527  0.00  0.00    +0.000 A 
ATOM     19  C   UNL     1       3.058  -3.514  -2.983  0.00  0.00    +0.000 A 
ATOM     20  C   UNL     1       2.547  -3.644  -1.684  0.00  0.00    +0.000 A 
ATOM     21  C   UNL     1       2.283  -2.462  -0.975  0.00  0.00    +0.000 A 
BRANCH  16  23
ATOM     22  F   UNL     1       2.717   1.202  -1.331  0.00  0.00    +0.000 F 
ATOM     23  C   UNL     1       2.331   0.052  -0.700  0.00  0.00    +0.000 C 
ATOM     24  F   UNL     1       2.992   0.053   0.492  0.00  0.00    +0.000 F 
ATOM     25  F   UNL     1       1.016   0.220  -0.402  0.00  0.00    +0.000 F 
ENDBRANCH  16  23
ENDBRANCH  14  20
ENDBRANCH   1  14
TORSDOF 5
