REMARK  Name = 
REMARK  8 active torsions:
REMARK  status: ('A' for Active; 'I' for Inactive)
REMARK    1  A    between atoms: C_1  and  C_2
REMARK    2  A    between atoms: C_2  and  C_3
REMARK    3  A    between atoms: C_2  and  C_14
REMARK    4  A    between atoms: C_3  and  N_4
REMARK    5  A    between atoms: N_4  and  C_5
REMARK    6  A    between atoms: C_9  and  C_10
REMARK    7  A    between atoms: C_18  and  O_19
REMARK    8  A    between atoms: O_19  and  C_20
REMARK                            x       y       z     vdW  Elec       q    Type
REMARK                         _______ _______ _______ _____ _____    ______ ____
ROOT
ATOM      1  C   UNL     1       0.892  -0.168   0.059  0.00  0.00    +0.000 C 
ENDROOT
BRANCH   1   3
ATOM      2  C   UNL     1       3.027  -1.530  -0.098  0.00  0.00    +0.000 C 
ATOM      3  C   UNL     1       2.428  -0.119  -0.063  0.00  0.00    +0.000 C 
BRANCH   3   4
ATOM      4  C   UNL     1       2.905   0.757  -1.205  0.00  0.00    +0.000 A 
ATOM      5  N   UNL     1       4.232   0.876  -1.386  0.00  0.00    +0.000 NA
ATOM      6  C   UNL     1       4.632   1.679  -2.391  0.00  0.00    +0.000 A 
ATOM      7  C   UNL     1       3.769   2.369  -3.209  0.00  0.00    +0.000 A 
ATOM      8  C   UNL     1       2.437   2.205  -2.933  0.00  0.00    +0.000 A 
ATOM      9  N   UNL     1       1.994   1.428  -1.932  0.00  0.00    +0.000 NA
BRANCH   8  10
ATOM     10  O   UNL     1       1.429   2.739  -3.691  0.00  0.00    +0.000 OA
BRANCH  10  11
ATOM     11  C   UNL     1       1.605   4.067  -4.205  0.00  0.00    +0.000 C 
ATOM     12  C   UNL     1       0.402   4.626  -4.980  0.00  0.00    +0.000 C 
ATOM     13  C   UNL     1       1.431   4.980  -6.045  0.00  0.00    +0.000 C 
ATOM     14  O   UNL     1       2.433   4.159  -5.399  0.00  0.00    +0.000 OA
ENDBRANCH  10  11
ENDBRANCH   8  10
ENDBRANCH   3   4
ENDBRANCH   1   3
BRANCH   1  15
ATOM     15  N   UNL     1       0.244  -0.839  -1.071  0.00  0.00    +0.000 N 
ATOM     16  H   UNL     1       0.661  -1.725  -1.344  0.00  0.00    +0.000 HD
BRANCH  15  17
ATOM     17  C   UNL     1      -1.140  -0.808  -1.218  0.00  0.00    +0.000 A 
ATOM     18  C   UNL     1      -1.796  -1.752  -2.015  0.00  0.00    +0.000 A 
ATOM     19  N   UNL     1      -3.136  -1.806  -2.227  0.00  0.00    +0.000 NA
ATOM     20  C   UNL     1      -3.871  -0.832  -1.647  0.00  0.00    +0.000 A 
ATOM     21  C   UNL     1      -3.323   0.203  -0.905  0.00  0.00    +0.000 A 
ATOM     22  C   UNL     1      -1.942   0.207  -0.693  0.00  0.00    +0.000 A 
BRANCH  21  23
ATOM     23  C   UNL     1      -4.209   1.241  -0.346  0.00  0.00    +0.000 C 
ATOM     24  N   UNL     1      -3.657   2.464  -0.074  0.00  0.00    +0.000 N 
ATOM     25  O   UNL     1      -5.398   1.033  -0.157  0.00  0.00    +0.000 OA
ATOM     26  H   UNL     1      -2.759   2.752  -0.432  0.00  0.00    +0.000 HD
ATOM     27  H   UNL     1      -4.298   3.192   0.227  0.00  0.00    +0.000 HD
ENDBRANCH  21  23
ENDBRANCH  15  17
ENDBRANCH   1  15
TORSDOF 7
