REMARK  Name = 
REMARK  4 active torsions:
REMARK  status: ('A' for Active; 'I' for Inactive)
REMARK    1  A    between atoms: N_1  and  C_2
REMARK    2  A    between atoms: N_6  and  C_7
REMARK    3  A    between atoms: C_7  and  C_8
REMARK    4  A    between atoms: C_8  and  N_9
REMARK                            x       y       z     vdW  Elec       q    Type
REMARK                         _______ _______ _______ _____ _____    ______ ____
ROOT
ATOM      1  C   UNL     1       3.167  -2.983  -2.177  0.00  0.00    +0.000 C 
ENDROOT
BRANCH   1   6
ATOM      2  C   UNL     1       2.517   0.089   0.022  0.00  0.00    +0.000 C 
ATOM      3  C   UNL     1       3.007   1.162  -0.957  0.00  0.00    +0.000 C 
ATOM      4  C   UNL     1       2.634   0.799  -2.388  0.00  0.00    +0.000 C 
ATOM      5  C   UNL     1       3.132  -0.600  -2.754  0.00  0.00    +0.000 C 
ATOM      6  N   UNL     1       2.666  -1.638  -1.818  0.00  0.00    +0.000 NA
ATOM      7  C   UNL     1       3.040  -1.300  -0.431  0.00  0.00    +0.000 C 
BRANCH   2   8
ATOM      8  N   UNL     1       1.050   0.128   0.100  0.00  0.00    +0.000 NA
ATOM      9  H   UNL     1       0.737   1.019   0.476  0.00  0.00    +0.000 HD
ATOM     10  H   UNL     1       0.714  -0.609   0.715  0.00  0.00    +0.000 HD
ENDBRANCH   2   8
ENDBRANCH   1   6
BRANCH   1  11
ATOM     11  C   UNL     1       2.723  -3.452  -3.575  0.00  0.00    +0.000 C 
BRANCH  11  12
ATOM     12  N   UNL     1       3.220  -4.805  -3.888  0.00  0.00    +0.000 N 
ATOM     13  C   UNL     1       2.809  -5.199  -5.183  0.00  0.00    +0.000 A 
ATOM     14  C   UNL     1       3.187  -6.444  -5.678  0.00  0.00    +0.000 A 
ATOM     15  C   UNL     1       2.784  -6.803  -6.962  0.00  0.00    +0.000 A 
ATOM     16  C   UNL     1       2.007  -5.929  -7.712  0.00  0.00    +0.000 A 
ATOM     17  C   UNL     1       1.667  -4.721  -7.143  0.00  0.00    +0.000 A 
ATOM     18  N   UNL     1       2.062  -4.348  -5.914  0.00  0.00    +0.000 NA
ATOM     19  H   UNL     1       2.863  -5.495  -3.236  0.00  0.00    +0.000 HD
ENDBRANCH  11  12
ENDBRANCH   1  11
TORSDOF 4
