REMARK  Name = 
REMARK  4 active torsions:
REMARK  status: ('A' for Active; 'I' for Inactive)
REMARK    1  A    between atoms: N_1  and  C_2
REMARK    2  A    between atoms: C_2  and  C_3
REMARK    3  A    between atoms: C_6  and  C_7
REMARK    4  A    between atoms: C_7  and  N_8
REMARK                            x       y       z     vdW  Elec       q    Type
REMARK                         _______ _______ _______ _____ _____    ______ ____
ROOT
ATOM      1  C   UNL     1       3.847   4.943   2.496  0.00  0.00    +0.000 C 
ENDROOT
BRANCH   1   2
ATOM      2  N   UNL     1       3.060   6.056   1.986  0.00  0.00    +0.000 N 
ATOM      3  N   UNL     1       3.587   6.853   1.030  0.00  0.00    +0.000 NA
ATOM      4  C   UNL     1       2.616   7.736   0.788  0.00  0.00    +0.000 A 
ATOM      5  C   UNL     1       1.478   7.535   1.600  0.00  0.00    +0.000 A 
ATOM      6  C   UNL     1       0.223   8.152   1.744  0.00  0.00    +0.000 A 
ATOM      7  C   UNL     1      -0.661   7.646   2.702  0.00  0.00    +0.000 A 
ATOM      8 CL   UNL     1      -2.214   8.370   2.880  0.00  0.00    +0.000 Cl
ATOM      9  C   UNL     1      -0.312   6.569   3.513  0.00  0.00    +0.000 A 
ATOM     10  C   UNL     1       0.935   5.947   3.384  0.00  0.00    +0.000 A 
ATOM     11  C   UNL     1       1.806   6.445   2.404  0.00  0.00    +0.000 A 
ENDBRANCH   1   2
BRANCH   1  15
ATOM     12  C   UNL     1       3.226   1.301   0.367  0.00  0.00    +0.000 A 
ATOM     13  C   UNL     1       2.425   1.563   1.475  0.00  0.00    +0.000 A 
ATOM     14  C   UNL     1       2.603   2.757   2.171  0.00  0.00    +0.000 A 
ATOM     15  C   UNL     1       3.573   3.669   1.749  0.00  0.00    +0.000 A 
ATOM     16  C   UNL     1       4.289   3.347   0.601  0.00  0.00    +0.000 A 
ATOM     17  N   UNL     1       4.146   2.190  -0.085  0.00  0.00    +0.000 NA
BRANCH  12  18
ATOM     18  C   UNL     1       3.120  -0.026  -0.355  0.00  0.00    +0.000 C 
BRANCH  18  19
ATOM     19  N   UNL     1       1.787  -0.282  -0.909  0.00  0.00    +0.000 NA
ATOM     20  H   UNL     1       1.827  -1.141  -1.454  0.00  0.00    +0.000 HD
ATOM     21  H   UNL     1       1.584   0.462  -1.579  0.00  0.00    +0.000 HD
ENDBRANCH  18  19
ENDBRANCH  12  18
ENDBRANCH   1  15
TORSDOF 4
