REMARK  Name = 
REMARK  9 active torsions:
REMARK  status: ('A' for Active; 'I' for Inactive)
REMARK    1  A    between atoms: C_1  and  O_2
REMARK    2  A    between atoms: O_2  and  C_3
REMARK    3  A    between atoms: C_8  and  C_9
REMARK    4  A    between atoms: N_11  and  C_12
REMARK    5  A    between atoms: C_12  and  C_13
REMARK    6  A    between atoms: C_12  and  C_14
REMARK    7  A    between atoms: C_17  and  C_18
REMARK    8  A    between atoms: C_18  and  N_19
REMARK    9  A    between atoms: C_20  and  C_22
REMARK                            x       y       z     vdW  Elec       q    Type
REMARK                         _______ _______ _______ _____ _____    ______ ____
ROOT
ATOM      1  C   UNL     1      -0.261  -5.828  -0.724  0.00  0.00    +0.000 A 
ATOM      2  C   UNL     1       0.165  -6.813  -1.628  0.00  0.00    +0.000 A 
ATOM      3  C   UNL     1      -0.083  -8.169  -1.382  0.00  0.00    +0.000 A 
ATOM      4  C   UNL     1      -0.774  -8.574  -0.233  0.00  0.00    +0.000 A 
ATOM      5  C   UNL     1      -1.186  -7.595   0.680  0.00  0.00    +0.000 A 
ATOM      6  C   UNL     1      -0.939  -6.240   0.435  0.00  0.00    +0.000 A 
ENDROOT
BRANCH   1   7
ATOM      7  C   UNL     1       0.018  -4.355  -1.001  0.00  0.00    +0.000 C 
ATOM      8  C   UNL     1       0.959  -3.775   0.061  0.00  0.00    +0.000 C 
BRANCH   7  11
ATOM      9  C   UNL     1      -1.331  -2.300  -1.452  0.00  0.00    +0.000 C 
ATOM     10  O   UNL     1      -0.346  -1.599  -1.664  0.00  0.00    +0.000 OA
ATOM     11  N   UNL     1      -1.237  -3.622  -1.088  0.00  0.00    +0.000 N 
ATOM     12  H   UNL     1      -2.092  -4.170  -1.074  0.00  0.00    +0.000 HD
BRANCH   9  18
ATOM     13  C   UNL     1      -3.894  -2.410  -1.438  0.00  0.00    +0.000 A 
ATOM     14  N   UNL     1      -5.118  -1.868  -1.666  0.00  0.00    +0.000 NA
ATOM     15  C   UNL     1      -5.163  -0.577  -2.054  0.00  0.00    +0.000 A 
ATOM     16  C   UNL     1      -4.041   0.217  -2.195  0.00  0.00    +0.000 A 
ATOM     17  C   UNL     1      -2.794  -0.362  -1.968  0.00  0.00    +0.000 A 
ATOM     18  C   UNL     1      -2.697  -1.715  -1.611  0.00  0.00    +0.000 A 
BRANCH  13  20
ATOM     19  C   UNL     1      -5.064  -4.164  -0.429  0.00  0.00    +0.000 C 
ATOM     20  O   UNL     1      -3.855  -3.736  -1.052  0.00  0.00    +0.000 OA
ENDBRANCH  13  20
ENDBRANCH   9  18
ENDBRANCH   7  11
ENDBRANCH   1   7
BRANCH   4  21
ATOM     21  C   UNL     1      -1.025 -10.035   0.045  0.00  0.00    +0.000 C 
BRANCH  21  22
ATOM     22  N   UNL     1       0.066 -10.615   0.786  0.00  0.00    +0.000 N 
ATOM     23  C   UNL     1       0.105 -11.949   1.091  0.00  0.00    +0.000 C 
ATOM     24  O   UNL     1      -0.773 -12.730   0.730  0.00  0.00    +0.000 OA
ATOM     25  H   UNL     1       0.673  -9.971   1.284  0.00  0.00    +0.000 HD
BRANCH  23  26
ATOM     26  C   UNL     1       1.293 -12.416   1.820  0.00  0.00    +0.000 A 
ATOM     27  C   UNL     1       1.678 -13.747   1.736  0.00  0.00    +0.000 A 
ATOM     28  S   UNL     1       3.119 -14.097   2.580  0.00  0.00    +0.000 S 
ATOM     29  C   UNL     1       3.246 -12.494   3.139  0.00  0.00    +0.000 A 
ATOM     30  N   UNL     1       4.271 -12.114   3.947  0.00  0.00    +0.000 NA
ATOM     31  C   UNL     1       4.224 -10.880   4.319  0.00  0.00    +0.000 A 
ATOM     32  N   UNL     1       3.252  -9.987   3.952  0.00  0.00    +0.000 N 
ATOM     33  C   UNL     1       2.214 -10.319   3.113  0.00  0.00    +0.000 A 
ATOM     34  O   UNL     1       1.380  -9.485   2.774  0.00  0.00    +0.000 OA
ATOM     35  C   UNL     1       2.213 -11.699   2.672  0.00  0.00    +0.000 A 
ATOM     36  H   UNL     1       3.281  -9.030   4.275  0.00  0.00    +0.000 HD
ENDBRANCH  23  26
ENDBRANCH  21  22
ENDBRANCH   4  21
TORSDOF 7
