REMARK  Name = 
REMARK  11 active torsions:
REMARK  status: ('A' for Active; 'I' for Inactive)
REMARK    1  A    between atoms: N_1  and  C_2
REMARK    2  A    between atoms: C_2  and  C_3
REMARK    3  A    between atoms: C_3  and  N_4
REMARK    4  A    between atoms: N_4  and  C_5
REMARK    5  A    between atoms: C_5  and  C_6
REMARK    6  A    between atoms: C_9  and  C_10
REMARK    7  A    between atoms: C_10  and  C_11
REMARK    8  A    between atoms: C_11  and  C_12
REMARK    9  A    between atoms: C_15  and  C_16
REMARK   10  A    between atoms: C_16  and  N_17
REMARK   11  A    between atoms: C_18  and  C_20
REMARK                            x       y       z     vdW  Elec       q    Type
REMARK                         _______ _______ _______ _____ _____    ______ ____
ROOT
ATOM      1  C   UNL     1      12.868   1.821  -0.791  0.00  0.00    +0.000 A 
ATOM      2  C   UNL     1      13.589   1.232   0.242  0.00  0.00    +0.000 A 
ATOM      3  C   UNL     1      14.983   1.299   0.220  0.00  0.00    +0.000 A 
ATOM      4  C   UNL     1      15.625   1.978  -0.820  0.00  0.00    +0.000 A 
ATOM      5  C   UNL     1      14.827   2.526  -1.811  0.00  0.00    +0.000 A 
ATOM      6  N   UNL     1      13.474   2.477  -1.811  0.00  0.00    +0.000 NA
ENDROOT
BRANCH   1   7
ATOM      7  C   UNL     1      11.359   1.806  -0.767  0.00  0.00    +0.000 C 
BRANCH   7   8
ATOM      8  C   UNL     1      10.760   1.801  -2.175  0.00  0.00    +0.000 C 
BRANCH   8  12
ATOM      9  C   UNL     1       6.513   1.755  -2.077  0.00  0.00    +0.000 A 
ATOM     10  C   UNL     1       7.187   0.536  -2.114  0.00  0.00    +0.000 A 
ATOM     11  C   UNL     1       8.576   0.537  -2.143  0.00  0.00    +0.000 A 
ATOM     12  C   UNL     1       9.260   1.751  -2.147  0.00  0.00    +0.000 A 
ATOM     13  C   UNL     1       8.507   2.919  -2.101  0.00  0.00    +0.000 A 
ATOM     14  N   UNL     1       7.157   2.949  -2.070  0.00  0.00    +0.000 NA
BRANCH   9  15
ATOM     15  C   UNL     1       5.003   1.780  -1.951  0.00  0.00    +0.000 C 
BRANCH  15  16
ATOM     16  N   UNL     1       4.493   1.080  -0.757  0.00  0.00    +0.000 NA
ATOM     17  H   UNL     1       3.477   1.130  -0.769  0.00  0.00    +0.000 HD
BRANCH  16  18
ATOM     18  C   UNL     1       4.989   1.723   0.472  0.00  0.00    +0.000 C 
BRANCH  18  19
ATOM     19  C   UNL     1       4.481   0.983   1.721  0.00  0.00    +0.000 C 
BRANCH  19  20
ATOM     20  N   UNL     1       4.969   1.619   2.945  0.00  0.00    +0.000 NA
ATOM     21  H   UNL     1       4.569   1.143   3.753  0.00  0.00    +0.000 HD
ATOM     22  H   UNL     1       4.644   2.583   2.983  0.00  0.00    +0.000 HD
ENDBRANCH  19  20
ENDBRANCH  18  19
ENDBRANCH  16  18
ENDBRANCH  15  16
ENDBRANCH   9  15
ENDBRANCH   8  12
ENDBRANCH   7   8
ENDBRANCH   1   7
BRANCH   4  23
ATOM     23  C   UNL     1      17.120   2.085  -0.887  0.00  0.00    +0.000 C 
BRANCH  23  24
ATOM     24  N   UNL     1      17.694   0.961  -1.582  0.00  0.00    +0.000 N 
ATOM     25  C   UNL     1      19.053   0.849  -1.752  0.00  0.00    +0.000 C 
ATOM     26  O   UNL     1      19.842   1.639  -1.244  0.00  0.00    +0.000 OA
ATOM     27  H   UNL     1      17.078   0.425  -2.182  0.00  0.00    +0.000 HD
BRANCH  25  28
ATOM     28  C   UNL     1      19.513  -0.311  -2.531  0.00  0.00    +0.000 A 
ATOM     29  C   UNL     1      20.782  -0.830  -2.312  0.00  0.00    +0.000 A 
ATOM     30  S   UNL     1      21.139  -2.181  -3.292  0.00  0.00    +0.000 S 
ATOM     31  C   UNL     1      19.624  -2.094  -4.064  0.00  0.00    +0.000 A 
ATOM     32  N   UNL     1      19.286  -2.967  -5.049  0.00  0.00    +0.000 NA
ATOM     33  C   UNL     1      18.116  -2.770  -5.559  0.00  0.00    +0.000 A 
ATOM     34  N   UNL     1      17.252  -1.780  -5.173  0.00  0.00    +0.000 N 
ATOM     35  C   UNL     1      17.539  -0.890  -4.164  0.00  0.00    +0.000 A 
ATOM     36  O   UNL     1      16.722  -0.050  -3.803  0.00  0.00    +0.000 OA
ATOM     37  C   UNL     1      18.849  -1.061  -3.566  0.00  0.00    +0.000 A 
ATOM     38  H   UNL     1      16.343  -1.687  -5.601  0.00  0.00    +0.000 HD
ENDBRANCH  25  28
ENDBRANCH  23  24
ENDBRANCH   4  23
TORSDOF 11
