REMARK  Name = 
REMARK  9 active torsions:
REMARK  status: ('A' for Active; 'I' for Inactive)
REMARK    1  A    between atoms: C_2  and  C_22
REMARK    2  A    between atoms: N_3  and  C_4
REMARK    3  A    between atoms: C_4  and  C_5
REMARK    4  A    between atoms: C_8  and  C_9
REMARK    5  A    between atoms: C_9  and  O_10
REMARK    6  A    between atoms: C_9  and  C_11
REMARK    7  A    between atoms: C_9  and  C_13
REMARK    8  A    between atoms: C_11  and  O_12
REMARK    9  A    between atoms: C_13  and  C_14
REMARK                            x       y       z     vdW  Elec       q    Type
REMARK                         _______ _______ _______ _____ _____    ______ ____
ROOT
ATOM      1  C   UNL     1       3.357   1.055  -3.284  0.00  0.00    +0.000 A 
ATOM      2  C   UNL     1       3.539   2.359  -3.748  0.00  0.00    +0.000 A 
ATOM      3  C   UNL     1       4.456   2.632  -4.771  0.00  0.00    +0.000 A 
ATOM      4  C   UNL     1       5.223   1.613  -5.364  0.00  0.00    +0.000 A 
ATOM      5  C   UNL     1       5.004   0.300  -4.901  0.00  0.00    +0.000 A 
ATOM      6  C   UNL     1       4.085   0.026  -3.882  0.00  0.00    +0.000 A 
ENDROOT
BRANCH   1   7
ATOM      7  C   UNL     1       2.351   0.758  -2.205  0.00  0.00    +0.000 C 
BRANCH   7  10
ATOM      8  O   UNL     1       0.236   2.591  -2.460  0.00  0.00    +0.000 OA
ATOM      9  C   UNL     1       0.101   1.459  -2.918  0.00  0.00    +0.000 C 
ATOM     10  N   UNL     1       1.055   0.486  -2.773  0.00  0.00    +0.000 N 
ATOM     11  H   UNL     1       0.985  -0.356  -3.333  0.00  0.00    +0.000 HD
BRANCH   9  12
ATOM     12  C   UNL     1      -1.133   1.059  -3.605  0.00  0.00    +0.000 A 
ATOM     13  C   UNL     1      -2.309   1.758  -3.370  0.00  0.00    +0.000 A 
ATOM     14  S   UNL     1      -3.650   1.152  -4.231  0.00  0.00    +0.000 S 
ATOM     15  C   UNL     1      -2.696  -0.037  -4.986  0.00  0.00    +0.000 A 
ATOM     16  N   UNL     1      -3.238  -0.896  -5.892  0.00  0.00    +0.000 NA
ATOM     17  C   UNL     1      -2.391  -1.711  -6.426  0.00  0.00    +0.000 A 
ATOM     18  N   UNL     1      -1.054  -1.757  -6.124  0.00  0.00    +0.000 N 
ATOM     19  C   UNL     1      -0.483  -0.971  -5.153  0.00  0.00    +0.000 A 
ATOM     20  O   UNL     1       0.679  -1.146  -4.798  0.00  0.00    +0.000 OA
ATOM     21  C   UNL     1      -1.379   0.007  -4.565  0.00  0.00    +0.000 A 
ATOM     22  H   UNL     1      -0.451  -2.443  -6.553  0.00  0.00    +0.000 HD
ENDBRANCH   9  12
ENDBRANCH   7  10
ENDBRANCH   1   7
BRANCH   4  23
ATOM     23  C   UNL     1       6.182   1.921  -6.531  0.00  0.00    +0.000 C 
BRANCH  23  24
ATOM     24  O   UNL     1       7.239   0.943  -6.657  0.00  0.00    +0.000 OA
ATOM     25  H   UNL     1       6.839   0.068  -6.570  0.00  0.00    +0.000 HD
ENDBRANCH  23  24
BRANCH  23  26
ATOM     26  C   UNL     1       5.390   1.840  -7.870  0.00  0.00    +0.000 C 
BRANCH  26  27
ATOM     27  O   UNL     1       4.916   0.511  -8.133  0.00  0.00    +0.000 OA
ATOM     28  H   UNL     1       5.690  -0.013  -8.398  0.00  0.00    +0.000 HD
ENDBRANCH  26  27
ENDBRANCH  23  26
BRANCH  23  29
ATOM     29  C   UNL     1       6.870   3.317  -6.464  0.00  0.00    +0.000 C 
BRANCH  29  30
ATOM     30  C   UNL     1       7.666   3.593  -5.208  0.00  0.00    +0.000 A 
ATOM     31  C   UNL     1       8.808   2.853  -4.902  0.00  0.00    +0.000 A 
ATOM     32  C   UNL     1       9.511   3.134  -3.735  0.00  0.00    +0.000 A 
ATOM     33  C   UNL     1       9.072   4.158  -2.909  0.00  0.00    +0.000 A 
ATOM     34  C   UNL     1       7.946   4.865  -3.291  0.00  0.00    +0.000 A 
ATOM     35  N   UNL     1       7.242   4.613  -4.420  0.00  0.00    +0.000 NA
ENDBRANCH  29  30
ENDBRANCH  23  29
ENDBRANCH   4  23
TORSDOF 9
