REMARK  Name = 
REMARK  5 active torsions:
REMARK  status: ('A' for Active; 'I' for Inactive)
REMARK    1  A    between atoms: C_2  and  C_3
REMARK    2  A    between atoms: C_6  and  O_7
REMARK    3  A    between atoms: O_7  and  C_8
REMARK    4  A    between atoms: C_8  and  C_9
REMARK    5  A    between atoms: C_13  and  C_14
REMARK                            x       y       z     vdW  Elec       q    Type
REMARK                         _______ _______ _______ _____ _____    ______ ____
ROOT
ATOM      1  C   UNL     1      -5.769   1.070  -0.249  0.00  0.00    +0.000 A 
ATOM      2  C   UNL     1      -6.629   2.161  -0.286  0.00  0.00    +0.000 A 
ATOM      3  N   UNL     1      -7.972   2.062  -0.351  0.00  0.00    +0.000 NA
ATOM      4  C   UNL     1      -8.487   0.808  -0.376  0.00  0.00    +0.000 A 
ATOM      5  C   UNL     1      -7.738  -0.370  -0.354  0.00  0.00    +0.000 A 
ATOM      6  C   UNL     1      -6.348  -0.201  -0.296  0.00  0.00    +0.000 A 
ENDROOT
BRANCH   5   7
ATOM      7  C   UNL     1      -8.352  -1.712  -0.387  0.00  0.00    +0.000 A 
ATOM      8  C   UNL     1      -9.551  -1.955  -1.083  0.00  0.00    +0.000 A 
ATOM      9  C   UNL     1     -10.132  -3.228  -1.116  0.00  0.00    +0.000 A 
ATOM     10  C   UNL     1      -9.517  -4.290  -0.460  0.00  0.00    +0.000 A 
ATOM     11  C   UNL     1      -8.331  -4.068   0.223  0.00  0.00    +0.000 A 
ATOM     12  F   UNL     1      -7.729  -5.087   0.851  0.00  0.00    +0.000 F 
ATOM     13  C   UNL     1      -7.755  -2.803   0.270  0.00  0.00    +0.000 A 
ENDBRANCH   5   7
BRANCH   1  14
ATOM     14  C   UNL     1      -4.283   1.290  -0.157  0.00  0.00    +0.000 C 
BRANCH  14  15
ATOM     15  O   UNL     1      -3.569   0.046  -0.124  0.00  0.00    +0.000 OA
BRANCH  15  19
ATOM     16  C   UNL     1       0.497   0.567   0.193  0.00  0.00    +0.000 A 
ATOM     17  C   UNL     1      -0.027  -0.724   0.138  0.00  0.00    +0.000 A 
ATOM     18  C   UNL     1      -1.408  -0.897   0.027  0.00  0.00    +0.000 A 
ATOM     19  C   UNL     1      -2.208   0.234  -0.025  0.00  0.00    +0.000 A 
ATOM     20  N   UNL     1      -1.723   1.494   0.021  0.00  0.00    +0.000 NA
ATOM     21  C   UNL     1      -0.386   1.634   0.128  0.00  0.00    +0.000 A 
BRANCH  16  23
ATOM     22  N   UNL     1       3.036   1.015   0.420  0.00  0.00    +0.000 NA
ATOM     23  C   UNL     1       1.896   0.806   0.317  0.00  0.00    +0.000 C 
ENDBRANCH  16  23
ENDBRANCH  15  19
ENDBRANCH  14  15
ENDBRANCH   1  14
TORSDOF 5
