REMARK  Name = 
REMARK  9 active torsions:
REMARK  status: ('A' for Active; 'I' for Inactive)
REMARK    1  A    between atoms: C_1  and  N_2
REMARK    2  A    between atoms: C_4  and  O_5
REMARK    3  A    between atoms: O_5  and  C_6
REMARK    4  A    between atoms: C_10  and  C_11
REMARK    5  A    between atoms: C_11  and  C_12
REMARK    6  A    between atoms: C_12  and  N_13
REMARK    7  A    between atoms: C_17  and  C_18
REMARK    8  A    between atoms: N_20  and  C_21
REMARK    9  A    between atoms: N_20  and  C_22
REMARK                            x       y       z     vdW  Elec       q    Type
REMARK                         _______ _______ _______ _____ _____    ______ ____
ROOT
ATOM      1  C   UNL     1       5.638  -5.209   0.486  0.00  0.00    +0.000 C 
ENDROOT
BRANCH   1   2
ATOM      2  N   UNL     1       5.541  -6.676   0.436  0.00  0.00    +0.000 N 
ATOM      3  C   UNL     1       4.232  -7.136   0.178  0.00  0.00    +0.000 A 
ATOM      4  C   UNL     1       3.990  -8.510   0.167  0.00  0.00    +0.000 A 
ATOM      5  C   UNL     1       2.693  -8.997  -0.073  0.00  0.00    +0.000 A 
ATOM      6  C   UNL     1       1.662  -8.104  -0.348  0.00  0.00    +0.000 A 
ATOM      7  C   UNL     1       1.996  -6.753  -0.306  0.00  0.00    +0.000 A 
ATOM      8  N   UNL     1       3.242  -6.261  -0.066  0.00  0.00    +0.000 NA
ATOM      9  H   UNL     1       5.862  -7.107   1.299  0.00  0.00    +0.000 HD
BRANCH   6  10
ATOM     10  C   UNL     1       0.225  -8.433  -0.559  0.00  0.00    +0.000 C 
ATOM     11  O   UNL     1      -0.575  -7.600  -0.123  0.00  0.00    +0.000 OA
ATOM     12  N   UNL     1      -0.214  -9.585  -1.223  0.00  0.00    +0.000 N 
ATOM     13  C   UNL     1       0.588 -10.605  -1.881  0.00  0.00    +0.000 C 
ATOM     14  C   UNL     1      -1.655  -9.767  -1.358  0.00  0.00    +0.000 C 
ENDBRANCH   6  10
ENDBRANCH   1   2
BRANCH   1  15
ATOM     15  C   UNL     1       7.081  -4.772   0.785  0.00  0.00    +0.000 C 
BRANCH  15  20
ATOM     16  C   UNL     1       8.254  -1.217   0.068  0.00  0.00    +0.000 A 
ATOM     17  C   UNL     1       7.537  -0.557   1.057  0.00  0.00    +0.000 A 
ATOM     18  N   UNL     1       6.690  -1.167   1.918  0.00  0.00    +0.000 NA
ATOM     19  C   UNL     1       6.567  -2.507   1.795  0.00  0.00    +0.000 A 
ATOM     20  C   UNL     1       7.243  -3.272   0.848  0.00  0.00    +0.000 A 
ATOM     21  C   UNL     1       8.108  -2.598  -0.030  0.00  0.00    +0.000 A 
BRANCH  16  22
ATOM     22  O   UNL     1       9.087  -0.454  -0.706  0.00  0.00    +0.000 OA
BRANCH  22  26
ATOM     23  C   UNL     1      12.327  -0.969  -3.620  0.00  0.00    +0.000 C 
ATOM     24  N   UNL     1      11.436  -0.729  -2.494  0.00  0.00    +0.000 NA
ATOM     25  C   UNL     1      10.549  -1.892  -2.264  0.00  0.00    +0.000 C 
ATOM     26  C   UNL     1       9.373  -0.901  -2.055  0.00  0.00    +0.000 C 
ATOM     27  C   UNL     1      10.252   0.063  -2.900  0.00  0.00    +0.000 C 
ENDBRANCH  22  26
ENDBRANCH  16  22
ENDBRANCH  15  20
ENDBRANCH   1  15
TORSDOF 6
