REMARK  Name = 
REMARK  6 active torsions:
REMARK  status: ('A' for Active; 'I' for Inactive)
REMARK    1  A    between atoms: C_1  and  C_2
REMARK    2  A    between atoms: C_2  and  C_3
REMARK    3  A    between atoms: C_7  and  C_8
REMARK    4  A    between atoms: C_8  and  C_9
REMARK    5  A    between atoms: C_9  and  N_10
REMARK    6  A    between atoms: C_14  and  C_15
REMARK                            x       y       z     vdW  Elec       q    Type
REMARK                         _______ _______ _______ _____ _____    ______ ____
ROOT
ATOM      1  C   UNL     1       4.407  -1.387   4.616  0.00  0.00    +0.000 C 
ENDROOT
BRANCH   1   6
ATOM      2  C   UNL     1       2.986   0.346   1.505  0.00  0.00    +0.000 A 
ATOM      3  C   UNL     1       2.760   1.633   2.027  0.00  0.00    +0.000 A 
ATOM      4  C   UNL     1       3.076   1.948   3.351  0.00  0.00    +0.000 A 
ATOM      5  C   UNL     1       3.631   0.985   4.188  0.00  0.00    +0.000 A 
ATOM      6  C   UNL     1       3.892  -0.298   3.699  0.00  0.00    +0.000 A 
ATOM      7  C   UNL     1       3.576  -0.601   2.363  0.00  0.00    +0.000 A 
BRANCH   2   9
ATOM      8  C   UNL     1       0.953   0.099   0.102  0.00  0.00    +0.000 C 
ATOM      9  C   UNL     1       2.499  -0.013   0.081  0.00  0.00    +0.000 C 
ATOM     10  C   UNL     1       3.099   0.961  -0.967  0.00  0.00    +0.000 C 
ATOM     11  C   UNL     1       2.771   0.552  -2.401  0.00  0.00    +0.000 C 
ATOM     12  O   UNL     1       3.198  -0.780  -2.669  0.00  0.00    +0.000 OA
ATOM     13  C   UNL     1       2.568  -1.735  -1.821  0.00  0.00    +0.000 C 
ATOM     14  C   UNL     1       2.892  -1.451  -0.359  0.00  0.00    +0.000 C 
ENDBRANCH   2   9
ENDBRANCH   1   6
BRANCH   1  15
ATOM     15  C   UNL     1       3.240  -2.190   5.202  0.00  0.00    +0.000 C 
BRANCH  15  16
ATOM     16  N   UNL     1       3.716  -3.281   6.065  0.00  0.00    +0.000 N 
ATOM     17  C   UNL     1       2.658  -4.037   6.613  0.00  0.00    +0.000 A 
ATOM     18  C   UNL     1       2.928  -5.119   7.465  0.00  0.00    +0.000 A 
ATOM     19  N   UNL     1       1.973  -5.907   8.034  0.00  0.00    +0.000 NA
ATOM     20  C   UNL     1       0.697  -5.570   7.693  0.00  0.00    +0.000 A 
ATOM     21  C   UNL     1       0.411  -4.516   6.846  0.00  0.00    +0.000 A 
ATOM     22  N   UNL     1       1.378  -3.744   6.294  0.00  0.00    +0.000 NA
ATOM     23  H   UNL     1       4.306  -2.941   6.820  0.00  0.00    +0.000 HD
BRANCH  20  24
ATOM     24  C   UNL     1      -0.421  -6.365   8.264  0.00  0.00    +0.000 C 
ATOM     25  N   UNL     1      -0.069  -7.408   9.078  0.00  0.00    +0.000 N 
ATOM     26  O   UNL     1      -1.596  -6.112   8.022  0.00  0.00    +0.000 OA
ATOM     27  H   UNL     1       0.910  -7.600   9.261  0.00  0.00    +0.000 HD
ATOM     28  H   UNL     1      -0.789  -7.983   9.491  0.00  0.00    +0.000 HD
ENDBRANCH  20  24
ENDBRANCH  15  16
ENDBRANCH   1  15
TORSDOF 5
