REMARK  Name = 
REMARK  4 active torsions:
REMARK  status: ('A' for Active; 'I' for Inactive)
REMARK    1  A    between atoms: C_2  and  C_4
REMARK    2  A    between atoms: C_7  and  O_8
REMARK    3  A    between atoms: O_8  and  C_9
REMARK    4  A    between atoms: C_9  and  C_10
REMARK                            x       y       z     vdW  Elec       q    Type
REMARK                         _______ _______ _______ _____ _____    ______ ____
ROOT
ATOM      1  C   UNL     1       3.220   0.795   0.900  0.00  0.00    +0.000 A 
ATOM      2  C   UNL     1       2.896   0.891   2.245  0.00  0.00    +0.000 A 
ATOM      3  N   UNL     1       3.541   1.743   3.086  0.00  0.00    +0.000 NA
ATOM      4  C   UNL     1       4.520   2.494   2.532  0.00  0.00    +0.000 A 
ATOM      5  C   UNL     1       4.854   2.371   1.184  0.00  0.00    +0.000 A 
ATOM      6  N   UNL     1       4.214   1.534   0.332  0.00  0.00    +0.000 NA
ENDROOT
BRANCH   1   8
ATOM      7  N   UNL     1       2.902  -0.156  -1.292  0.00  0.00    +0.000 N 
ATOM      8  C   UNL     1       2.479  -0.135   0.011  0.00  0.00    +0.000 C 
ATOM      9  O   UNL     1       1.556  -0.831   0.409  0.00  0.00    +0.000 OA
ATOM     10  H   UNL     1       2.452  -0.769  -1.956  0.00  0.00    +0.000 HD
ATOM     11  H   UNL     1       3.678   0.431  -1.578  0.00  0.00    +0.000 HD
ENDBRANCH   1   8
BRANCH   4  12
ATOM     12  O   UNL     1       5.124   3.344   3.412  0.00  0.00    +0.000 OA
BRANCH  12  13
ATOM     13  C   UNL     1       5.624   4.546   2.823  0.00  0.00    +0.000 C 
BRANCH  13  14
ATOM     14  C   UNL     1       5.754   5.644   3.844  0.00  0.00    +0.000 A 
ATOM     15  C   UNL     1       4.902   5.745   4.935  0.00  0.00    +0.000 A 
ATOM     16  C   UNL     1       5.039   6.832   5.788  0.00  0.00    +0.000 A 
ATOM     17  C   UNL     1       6.012   7.766   5.496  0.00  0.00    +0.000 A 
ATOM     18  N   UNL     1       6.821   7.660   4.425  0.00  0.00    +0.000 NA
ATOM     19  N   UNL     1       6.687   6.591   3.590  0.00  0.00    +0.000 NA
ENDBRANCH  13  14
ENDBRANCH  12  13
ENDBRANCH   4  12
TORSDOF 4
