REMARK  Name = 
REMARK  5 active torsions:
REMARK  status: ('A' for Active; 'I' for Inactive)
REMARK    1  A    between atoms: N_1  and  C_2
REMARK    2  A    between atoms: C_2  and  C_3
REMARK    3  A    between atoms: C_6  and  C_7
REMARK    4  A    between atoms: C_7  and  N_8
REMARK    5  A    between atoms: C_13  and  C_14
REMARK                            x       y       z     vdW  Elec       q    Type
REMARK                         _______ _______ _______ _____ _____    ______ ____
ROOT
ATOM      1  N   UNL     1      -0.186   2.026   4.708  0.00  0.00    +0.000 N 
ATOM      2  C   UNL     1       0.003   2.398   6.011  0.00  0.00    +0.000 A 
ATOM      3  N   UNL     1      -0.771   1.721   6.826  0.00  0.00    +0.000 NA
ATOM      4  C   UNL     1      -1.519   0.910   6.014  0.00  0.00    +0.000 A 
ATOM      5  C   UNL     1      -2.517  -0.010   6.369  0.00  0.00    +0.000 A 
ATOM      6  C   UNL     1      -3.191  -0.698   5.351  0.00  0.00    +0.000 A 
ATOM      7  C   UNL     1      -2.837  -0.493   4.008  0.00  0.00    +0.000 A 
ATOM      8  C   UNL     1      -1.820   0.396   3.639  0.00  0.00    +0.000 A 
ATOM      9  C   UNL     1      -1.191   1.092   4.674  0.00  0.00    +0.000 A 
ENDROOT
BRANCH   6  10
ATOM     10  C   UNL     1      -4.310  -1.639   5.638  0.00  0.00    +0.000 C 
ATOM     11  N   UNL     1      -4.697  -1.818   6.933  0.00  0.00    +0.000 N 
ATOM     12  O   UNL     1      -4.889  -2.237   4.734  0.00  0.00    +0.000 OA
ATOM     13  H   UNL     1      -4.303  -1.354   7.735  0.00  0.00    +0.000 HD
ATOM     14  H   UNL     1      -5.483  -2.441   7.090  0.00  0.00    +0.000 HD
ENDBRANCH   6  10
BRANCH   1  15
ATOM     15  C   UNL     1       0.573   2.515   3.571  0.00  0.00    +0.000 C 
BRANCH  15  19
ATOM     16  C   UNL     1       3.114   0.620   1.284  0.00  0.00    +0.000 C 
ATOM     17  C   UNL     1       2.284  -0.041   2.394  0.00  0.00    +0.000 C 
ATOM     18  C   UNL     1       2.361   0.685   3.735  0.00  0.00    +0.000 C 
ATOM     19  C   UNL     1       2.079   2.198   3.655  0.00  0.00    +0.000 C 
ATOM     20  C   UNL     1       2.834   2.866   2.496  0.00  0.00    +0.000 C 
ATOM     21  C   UNL     1       2.737   2.107   1.173  0.00  0.00    +0.000 C 
BRANCH  16  22
ATOM     22  C   UNL     1       4.638   0.428   1.448  0.00  0.00    +0.000 C 
BRANCH  22  23
ATOM     23  N   UNL     1       5.031  -0.978   1.395  0.00  0.00    +0.000 NA
ATOM     24  H   UNL     1       6.045  -1.042   1.318  0.00  0.00    +0.000 HD
ATOM     25  H   UNL     1       4.654  -1.418   0.558  0.00  0.00    +0.000 HD
ENDBRANCH  22  23
ENDBRANCH  16  22
ENDBRANCH  15  19
ENDBRANCH   1  15
TORSDOF 5
