REMARK  Name = 
REMARK  9 active torsions:
REMARK  status: ('A' for Active; 'I' for Inactive)
REMARK    1  A    between atoms: C_1  and  C_2
REMARK    2  A    between atoms: C_2  and  N_3
REMARK    3  A    between atoms: N_3  and  C_4
REMARK    4  A    between atoms: N_7  and  C_8
REMARK    5  A    between atoms: C_8  and  C_9
REMARK    6  A    between atoms: C_12  and  O_13
REMARK    7  A    between atoms: O_13  and  C_14
REMARK    8  A    between atoms: C_14  and  C_15
REMARK    9  A    between atoms: C_15  and  C_16
REMARK                            x       y       z     vdW  Elec       q    Type
REMARK                         _______ _______ _______ _____ _____    ______ ____
ROOT
ATOM      1  C   UNL     1       6.524   2.140   4.231  0.00  0.00    +0.000 A 
ATOM      2  C   UNL     1       6.759   3.520   4.282  0.00  0.00    +0.000 A 
ATOM      3  C   UNL     1       6.833   4.188   5.511  0.00  0.00    +0.000 A 
ATOM      4  C   UNL     1       6.685   3.482   6.705  0.00  0.00    +0.000 A 
ATOM      5  C   UNL     1       6.510   2.097   6.659  0.00  0.00    +0.000 A 
ATOM      6  C   UNL     1       6.431   1.429   5.433  0.00  0.00    +0.000 A 
ENDROOT
BRANCH   1   7
ATOM      7  C   UNL     1       6.397   1.437   2.904  0.00  0.00    +0.000 C 
BRANCH   7  12
ATOM      8  N   UNL     1       9.099   0.046   0.832  0.00  0.00    +0.000 N 
ATOM      9  C   UNL     1      10.270   0.344   1.642  0.00  0.00    +0.000 C 
ATOM     10  C   UNL     1       7.807   0.395   1.196  0.00  0.00    +0.000 C 
ATOM     11  O   UNL     1       6.822   0.141   0.501  0.00  0.00    +0.000 OA
ATOM     12  N   UNL     1       7.686   1.046   2.394  0.00  0.00    +0.000 N 
ATOM     13  H   UNL     1       8.477   1.135   3.007  0.00  0.00    +0.000 HD
BRANCH   8  15
ATOM     14  C   UNL     1       9.486   0.170  -1.646  0.00  0.00    +0.000 C 
ATOM     15  C   UNL     1       9.290  -0.705  -0.413  0.00  0.00    +0.000 C 
ENDBRANCH   8  15
ENDBRANCH   7  12
ENDBRANCH   1   7
BRANCH   4  16
ATOM     16  O   UNL     1       6.739   4.031   7.959  0.00  0.00    +0.000 OA
BRANCH  16  17
ATOM     17  C   UNL     1       6.267   5.379   8.062  0.00  0.00    +0.000 C 
BRANCH  17  18
ATOM     18  C   UNL     1       6.354   5.823   9.526  0.00  0.00    +0.000 C 
BRANCH  18  19
ATOM     19  C   UNL     1       5.874   7.235   9.711  0.00  0.00    +0.000 A 
ATOM     20  C   UNL     1       4.535   7.519   9.989  0.00  0.00    +0.000 A 
ATOM     21  C   UNL     1       4.124   8.844  10.122  0.00  0.00    +0.000 A 
ATOM     22  C   UNL     1       5.068   9.844   9.966  0.00  0.00    +0.000 A 
ATOM     23  N   UNL     1       6.369   9.614   9.692  0.00  0.00    +0.000 NA
ATOM     24  C   UNL     1       6.740   8.317   9.573  0.00  0.00    +0.000 A 
ENDBRANCH  18  19
ENDBRANCH  17  18
ENDBRANCH  16  17
ENDBRANCH   4  16
TORSDOF 7
