REMARK  Name = 
REMARK  5 active torsions:
REMARK  status: ('A' for Active; 'I' for Inactive)
REMARK    1  A    between atoms: C_2  and  C_4
REMARK    2  A    between atoms: C_7  and  O_8
REMARK    3  A    between atoms: O_8  and  C_9
REMARK    4  A    between atoms: C_9  and  C_10
REMARK    5  A    between atoms: C_15  and  N_16
REMARK                            x       y       z     vdW  Elec       q    Type
REMARK                         _______ _______ _______ _____ _____    ______ ____
ROOT
ATOM      1  C   UNL     1       4.466   4.331  -4.141  0.00  0.00    +0.000 C 
ATOM      2  C   UNL     1       4.584   5.346  -3.025  0.00  0.00    +0.000 C 
ATOM      3  C   UNL     1       3.849   5.709  -4.277  0.00  0.00    +0.000 C 
ENDROOT
BRANCH   1   4
ATOM      4  C   UNL     1       5.700   3.943  -4.960  0.00  0.00    +0.000 A 
ATOM      5  C   UNL     1       6.985   3.855  -4.395  0.00  0.00    +0.000 A 
ATOM      6  C   UNL     1       8.047   3.273  -5.088  0.00  0.00    +0.000 A 
ATOM      7  C   UNL     1       7.838   2.740  -6.357  0.00  0.00    +0.000 A 
ATOM      8  F   UNL     1       8.874   2.141  -6.967  0.00  0.00    +0.000 F 
ATOM      9  C   UNL     1       6.588   2.821  -6.987  0.00  0.00    +0.000 A 
ATOM     10  C   UNL     1       5.554   3.468  -6.279  0.00  0.00    +0.000 A 
BRANCH   9  11
ATOM     11  N   UNL     1       6.289   2.243  -8.212  0.00  0.00    +0.000 N 
ATOM     12  C   UNL     1       6.891   0.970  -8.631  0.00  0.00    +0.000 C 
ATOM     13  C   UNL     1       7.805   1.136  -9.863  0.00  0.00    +0.000 C 
ATOM     14  N   UNL     1       7.167   1.876 -10.976  0.00  0.00    +0.000 NA
ATOM     15  C   UNL     1       6.736   3.193 -10.464  0.00  0.00    +0.000 C 
ATOM     16  C   UNL     1       5.750   3.099  -9.279  0.00  0.00    +0.000 C 
ATOM     17  H   UNL     1       6.331   1.358 -11.254  0.00  0.00    +0.000 HD
ENDBRANCH   9  11
ENDBRANCH   1   4
BRANCH   1  18
ATOM     18  O   UNL     1       3.422   3.319  -3.992  0.00  0.00    +0.000 OA
BRANCH  18  22
ATOM     19  C   UNL     1       5.036  -0.263  -2.869  0.00  0.00    +0.000 A 
ATOM     20  C   UNL     1       4.013  -0.246  -3.820  0.00  0.00    +0.000 A 
ATOM     21  C   UNL     1       3.423   0.968  -4.153  0.00  0.00    +0.000 A 
ATOM     22  C   UNL     1       3.888   2.111  -3.518  0.00  0.00    +0.000 A 
ATOM     23  N   UNL     1       4.806   2.115  -2.527  0.00  0.00    +0.000 NA
ATOM     24  C   UNL     1       5.363   0.923  -2.222  0.00  0.00    +0.000 A 
BRANCH  19  26
ATOM     25  N   UNL     1       6.030  -2.328  -3.625  0.00  0.00    +0.000 N 
ATOM     26  C   UNL     1       5.826  -1.471  -2.577  0.00  0.00    +0.000 C 
ATOM     27  O   UNL     1       6.338  -1.663  -1.483  0.00  0.00    +0.000 OA
ATOM     28  H   UNL     1       6.715  -3.058  -3.475  0.00  0.00    +0.000 HD
ATOM     29  H   UNL     1       5.861  -2.044  -4.581  0.00  0.00    +0.000 HD
ENDBRANCH  19  26
ENDBRANCH  18  22
ENDBRANCH   1  18
TORSDOF 5
