REMARK  Name = 
REMARK  4 active torsions:
REMARK  status: ('A' for Active; 'I' for Inactive)
REMARK    1  A    between atoms: N_1  and  C_2
REMARK    2  A    between atoms: C_2  and  C_3
REMARK    3  A    between atoms: C_6  and  C_7
REMARK    4  A    between atoms: C_7  and  N_8
REMARK                            x       y       z     vdW  Elec       q    Type
REMARK                         _______ _______ _______ _____ _____    ______ ____
ROOT
ATOM      1  C   UNL     1       2.810   1.325  -0.393  0.00  0.00    +0.000 C 
ATOM      2  C   UNL     1       4.083   1.496   0.455  0.00  0.00    +0.000 C 
ATOM      3  C   UNL     1       4.732   2.866   0.262  0.00  0.00    +0.000 C 
ATOM      4  C   UNL     1       3.772   4.022   0.585  0.00  0.00    +0.000 C 
ATOM      5  C   UNL     1       2.489   3.873  -0.256  0.00  0.00    +0.000 C 
ATOM      6  C   UNL     1       1.838   2.492  -0.137  0.00  0.00    +0.000 C 
ENDROOT
BRANCH   1   7
ATOM      7  C   UNL     1       3.109   1.165  -1.899  0.00  0.00    +0.000 C 
BRANCH   7   8
ATOM      8  N   UNL     1       3.956   0.004  -2.156  0.00  0.00    +0.000 NA
ATOM      9  H   UNL     1       4.066  -0.124  -3.161  0.00  0.00    +0.000 HD
ATOM     10  H   UNL     1       3.504  -0.839  -1.805  0.00  0.00    +0.000 HD
ENDBRANCH   7   8
ENDBRANCH   1   7
BRANCH   4  11
ATOM     11  C   UNL     1       3.433   4.138   2.087  0.00  0.00    +0.000 C 
BRANCH  11  12
ATOM     12  N   UNL     1       4.578   4.395   2.946  0.00  0.00    +0.000 N 
ATOM     13  C   UNL     1       5.298   3.429   3.612  0.00  0.00    +0.000 A 
ATOM     14  C   UNL     1       6.235   4.062   4.400  0.00  0.00    +0.000 A 
ATOM     15  C   UNL     1       6.074   5.459   4.212  0.00  0.00    +0.000 A 
ATOM     16  C   UNL     1       6.668   6.614   4.711  0.00  0.00    +0.000 A 
ATOM     17  N   UNL     1       6.243   7.826   4.283  0.00  0.00    +0.000 NA
ATOM     18  C   UNL     1       5.243   7.853   3.380  0.00  0.00    +0.000 A 
ATOM     19  N   UNL     1       4.584   6.815   2.836  0.00  0.00    +0.000 NA
ATOM     20  C   UNL     1       5.047   5.638   3.296  0.00  0.00    +0.000 A 
ENDBRANCH  11  12
ENDBRANCH   4  11
TORSDOF 4
