REMARK  Name = 
REMARK  5 active torsions:
REMARK  status: ('A' for Active; 'I' for Inactive)
REMARK    1  A    between atoms: C_2  and  C_18
REMARK    2  A    between atoms: N_3  and  C_4
REMARK    3  A    between atoms: C_4  and  C_5
REMARK    4  A    between atoms: C_8  and  C_9
REMARK    5  A    between atoms: C_9  and  C_10
REMARK                            x       y       z     vdW  Elec       q    Type
REMARK                         _______ _______ _______ _____ _____    ______ ____
ROOT
ATOM      1  O   UNL     1       0.705   0.355   0.309  0.00  0.00    +0.000 OA
ATOM      2  C   UNL     1       1.616   1.065   0.725  0.00  0.00    +0.000 C 
ATOM      3  N   UNL     1       2.360   1.868  -0.107  0.00  0.00    +0.000 N 
ATOM      4  H   UNL     1       3.268   2.191   0.211  0.00  0.00    +0.000 HD
ENDROOT
BRANCH   2   5
ATOM      5  C   UNL     1       1.927   1.148   2.154  0.00  0.00    +0.000 A 
ATOM      6  C   UNL     1       0.948   0.877   3.101  0.00  0.00    +0.000 A 
ATOM      7  S   UNL     1       1.489   1.058   4.710  0.00  0.00    +0.000 S 
ATOM      8  C   UNL     1       3.060   1.456   4.194  0.00  0.00    +0.000 A 
ATOM      9  N   UNL     1       4.056   1.717   5.090  0.00  0.00    +0.000 NA
ATOM     10  C   UNL     1       5.198   1.974   4.555  0.00  0.00    +0.000 A 
ATOM     11  N   UNL     1       5.445   2.002   3.208  0.00  0.00    +0.000 N 
ATOM     12  C   UNL     1       4.467   1.794   2.269  0.00  0.00    +0.000 A 
ATOM     13  O   UNL     1       4.702   1.911   1.073  0.00  0.00    +0.000 OA
ATOM     14  C   UNL     1       3.164   1.474   2.817  0.00  0.00    +0.000 A 
ATOM     15  H   UNL     1       6.363   2.232   2.851  0.00  0.00    +0.000 HD
ENDBRANCH   2   5
BRANCH   3  16
ATOM     16  C   UNL     1       2.197   1.773  -1.539  0.00  0.00    +0.000 C 
BRANCH  16  17
ATOM     17  C   UNL     1       3.043   2.767  -2.301  0.00  0.00    +0.000 A 
ATOM     18  C   UNL     1       2.581   4.062  -2.506  0.00  0.00    +0.000 A 
ATOM     19  C   UNL     1       3.348   4.939  -3.272  0.00  0.00    +0.000 A 
ATOM     20  C   UNL     1       4.579   4.530  -3.798  0.00  0.00    +0.000 A 
ATOM     21  C   UNL     1       4.975   3.232  -3.506  0.00  0.00    +0.000 A 
ATOM     22  N   UNL     1       4.242   2.350  -2.777  0.00  0.00    +0.000 NA
BRANCH  20  23
ATOM     23  C   UNL     1       5.465   5.520  -4.504  0.00  0.00    +0.000 C 
BRANCH  23  24
ATOM     24  C   UNL     1       5.942   5.305  -5.959  0.00  0.00    +0.000 C 
ATOM     25  C   UNL     1       4.801   5.159  -6.978  0.00  0.00    +0.000 C 
ATOM     26  C   UNL     1       4.452   3.716  -7.329  0.00  0.00    +0.000 C 
ATOM     27  C   UNL     1       5.689   2.855  -7.553  0.00  0.00    +0.000 C 
ATOM     28  N   UNL     1       6.578   2.905  -6.395  0.00  0.00    +0.000 NA
ATOM     29  C   UNL     1       7.055   4.263  -6.155  0.00  0.00    +0.000 C 
ATOM     30  H   UNL     1       7.377   2.294  -6.570  0.00  0.00    +0.000 HD
ENDBRANCH  23  24
ENDBRANCH  20  23
ENDBRANCH  16  17
ENDBRANCH   3  16
TORSDOF 5
