REMARK  Name = 
REMARK  10 active torsions:
REMARK  status: ('A' for Active; 'I' for Inactive)
REMARK    1  A    between atoms: C_1  and  O_2
REMARK    2  A    between atoms: O_2  and  C_3
REMARK    3  A    between atoms: C_10  and  C_11
REMARK    4  A    between atoms: N_13  and  C_14
REMARK    5  A    between atoms: C_14  and  C_15
REMARK    6  A    between atoms: C_18  and  N_19
REMARK    7  A    between atoms: N_19  and  C_20
REMARK    8  A    between atoms: N_19  and  C_21
REMARK    9  A    between atoms: C_21  and  C_22
REMARK   10  A    between atoms: C_22  and  C_23
REMARK                            x       y       z     vdW  Elec       q    Type
REMARK                         _______ _______ _______ _____ _____    ______ ____
ROOT
ATOM      1  C   UNL     1       2.929   1.345  -3.063  0.00  0.00    +0.000 C 
ENDROOT
BRANCH   1   2
ATOM      2  C   UNL     1       1.740   0.424  -3.134  0.00  0.00    +0.000 A 
ATOM      3  C   UNL     1       1.898  -0.961  -3.208  0.00  0.00    +0.000 A 
ATOM      4  C   UNL     1       0.779  -1.805  -3.309  0.00  0.00    +0.000 A 
ATOM      5  C   UNL     1      -0.539  -1.313  -3.327  0.00  0.00    +0.000 A 
ATOM      6  C   UNL     1      -0.663   0.084  -3.256  0.00  0.00    +0.000 A 
ATOM      7  C   UNL     1       0.446   0.939  -3.180  0.00  0.00    +0.000 A 
BRANCH   5   8
ATOM      8  N   UNL     1      -1.635  -2.164  -3.486  0.00  0.00    +0.000 N 
ATOM      9  C   UNL     1      -1.630  -3.457  -2.793  0.00  0.00    +0.000 C 
BRANCH   8  10
ATOM     10  C   UNL     1      -2.987  -1.620  -3.740  0.00  0.00    +0.000 C 
BRANCH  10  11
ATOM     11  C   UNL     1      -3.102  -1.015  -5.148  0.00  0.00    +0.000 C 
BRANCH  11  12
ATOM     12  C   UNL     1      -4.474  -0.472  -5.440  0.00  0.00    +0.000 A 
ATOM     13  C   UNL     1      -4.818   0.852  -5.153  0.00  0.00    +0.000 A 
ATOM     14  C   UNL     1      -6.092   1.318  -5.468  0.00  0.00    +0.000 A 
ATOM     15  C   UNL     1      -6.987   0.436  -6.052  0.00  0.00    +0.000 A 
ATOM     16  N   UNL     1      -6.698  -0.853  -6.326  0.00  0.00    +0.000 NA
ATOM     17  C   UNL     1      -5.452  -1.276  -6.017  0.00  0.00    +0.000 A 
ENDBRANCH  11  12
ENDBRANCH  10  11
ENDBRANCH   8  10
ENDBRANCH   5   8
ENDBRANCH   1   2
BRANCH   1  20
ATOM     18  C   UNL     1       4.506   2.471  -4.578  0.00  0.00    +0.000 C 
ATOM     19  O   UNL     1       5.116   2.959  -3.625  0.00  0.00    +0.000 OA
ATOM     20  N   UNL     1       3.417   1.669  -4.381  0.00  0.00    +0.000 N 
ATOM     21  H   UNL     1       2.883   1.334  -5.171  0.00  0.00    +0.000 HD
BRANCH  18  29
ATOM     22  C   UNL     1       3.362   1.372  -7.633  0.00  0.00    +0.000 A 
ATOM     23  N   UNL     1       3.141   1.090  -8.932  0.00  0.00    +0.000 NA
ATOM     24  C   UNL     1       3.949   1.642  -9.841  0.00  0.00    +0.000 A 
ATOM     25  N   UNL     1       4.970   2.462  -9.611  0.00  0.00    +0.000 NA
ATOM     26  C   UNL     1       5.153   2.722  -8.305  0.00  0.00    +0.000 A 
ATOM     27  S   UNL     1       6.411   3.756  -7.827  0.00  0.00    +0.000 S 
ATOM     28  C   UNL     1       6.007   3.568  -6.187  0.00  0.00    +0.000 A 
ATOM     29  C   UNL     1       4.923   2.726  -5.966  0.00  0.00    +0.000 A 
ATOM     30  C   UNL     1       4.406   2.229  -7.240  0.00  0.00    +0.000 A 
BRANCH  22  32
ATOM     31  C   UNL     1       1.850  -0.347  -7.138  0.00  0.00    +0.000 C 
ATOM     32  O   UNL     1       2.496   0.845  -6.698  0.00  0.00    +0.000 OA
ENDBRANCH  22  32
ENDBRANCH  18  29
ENDBRANCH   1  20
TORSDOF 8
