REMARK  Name = 
REMARK  8 active torsions:
REMARK  status: ('A' for Active; 'I' for Inactive)
REMARK    1  A    between atoms: C_1  and  N_2
REMARK    2  A    between atoms: N_2  and  C_3
REMARK    3  A    between atoms: N_2  and  C_4
REMARK    4  A    between atoms: C_4  and  C_5
REMARK    5  A    between atoms: C_8  and  C_9
REMARK    6  A    between atoms: C_10  and  C_11
REMARK    7  A    between atoms: CA_14  and  C_15
REMARK    8  A    between atoms: C_15  and  OXT_17
REMARK                            x       y       z     vdW  Elec       q    Type
REMARK                         _______ _______ _______ _____ _____    ______ ____
ROOT
ATOM      1  C   UNL     1       8.763   1.456   0.331  0.00  0.00    +0.000 C 
ATOM      2  C   UNL     1       9.531   2.460   0.787  0.00  0.00    +0.000 C 
ENDROOT
BRANCH   1   6
ATOM      3  C   UNL     1       4.472   1.257   0.181  0.00  0.00    +0.000 A 
ATOM      4  C   UNL     1       5.115   2.502   0.137  0.00  0.00    +0.000 A 
ATOM      5  C   UNL     1       6.511   2.589   0.213  0.00  0.00    +0.000 A 
ATOM      6  C   UNL     1       7.291   1.434   0.348  0.00  0.00    +0.000 A 
ATOM      7  C   UNL     1       6.644   0.193   0.410  0.00  0.00    +0.000 A 
ATOM      8  C   UNL     1       5.250   0.104   0.338  0.00  0.00    +0.000 A 
BRANCH   3   9
ATOM      9  C   UNL     1       2.967   1.153   0.018  0.00  0.00    +0.000 C 
BRANCH   9  11
ATOM     10  C   UNL     1       3.005   0.983  -2.411  0.00  0.00    +0.000 C 
ATOM     11  N   UNL     1       2.477   1.715  -1.255  0.00  0.00    +0.000 NA
ATOM     12  C   UNL     1       1.013   1.686  -1.293  0.00  0.00    +0.000 C 
ENDBRANCH   9  11
ENDBRANCH   3   9
ENDBRANCH   1   6
BRANCH   2  13
ATOM     13  C   UNL     1      11.001   2.456   0.736  0.00  0.00    +0.000 A 
ATOM     14  C   UNL     1      11.723   1.801  -0.269  0.00  0.00    +0.000 A 
ATOM     15  C   UNL     1      13.116   1.858  -0.284  0.00  0.00    +0.000 A 
ATOM     16  CA  UNL     1      13.751   2.589   0.707  0.00  0.00    +0.000 A 
ATOM     17  N   UNL     1      13.099   3.262   1.700  0.00  0.00    +0.000 NA
ATOM     18  C   UNL     1      11.743   3.177   1.678  0.00  0.00    +0.000 A 
BRANCH  16  19
ATOM     19  C   UNL     1      15.241   2.684   0.723  0.00  0.00    +0.000 C 
ATOM     20  O   UNL     1      15.981   2.149  -0.086  0.00  0.00    +0.000 OA
BRANCH  19  21
ATOM     21  OXT UNL     1      15.665   3.445   1.760  0.00  0.00    +0.000 OA
ATOM     22  HXT UNL     1      14.874   3.758   2.262  0.00  0.00    +0.000 HD
ENDBRANCH  19  21
ENDBRANCH  16  19
ENDBRANCH   2  13
TORSDOF 6
