REMARK  Name = 
REMARK  5 active torsions:
REMARK  status: ('A' for Active; 'I' for Inactive)
REMARK    1  A    between atoms: C_1  and  C_2
REMARK    2  A    between atoms: C_2  and  N_3
REMARK    3  A    between atoms: C_2  and  C_13
REMARK    4  A    between atoms: N_3  and  C_4
REMARK    5  A    between atoms: C_8  and  C_9
REMARK                            x       y       z     vdW  Elec       q    Type
REMARK                         _______ _______ _______ _____ _____    ______ ____
ROOT
ATOM      1  C   UNL     1       0.454   1.446   0.214  0.00  0.00    +0.000 A 
ATOM      2  C   UNL     1       1.074   2.697   0.279  0.00  0.00    +0.000 A 
ATOM      3  N   UNL     1       0.446   3.879   0.514  0.00  0.00    +0.000 NA
ATOM      4  C   UNL     1      -0.892   3.825   0.682  0.00  0.00    +0.000 A 
ATOM      5  C   UNL     1      -1.628   2.654   0.589  0.00  0.00    +0.000 A 
ATOM      6  C   UNL     1      -0.941   1.456   0.350  0.00  0.00    +0.000 A 
ENDROOT
BRANCH   5   7
ATOM      7  C   UNL     1      -3.099   2.733   0.725  0.00  0.00    +0.000 C 
ATOM      8  N   UNL     1      -3.775   1.603   1.088  0.00  0.00    +0.000 N 
ATOM      9  O   UNL     1      -3.696   3.791   0.537  0.00  0.00    +0.000 OA
ATOM     10  H   UNL     1      -3.323   0.783   1.456  0.00  0.00    +0.000 HD
ATOM     11  H   UNL     1      -4.769   1.713   1.242  0.00  0.00    +0.000 HD
ENDBRANCH   5   7
BRANCH   1  12
ATOM     12  N   UNL     1       1.118   0.232   0.133  0.00  0.00    +0.000 N 
ATOM     13  H   UNL     1       0.568  -0.581  -0.117  0.00  0.00    +0.000 HD
BRANCH  12  15
ATOM     14  C   UNL     1       3.079   0.090   1.589  0.00  0.00    +0.000 C 
ATOM     15  C   UNL     1       2.578   0.078   0.139  0.00  0.00    +0.000 C 
BRANCH  15  16
ATOM     16  C   UNL     1       2.984  -1.236  -0.599  0.00  0.00    +0.000 C 
ATOM     17  C   UNL     1       4.516  -1.436  -0.575  0.00  0.00    +0.000 C 
ATOM     18  C   UNL     1       4.986  -2.604  -1.437  0.00  0.00    +0.000 C 
ATOM     19  C   UNL     1       4.474  -2.482  -2.864  0.00  0.00    +0.000 C 
ATOM     20  C   UNL     1       2.955  -2.409  -2.877  0.00  0.00    +0.000 C 
ATOM     21  C   UNL     1       2.452  -1.232  -2.049  0.00  0.00    +0.000 C 
ENDBRANCH  15  16
ENDBRANCH  12  15
ENDBRANCH   1  12
TORSDOF 4
