REMARK  Name = 
REMARK  8 active torsions:
REMARK  status: ('A' for Active; 'I' for Inactive)
REMARK    1  A    between atoms: C_1  and  C_2
REMARK    2  A    between atoms: C_2  and  O_3
REMARK    3  A    between atoms: C_5  and  N_6
REMARK    4  A    between atoms: C_9  and  C_10
REMARK    5  A    between atoms: C_10  and  C_13
REMARK    6  A    between atoms: C_13  and  N_14
REMARK    7  A    between atoms: N_14  and  C_15
REMARK    8  A    between atoms: C_18  and  C_19
REMARK                            x       y       z     vdW  Elec       q    Type
REMARK                         _______ _______ _______ _____ _____    ______ ____
ROOT
ATOM      1  C   UNL     1       6.828  -4.508   1.674  0.00  0.00    +0.000 C 
ATOM      2  F   UNL     1       5.621  -5.092   1.409  0.00  0.00    +0.000 F 
ATOM      3  F   UNL     1       7.319  -4.130   0.453  0.00  0.00    +0.000 F 
ENDROOT
BRANCH   1   7
ATOM      4  N   UNL     1       4.865  -0.076   2.472  0.00  0.00    +0.000 N 
ATOM      5  C   UNL     1       5.666  -1.124   2.972  0.00  0.00    +0.000 A 
ATOM      6  C   UNL     1       5.829  -2.251   2.174  0.00  0.00    +0.000 A 
ATOM      7  C   UNL     1       6.654  -3.307   2.596  0.00  0.00    +0.000 A 
ATOM      8  C   UNL     1       7.267  -3.182   3.846  0.00  0.00    +0.000 A 
ATOM      9  C   UNL     1       7.049  -2.027   4.581  0.00  0.00    +0.000 A 
ATOM     10  N   UNL     1       6.282  -0.999   4.164  0.00  0.00    +0.000 NA
ATOM     11  H   UNL     1       3.904  -0.402   2.414  0.00  0.00    +0.000 HD
BRANCH   4  15
ATOM     12  C   UNL     1       5.976   3.940   0.942  0.00  0.00    +0.000 C 
ATOM     13  C   UNL     1       5.518   3.206   2.192  0.00  0.00    +0.000 C 
ATOM     14  C   UNL     1       6.312   1.910   2.500  0.00  0.00    +0.000 C 
ATOM     15  C   UNL     1       4.974   1.271   2.948  0.00  0.00    +0.000 C 
ATOM     16  C   UNL     1       4.265   2.293   2.024  0.00  0.00    +0.000 C 
BRANCH  13  17
ATOM     17  O   UNL     1       5.434   4.149   3.285  0.00  0.00    +0.000 OA
ATOM     18  H   UNL     1       6.341   4.482   3.400  0.00  0.00    +0.000 HD
ENDBRANCH  13  17
ENDBRANCH   4  15
ENDBRANCH   1   7
BRANCH   1  19
ATOM     19  C   UNL     1       7.780  -5.593   2.244  0.00  0.00    +0.000 C 
BRANCH  19  20
ATOM     20  N   UNL     1       7.978  -6.783   1.386  0.00  0.00    +0.000 N 
ATOM     21  H   UNL     1       8.152  -6.534   0.410  0.00  0.00    +0.000 HD
BRANCH  20  22
ATOM     22  C   UNL     1       8.849  -7.766   1.872  0.00  0.00    +0.000 A 
ATOM     23  C   UNL     1       9.037  -8.067   3.217  0.00  0.00    +0.000 A 
ATOM     24  N   UNL     1       9.820  -9.056   3.701  0.00  0.00    +0.000 NA
ATOM     25  C   UNL     1      10.428  -9.816   2.761  0.00  0.00    +0.000 A 
ATOM     26  N   UNL     1      10.307  -9.661   1.432  0.00  0.00    +0.000 NA
ATOM     27  C   UNL     1       9.506  -8.651   1.028  0.00  0.00    +0.000 A 
BRANCH  25  28
ATOM     28  C   UNL     1      11.281 -10.953   3.275  0.00  0.00    +0.000 C 
ATOM     29  N   UNL     1      11.326 -11.091   4.646  0.00  0.00    +0.000 N 
ATOM     30  O   UNL     1      11.904 -11.720   2.559  0.00  0.00    +0.000 OA
ATOM     31  H   UNL     1      10.795 -10.465   5.241  0.00  0.00    +0.000 HD
ATOM     32  H   UNL     1      11.859 -11.853   5.042  0.00  0.00    +0.000 HD
ENDBRANCH  25  28
ENDBRANCH  20  22
ENDBRANCH  19  20
ENDBRANCH   1  19
TORSDOF 7
