REMARK  Name = 
REMARK  6 active torsions:
REMARK  status: ('A' for Active; 'I' for Inactive)
REMARK    1  A    between atoms: N_1  and  C_2
REMARK    2  A    between atoms: C_2  and  C_3
REMARK    3  A    between atoms: C_3  and  C_4
REMARK    4  A    between atoms: C_8  and  O_9
REMARK    5  A    between atoms: O_9  and  C_10
REMARK    6  A    between atoms: C_10  and  C_11
REMARK                            x       y       z     vdW  Elec       q    Type
REMARK                         _______ _______ _______ _____ _____    ______ ____
ROOT
ATOM      1  C   UNL     1       4.461  -1.330   0.254  0.00  0.00    +0.000 A 
ATOM      2  C   UNL     1       5.154  -1.484  -0.944  0.00  0.00    +0.000 A 
ATOM      3  N   UNL     1       6.500  -1.478  -1.046  0.00  0.00    +0.000 NA
ATOM      4  C   UNL     1       7.190  -1.334   0.108  0.00  0.00    +0.000 A 
ATOM      5  C   UNL     1       6.604  -1.213   1.364  0.00  0.00    +0.000 A 
ATOM      6  C   UNL     1       5.214  -1.177   1.424  0.00  0.00    +0.000 A 
ENDROOT
BRANCH   1   7
ATOM      7  C   UNL     1       2.958  -1.309   0.266  0.00  0.00    +0.000 C 
BRANCH   7   8
ATOM      8  C   UNL     1       2.412   0.106   0.053  0.00  0.00    +0.000 C 
BRANCH   8   9
ATOM      9  N   UNL     1       0.951   0.104   0.031  0.00  0.00    +0.000 NA
ATOM     10  H   UNL     1       0.616   1.060  -0.089  0.00  0.00    +0.000 HD
ATOM     11  H   UNL     1       0.593  -0.208   0.933  0.00  0.00    +0.000 HD
ENDBRANCH   8   9
ENDBRANCH   7   8
ENDBRANCH   1   7
BRANCH   5  12
ATOM     12  O   UNL     1       7.274  -1.134   2.553  0.00  0.00    +0.000 OA
BRANCH  12  13
ATOM     13  C   UNL     1       8.594  -1.682   2.527  0.00  0.00    +0.000 C 
BRANCH  13  14
ATOM     14  C   UNL     1       9.026  -2.019   3.931  0.00  0.00    +0.000 A 
ATOM     15  C   UNL     1       9.262  -3.353   4.298  0.00  0.00    +0.000 A 
ATOM     16  C   UNL     1       9.679  -3.673   5.592  0.00  0.00    +0.000 A 
ATOM     17  C   UNL     1       9.863  -2.660   6.531  0.00  0.00    +0.000 A 
ATOM     18 CL   UNL     1      10.381  -3.066   8.122  0.00  0.00    +0.000 Cl
ATOM     19  C   UNL     1       9.628  -1.333   6.174  0.00  0.00    +0.000 A 
ATOM     20  F   UNL     1       9.801  -0.344   7.060  0.00  0.00    +0.000 F 
ATOM     21  C   UNL     1       9.212  -1.008   4.884  0.00  0.00    +0.000 A 
ENDBRANCH  13  14
ENDBRANCH  12  13
ENDBRANCH   5  12
TORSDOF 6
