REMARK  Name = 
REMARK  8 active torsions:
REMARK  status: ('A' for Active; 'I' for Inactive)
REMARK    1  A    between atoms: C_1  and  N_2
REMARK    2  A    between atoms: N_2  and  C_3
REMARK    3  A    between atoms: N_2  and  C_4
REMARK    4  A    between atoms: C_4  and  C_5
REMARK    5  A    between atoms: C_5  and  N_6
REMARK    6  A    between atoms: N_9  and  C_10
REMARK    7  A    between atoms: C_10  and  C_11
REMARK    8  A    between atoms: N_13  and  C_14
REMARK                            x       y       z     vdW  Elec       q    Type
REMARK                         _______ _______ _______ _____ _____    ______ ____
ROOT
ATOM      1  N   UNL     1       4.965   1.814  -2.110  0.00  0.00    +0.000 NA
ATOM      2  C   UNL     1       6.439   1.799  -1.926  0.00  0.00    +0.000 C 
ATOM      3  C   UNL     1       6.920   2.505  -0.635  0.00  0.00    +0.000 C 
ATOM      4  N   UNL     1       6.470   3.909  -0.516  0.00  0.00    +0.000 NA
ATOM      5  C   UNL     1       4.998   3.935  -0.678  0.00  0.00    +0.000 C 
ATOM      6  C   UNL     1       4.478   3.199  -1.941  0.00  0.00    +0.000 C 
ENDROOT
BRANCH   1   7
ATOM      7  C   UNL     1       4.360   0.858  -1.159  0.00  0.00    +0.000 C 
BRANCH   7   8
ATOM      8  C   UNL     1       2.830   0.668  -1.250  0.00  0.00    +0.000 C 
BRANCH   8  10
ATOM      9  C   UNL     1       0.856  -0.377  -0.341  0.00  0.00    +0.000 C 
ATOM     10  N   UNL     1       2.314  -0.297  -0.252  0.00  0.00    +0.000 NA
ATOM     11  C   UNL     1       2.901  -1.629  -0.409  0.00  0.00    +0.000 C 
ENDBRANCH   8  10
ENDBRANCH   7   8
ENDBRANCH   1   7
BRANCH   4  12
ATOM     12  C   UNL     1       7.106   4.803  -1.502  0.00  0.00    +0.000 C 
BRANCH  12  13
ATOM     13  C   UNL     1       8.598   4.770  -1.364  0.00  0.00    +0.000 A 
ATOM     14  C   UNL     1       9.488   4.246  -2.285  0.00  0.00    +0.000 A 
ATOM     15  N   UNL     1      10.746   4.319  -1.749  0.00  0.00    +0.000 N 
ATOM     16  C   UNL     1      11.928   3.754  -2.363  0.00  0.00    +0.000 C 
ATOM     17  C   UNL     1      10.709   4.956  -0.531  0.00  0.00    +0.000 A 
ATOM     18  C   UNL     1      11.723   5.298   0.366  0.00  0.00    +0.000 A 
ATOM     19  C   UNL     1      11.298   5.921   1.532  0.00  0.00    +0.000 A 
ATOM     20  N   UNL     1      10.014   6.195   1.844  0.00  0.00    +0.000 NA
ATOM     21  C   UNL     1       9.044   5.846   0.964  0.00  0.00    +0.000 A 
ATOM     22  C   UNL     1       9.367   5.237  -0.258  0.00  0.00    +0.000 A 
ENDBRANCH  12  13
ENDBRANCH   4  12
TORSDOF 5
