REMARK  Name = 
REMARK  5 active torsions:
REMARK  status: ('A' for Active; 'I' for Inactive)
REMARK    1  A    between atoms: C_2  and  C_4
REMARK    2  A    between atoms: C_8  and  O_9
REMARK    3  A    between atoms: O_9  and  C_10
REMARK    4  A    between atoms: C_10  and  C_11
REMARK    5  A    between atoms: C_15  and  N_16
REMARK                            x       y       z     vdW  Elec       q    Type
REMARK                         _______ _______ _______ _____ _____    ______ ____
ROOT
ATOM      1  C   UNL     1       2.078  -0.132   5.271  0.00  0.00    +0.000 C 
ENDROOT
BRANCH   1   2
ATOM      2  C   UNL     1       1.917  -0.209   6.770  0.00  0.00    +0.000 A 
ATOM      3  C   UNL     1       1.673   0.956   7.489  0.00  0.00    +0.000 A 
ATOM      4  N   UNL     1       1.430   0.962   8.810  0.00  0.00    +0.000 NA
ATOM      5  C   UNL     1       1.469  -0.261   9.392  0.00  0.00    +0.000 A 
ATOM      6  C   UNL     1       1.739  -1.459   8.716  0.00  0.00    +0.000 A 
ATOM      7  N   UNL     1       1.969  -1.427   7.382  0.00  0.00    +0.000 NA
BRANCH   6   8
ATOM      8  N   UNL     1       1.793  -2.653   9.397  0.00  0.00    +0.000 N 
ATOM      9  C   UNL     1       2.665  -3.736   8.937  0.00  0.00    +0.000 C 
ATOM     10  C   UNL     1       1.858  -4.994   8.595  0.00  0.00    +0.000 C 
ATOM     11  O   UNL     1       0.969  -5.363   9.665  0.00  0.00    +0.000 OA
ATOM     12  C   UNL     1       0.037  -4.302   9.917  0.00  0.00    +0.000 C 
ATOM     13  C   UNL     1       0.753  -3.016  10.361  0.00  0.00    +0.000 C 
ENDBRANCH   6   8
ENDBRANCH   1   2
BRANCH   1  14
ATOM     14  O   UNL     1       3.448   0.093   4.937  0.00  0.00    +0.000 OA
BRANCH  14  19
ATOM     15  C   UNL     1       3.342   0.180   1.231  0.00  0.00    +0.000 A 
ATOM     16  C   UNL     1       4.703   0.370   1.031  0.00  0.00    +0.000 A 
ATOM     17  N   UNL     1       5.593   0.492   2.043  0.00  0.00    +0.000 NA
ATOM     18  C   UNL     1       5.097   0.390   3.301  0.00  0.00    +0.000 A 
ATOM     19  C   UNL     1       3.754   0.181   3.607  0.00  0.00    +0.000 A 
ATOM     20  C   UNL     1       2.862   0.079   2.542  0.00  0.00    +0.000 A 
BRANCH  15  22
ATOM     21  N   UNL     1       1.171   0.483   0.191  0.00  0.00    +0.000 N 
ATOM     22  C   UNL     1       2.460   0.051   0.053  0.00  0.00    +0.000 C 
ATOM     23  O   UNL     1       2.871  -0.400  -1.008  0.00  0.00    +0.000 OA
ATOM     24  H   UNL     1       0.608   0.475  -0.652  0.00  0.00    +0.000 HD
ATOM     25  H   UNL     1       0.883   1.104   0.932  0.00  0.00    +0.000 HD
ENDBRANCH  15  22
ENDBRANCH  14  19
ENDBRANCH   1  14
TORSDOF 5
