REMARK  Name = 
REMARK  5 active torsions:
REMARK  status: ('A' for Active; 'I' for Inactive)
REMARK    1  A    between atoms: C_2  and  C_4
REMARK    2  A    between atoms: C_7  and  O_8
REMARK    3  A    between atoms: O_8  and  C_9
REMARK    4  A    between atoms: C_9  and  C_10
REMARK    5  A    between atoms: C_14  and  C_15
REMARK                            x       y       z     vdW  Elec       q    Type
REMARK                         _______ _______ _______ _____ _____    ______ ____
ROOT
ATOM      1  C   UNL     1       6.963   6.015  -2.163  0.00  0.00    +0.000 A 
ATOM      2  N   UNL     1       6.105   7.041  -1.998  0.00  0.00    +0.000 NA
ATOM      3  C   UNL     1       6.616   8.275  -2.137  0.00  0.00    +0.000 A 
ATOM      4  C   UNL     1       7.938   8.522  -2.417  0.00  0.00    +0.000 A 
ATOM      5  C   UNL     1       8.761   7.419  -2.558  0.00  0.00    +0.000 A 
ATOM      6  N   UNL     1       8.278   6.160  -2.441  0.00  0.00    +0.000 NA
ENDROOT
BRANCH   5   7
ATOM      7  C   UNL     1      10.204   7.537  -2.853  0.00  0.00    +0.000 A 
ATOM      8  C   UNL     1      10.881   6.551  -3.579  0.00  0.00    +0.000 A 
ATOM      9  C   UNL     1      12.226   6.726  -3.863  0.00  0.00    +0.000 A 
ATOM     10  N   UNL     1      12.946   7.800  -3.475  0.00  0.00    +0.000 NA
ATOM     11  C   UNL     1      12.306   8.735  -2.761  0.00  0.00    +0.000 A 
ATOM     12  N   UNL     1      13.044   9.856  -2.389  0.00  0.00    +0.000 N 
ATOM     13  C   UNL     1      10.959   8.644  -2.434  0.00  0.00    +0.000 A 
ATOM     14  H   UNL     1      14.001   9.691  -2.692  0.00  0.00    +0.000 HD
ATOM     15  H   UNL     1      12.990  10.029  -1.393  0.00  0.00    +0.000 HD
ENDBRANCH   5   7
BRANCH   1  16
ATOM     16  C   UNL     1       6.409   4.612  -2.039  0.00  0.00    +0.000 C 
BRANCH  16  17
ATOM     17  O   UNL     1       5.965   4.172  -3.323  0.00  0.00    +0.000 OA
BRANCH  17  21
ATOM     18  C   UNL     1       4.139   0.528  -3.284  0.00  0.00    +0.000 A 
ATOM     19  C   UNL     1       3.841   1.511  -4.202  0.00  0.00    +0.000 A 
ATOM     20  N   UNL     1       4.437   2.723  -4.219  0.00  0.00    +0.000 NA
ATOM     21  C   UNL     1       5.337   2.954  -3.249  0.00  0.00    +0.000 A 
ATOM     22  N   UNL     1       5.690   2.078  -2.292  0.00  0.00    +0.000 NA
ATOM     23  C   UNL     1       5.072   0.875  -2.332  0.00  0.00    +0.000 A 
BRANCH  18  25
ATOM     24  N   UNL     1       2.999  -1.284  -4.441  0.00  0.00    +0.000 N 
ATOM     25  C   UNL     1       3.505  -0.797  -3.266  0.00  0.00    +0.000 C 
ATOM     26  O   UNL     1       3.457  -1.458  -2.236  0.00  0.00    +0.000 OA
ATOM     27  H   UNL     1       2.648  -2.235  -4.418  0.00  0.00    +0.000 HD
ATOM     28  H   UNL     1       3.223  -0.902  -5.349  0.00  0.00    +0.000 HD
ENDBRANCH  18  25
ENDBRANCH  17  21
ENDBRANCH  16  17
ENDBRANCH   1  16
TORSDOF 5
