REMARK  Name = 
REMARK  8 active torsions:
REMARK  status: ('A' for Active; 'I' for Inactive)
REMARK    1  A    between atoms: C_1  and  C_2
REMARK    2  A    between atoms: C_2  and  C_3
REMARK    3  A    between atoms: C_2  and  C_15
REMARK    4  A    between atoms: C_3  and  N_4
REMARK    5  A    between atoms: N_4  and  C_5
REMARK    6  A    between atoms: C_8  and  C_9
REMARK    7  A    between atoms: C_19  and  C_20
REMARK    8  A    between atoms: C_20  and  O_21
REMARK                            x       y       z     vdW  Elec       q    Type
REMARK                         _______ _______ _______ _____ _____    ______ ____
ROOT
ATOM      1  N   UNL     1       2.641   1.062  -2.460  0.00  0.00    +0.000 N 
ATOM      2  H   UNL     1       2.629   2.010  -2.078  0.00  0.00    +0.000 HD
ENDROOT
BRANCH   1   3
ATOM      3  C   UNL     1       3.256   1.079  -3.728  0.00  0.00    +0.000 A 
ATOM      4  C   UNL     1       3.702  -0.086  -4.356  0.00  0.00    +0.000 A 
ATOM      5  C   UNL     1       4.274  -0.048  -5.635  0.00  0.00    +0.000 A 
ATOM      6  C   UNL     1       4.382   1.161  -6.327  0.00  0.00    +0.000 A 
ATOM      7  C   UNL     1       3.887   2.328  -5.737  0.00  0.00    +0.000 A 
ATOM      8  C   UNL     1       3.322   2.274  -4.462  0.00  0.00    +0.000 A 
ATOM      9  F   UNL     1       2.857   3.410  -3.917  0.00  0.00    +0.000 F 
BRANCH   6  10
ATOM     10  C   UNL     1       5.000   1.265  -7.679  0.00  0.00    +0.000 C 
ATOM     11  N   UNL     1       5.500   0.132  -8.260  0.00  0.00    +0.000 N 
ATOM     12  O   UNL     1       5.075   2.337  -8.266  0.00  0.00    +0.000 OA
ATOM     13  H   UNL     1       5.493  -0.790  -7.855  0.00  0.00    +0.000 HD
ATOM     14  H   UNL     1       5.921   0.239  -9.173  0.00  0.00    +0.000 HD
ENDBRANCH   6  10
ENDBRANCH   1   3
BRANCH   1  15
ATOM     15  C   UNL     1       3.142   0.089  -1.495  0.00  0.00    +0.000 C 
BRANCH  15  17
ATOM     16  C   UNL     1       1.004  -0.064  -0.075  0.00  0.00    +0.000 C 
ATOM     17  C   UNL     1       2.442   0.332  -0.192  0.00  0.00    +0.000 C 
BRANCH  17  18
ATOM     18  C   UNL     1       2.995   1.365   0.693  0.00  0.00    +0.000 A 
ATOM     19  C   UNL     1       4.292   1.258   1.205  0.00  0.00    +0.000 A 
ATOM     20  C   UNL     1       4.846   2.311   1.935  0.00  0.00    +0.000 A 
ATOM     21  C   UNL     1       4.114   3.482   2.139  0.00  0.00    +0.000 A 
ATOM     22  C   UNL     1       2.807   3.597   1.655  0.00  0.00    +0.000 A 
ATOM     23  C   UNL     1       2.254   2.524   0.945  0.00  0.00    +0.000 A 
BRANCH  22  24
ATOM     24  C   UNL     1       2.018   4.878   1.751  0.00  0.00    +0.000 C 
BRANCH  24  25
ATOM     25  O   UNL     1       2.345   5.621   2.915  0.00  0.00    +0.000 OA
ATOM     26  H   UNL     1       2.221   5.019   3.668  0.00  0.00    +0.000 HD
ENDBRANCH  24  25
ENDBRANCH  22  24
ENDBRANCH  17  18
ENDBRANCH  15  17
ENDBRANCH   1  15
TORSDOF 7
