REMARK  Name = 
REMARK  6 active torsions:
REMARK  status: ('A' for Active; 'I' for Inactive)
REMARK    1  A    between atoms: N_1  and  C_2
REMARK    2  A    between atoms: C_2  and  C_3
REMARK    3  A    between atoms: C_6  and  C_7
REMARK    4  A    between atoms: C_7  and  C_8
REMARK    5  A    between atoms: C_8  and  N_9
REMARK    6  A    between atoms: N_9  and  C_10
REMARK                            x       y       z     vdW  Elec       q    Type
REMARK                         _______ _______ _______ _____ _____    ______ ____
ROOT
ATOM      1  C   UNL     1       4.177   0.791  -5.300  0.00  0.00    +0.000 C 
ENDROOT
BRANCH   1   5
ATOM      2  C   UNL     1       2.462   0.251  -1.476  0.00  0.00    +0.000 A 
ATOM      3  C   UNL     1       3.392  -0.644  -1.988  0.00  0.00    +0.000 A 
ATOM      4  N   UNL     1       3.963  -0.494  -3.207  0.00  0.00    +0.000 NA
ATOM      5  C   UNL     1       3.570   0.585  -3.930  0.00  0.00    +0.000 A 
ATOM      6  C   UNL     1       2.662   1.496  -3.403  0.00  0.00    +0.000 A 
ATOM      7  N   UNL     1       2.089   1.351  -2.181  0.00  0.00    +0.000 NA
BRANCH   2   8
ATOM      8  C   UNL     1       1.823   0.004  -0.131  0.00  0.00    +0.000 C 
BRANCH   8   9
ATOM      9  N   UNL     1       2.796  -0.096   0.961  0.00  0.00    +0.000 NA
ATOM     10  H   UNL     1       2.289  -0.178   1.841  0.00  0.00    +0.000 HD
ATOM     11  H   UNL     1       3.304   0.789   1.017  0.00  0.00    +0.000 HD
ENDBRANCH   8   9
ENDBRANCH   2   8
ENDBRANCH   1   5
BRANCH   1  12
ATOM     12  C   UNL     1       4.543  -0.551  -5.951  0.00  0.00    +0.000 C 
BRANCH  12  13
ATOM     13  N   UNL     1       5.107  -0.422  -7.302  0.00  0.00    +0.000 NA
ATOM     14  H   UNL     1       5.972   0.124  -7.272  0.00  0.00    +0.000 HD
BRANCH  13  15
ATOM     15  C   UNL     1       5.442  -1.732  -7.856  0.00  0.00    +0.000 C 
ATOM     16  C   UNL     1       6.504  -2.538  -7.047  0.00  0.00    +0.000 C 
ATOM     17  O   UNL     1       6.889  -3.744  -7.722  0.00  0.00    +0.000 OA
ATOM     18  C   UNL     1       7.419  -3.428  -9.013  0.00  0.00    +0.000 C 
ATOM     19  C   UNL     1       6.381  -2.673  -9.857  0.00  0.00    +0.000 C 
ATOM     20  N   UNL     1       5.931  -1.432  -9.199  0.00  0.00    +0.000 NA
ATOM     21  H   UNL     1       5.153  -1.034  -9.719  0.00  0.00    +0.000 HD
ENDBRANCH  13  15
ENDBRANCH  12  13
ENDBRANCH   1  12
TORSDOF 6
