REMARK  Name = 
REMARK  7 active torsions:
REMARK  status: ('A' for Active; 'I' for Inactive)
REMARK    1  A    between atoms: C_1  and  C_2
REMARK    2  A    between atoms: C_2  and  C_3
REMARK    3  A    between atoms: C_6  and  C_7
REMARK    4  A    between atoms: C_7  and  C_8
REMARK    5  A    between atoms: C_11  and  C_12
REMARK    6  A    between atoms: C_12  and  N_13
REMARK    7  A    between atoms: C_14  and  C_16
REMARK                            x       y       z     vdW  Elec       q    Type
REMARK                         _______ _______ _______ _____ _____    ______ ____
ROOT
ATOM      1  C   UNL     1       2.251   4.512   4.884  0.00  0.00    +0.000 A 
ATOM      2  C   UNL     1       2.512   3.450   5.761  0.00  0.00    +0.000 A 
ATOM      3  C   UNL     1       1.881   3.378   7.006  0.00  0.00    +0.000 A 
ATOM      4  C   UNL     1       0.993   4.381   7.412  0.00  0.00    +0.000 A 
ATOM      5  C   UNL     1       0.792   5.482   6.568  0.00  0.00    +0.000 A 
ATOM      6  C   UNL     1       1.402   5.540   5.310  0.00  0.00    +0.000 A 
ENDROOT
BRANCH   1   7
ATOM      7  C   UNL     1       2.847   4.512   3.493  0.00  0.00    +0.000 C 
BRANCH   7  11
ATOM      8  C   UNL     1       1.683   1.806   0.272  0.00  0.00    +0.000 C 
ATOM      9  C   UNL     1       0.984   1.615   1.626  0.00  0.00    +0.000 C 
ATOM     10  C   UNL     1       1.717   2.323   2.761  0.00  0.00    +0.000 C 
ATOM     11  C   UNL     1       1.978   3.801   2.428  0.00  0.00    +0.000 C 
ATOM     12  C   UNL     1       2.656   3.898   1.050  0.00  0.00    +0.000 C 
ATOM     13  N   UNL     1       1.877   3.236  -0.000  0.00  0.00    +0.000 NA
ATOM     14  H   UNL     1       2.365   3.348  -0.889  0.00  0.00    +0.000 HD
BRANCH   8  16
ATOM     15  C   UNL     1       1.438   1.239  -2.228  0.00  0.00    +0.000 C 
ATOM     16  C   UNL     1       0.838   1.140  -0.832  0.00  0.00    +0.000 C 
ENDBRANCH   8  16
ENDBRANCH   7  11
ENDBRANCH   1   7
BRANCH   4  17
ATOM     17  C   UNL     1       0.275   4.284   8.733  0.00  0.00    +0.000 C 
BRANCH  17  18
ATOM     18  N   UNL     1       1.034   4.886   9.799  0.00  0.00    +0.000 N 
ATOM     19  C   UNL     1       0.591   4.830  11.097  0.00  0.00    +0.000 C 
ATOM     20  O   UNL     1      -0.437   4.234  11.407  0.00  0.00    +0.000 OA
ATOM     21  H   UNL     1       1.747   5.560   9.539  0.00  0.00    +0.000 HD
BRANCH  19  22
ATOM     22  C   UNL     1       1.439   5.466  12.113  0.00  0.00    +0.000 A 
ATOM     23  C   UNL     1       1.370   5.034  13.431  0.00  0.00    +0.000 A 
ATOM     24  S   UNL     1       2.432   5.859  14.479  0.00  0.00    +0.000 S 
ATOM     25  C   UNL     1       2.986   6.855  13.217  0.00  0.00    +0.000 A 
ATOM     26  N   UNL     1       3.907   7.832  13.452  0.00  0.00    +0.000 NA
ATOM     27  C   UNL     1       4.218   8.534  12.411  0.00  0.00    +0.000 A 
ATOM     28  N   UNL     1       3.699   8.338  11.157  0.00  0.00    +0.000 N 
ATOM     29  C   UNL     1       2.797   7.341  10.865  0.00  0.00    +0.000 A 
ATOM     30  O   UNL     1       2.400   7.156   9.722  0.00  0.00    +0.000 OA
ATOM     31  C   UNL     1       2.395   6.542  12.007  0.00  0.00    +0.000 A 
ATOM     32  H   UNL     1       3.998   8.908  10.381  0.00  0.00    +0.000 HD
ENDBRANCH  19  22
ENDBRANCH  17  18
ENDBRANCH   4  17
TORSDOF 6
