REMARK  Name = 
REMARK  5 active torsions:
REMARK  status: ('A' for Active; 'I' for Inactive)
REMARK    1  A    between atoms: N_1  and  C_2
REMARK    2  A    between atoms: C_2  and  C_3
REMARK    3  A    between atoms: C_3  and  C_4
REMARK    4  A    between atoms: N_14  and  C_15
REMARK    5  A    between atoms: C_15  and  C_16
REMARK                            x       y       z     vdW  Elec       q    Type
REMARK                         _______ _______ _______ _____ _____    ______ ____
ROOT
ATOM      1  C   UNL     1       3.466  -0.498  -1.503  0.00  0.00    +0.000 C 
ATOM      2  C   UNL     1       4.422  -0.478  -2.465  0.00  0.00    +0.000 C 
ATOM      3  N   UNL     1       5.543   0.323  -2.462  0.00  0.00    +0.000 NA
ATOM      4  C   UNL     1       5.564   1.233  -1.537  0.00  0.00    +0.000 C 
ATOM      5  C   UNL     1       6.660   2.209  -1.434  0.00  0.00    +0.000 C 
ATOM      6  C   UNL     1       6.526   3.262  -0.620  0.00  0.00    +0.000 C 
ATOM      7  F   UNL     1       7.549   4.144  -0.583  0.00  0.00    +0.000 F 
ATOM      8  N   UNL     1       5.448   3.559   0.178  0.00  0.00    +0.000 NA
ATOM      9  C   UNL     1       4.509   2.669   0.247  0.00  0.00    +0.000 C 
ATOM     10  C   UNL     1       4.518   1.394  -0.495  0.00  0.00    +0.000 C 
ATOM     11  N   UNL     1       3.544   0.391  -0.400  0.00  0.00    +0.000 N 
ENDROOT
BRANCH   1  12
ATOM     12  C   UNL     1       2.246  -1.388  -1.687  0.00  0.00    +0.000 C 
BRANCH  12  13
ATOM     13  C   UNL     1       2.570  -2.860  -1.985  0.00  0.00    +0.000 C 
BRANCH  13  14
ATOM     14  N   UNL     1       1.359  -3.639  -2.244  0.00  0.00    +0.000 NA
ATOM     15  H   UNL     1       0.946  -3.344  -3.128  0.00  0.00    +0.000 HD
ATOM     16  H   UNL     1       0.659  -3.448  -1.529  0.00  0.00    +0.000 HD
ENDBRANCH  13  14
ENDBRANCH  12  13
ENDBRANCH   1  12
BRANCH  11  17
ATOM     17  C   UNL     1       2.865   0.128   0.886  0.00  0.00    +0.000 C 
BRANCH  17  18
ATOM     18  C   UNL     1       1.610   0.933   1.099  0.00  0.00    +0.000 A 
ATOM     19  C   UNL     1       1.061   1.800   0.148  0.00  0.00    +0.000 A 
ATOM     20  C   UNL     1      -0.021   2.604   0.483  0.00  0.00    +0.000 A 
ATOM     21  C   UNL     1      -0.549   2.497   1.757  0.00  0.00    +0.000 A 
ATOM     22  N   UNL     1      -0.091   1.629   2.681  0.00  0.00    +0.000 NA
ATOM     23  C   UNL     1       0.966   0.867   2.333  0.00  0.00    +0.000 A 
ENDBRANCH  17  18
ENDBRANCH  11  17
TORSDOF 5
