REMARK  Name = 
REMARK  7 active torsions:
REMARK  status: ('A' for Active; 'I' for Inactive)
REMARK    1  A    between atoms: C_1  and  C_2
REMARK    2  A    between atoms: C_2  and  O_3
REMARK    3  A    between atoms: C_2  and  C_4
REMARK    4  A    between atoms: N_12  and  C_13
REMARK    5  A    between atoms: C_13  and  C_14
REMARK    6  A    between atoms: C_17  and  C_18
REMARK    7  A    between atoms: C_18  and  N_19
REMARK                            x       y       z     vdW  Elec       q    Type
REMARK                         _______ _______ _______ _____ _____    ______ ____
ROOT
ATOM      1  C   UNL     1       2.939   0.226  -1.341  0.00  0.00    +0.000 A 
ATOM      2  C   UNL     1       3.344  -0.800  -2.200  0.00  0.00    +0.000 A 
ATOM      3  N   UNL     1       3.749  -0.630  -3.481  0.00  0.00    +0.000 NA
ATOM      4  C   UNL     1       3.752   0.627  -3.934  0.00  0.00    +0.000 A 
ATOM      5  C   UNL     1       3.385   1.717  -3.155  0.00  0.00    +0.000 A 
ATOM      6  C   UNL     1       2.972   1.533  -1.850  0.00  0.00    +0.000 A 
ATOM      7  C   UNL     1       3.508   2.974  -3.947  0.00  0.00    +0.000 C 
ATOM      8  C   UNL     1       4.081   2.458  -5.292  0.00  0.00    +0.000 C 
ATOM      9  N   UNL     1       4.096   1.009  -5.216  0.00  0.00    +0.000 N 
ENDROOT
BRANCH   1  11
ATOM     10  C   UNL     1       2.523  -1.459   0.565  0.00  0.00    +0.000 C 
ATOM     11  C   UNL     1       2.490  -0.012   0.081  0.00  0.00    +0.000 C 
BRANCH  11  12
ATOM     12  O   UNL     1       1.150   0.457   0.235  0.00  0.00    +0.000 OA
ATOM     13  H   UNL     1       0.662   0.211  -0.571  0.00  0.00    +0.000 HD
ENDBRANCH  11  12
ENDBRANCH   1  11
BRANCH   9  14
ATOM     14  C   UNL     1       4.681   0.115  -6.179  0.00  0.00    +0.000 C 
BRANCH  14  15
ATOM     15  C   UNL     1       3.642  -0.296  -7.198  0.00  0.00    +0.000 A 
ATOM     16  C   UNL     1       3.467   0.441  -8.376  0.00  0.00    +0.000 A 
ATOM     17  C   UNL     1       2.430   0.131  -9.260  0.00  0.00    +0.000 A 
ATOM     18  C   UNL     1       1.547  -0.922  -8.985  0.00  0.00    +0.000 A 
ATOM     19  C   UNL     1       1.753  -1.689  -7.830  0.00  0.00    +0.000 A 
ATOM     20  C   UNL     1       2.785  -1.376  -6.942  0.00  0.00    +0.000 A 
BRANCH  18  21
ATOM     21  C   UNL     1       0.352  -1.173  -9.868  0.00  0.00    +0.000 C 
BRANCH  21  22
ATOM     22  N   UNL     1       0.347  -2.517 -10.431  0.00  0.00    +0.000 NA
ATOM     23  H   UNL     1       1.185  -2.635 -10.998  0.00  0.00    +0.000 HD
ATOM     24  H   UNL     1      -0.446  -2.607 -11.061  0.00  0.00    +0.000 HD
ENDBRANCH  21  22
ENDBRANCH  18  21
ENDBRANCH  14  15
ENDBRANCH   9  14
TORSDOF 6
