REMARK  Name = 
REMARK  6 active torsions:
REMARK  status: ('A' for Active; 'I' for Inactive)
REMARK    1  A    between atoms: C_2  and  C_25
REMARK    2  A    between atoms: N_3  and  C_4
REMARK    3  A    between atoms: C_4  and  C_5
REMARK    4  A    between atoms: C_8  and  C_9
REMARK    5  A    between atoms: C_9  and  N_10
REMARK    6  A    between atoms: C_11  and  C_13
REMARK                            x       y       z     vdW  Elec       q    Type
REMARK                         _______ _______ _______ _____ _____    ______ ____
ROOT
ATOM      1  C   UNL     1       3.206  -1.879  -2.990  0.00  0.00    +0.000 A 
ATOM      2  C   UNL     1       4.133  -1.089  -3.684  0.00  0.00    +0.000 A 
ATOM      3  C   UNL     1       5.006  -1.663  -4.615  0.00  0.00    +0.000 A 
ATOM      4  C   UNL     1       4.957  -3.037  -4.888  0.00  0.00    +0.000 A 
ATOM      5  C   UNL     1       4.037  -3.828  -4.185  0.00  0.00    +0.000 A 
ATOM      6  C   UNL     1       3.163  -3.254  -3.256  0.00  0.00    +0.000 A 
ENDROOT
BRANCH   1   7
ATOM      7  C   UNL     1       2.249  -1.254  -2.006  0.00  0.00    +0.000 C 
BRANCH   7  10
ATOM      8  O   UNL     1       0.037  -0.116  -0.738  0.00  0.00    +0.000 OA
ATOM      9  C   UNL     1       0.007  -0.254  -1.958  0.00  0.00    +0.000 C 
ATOM     10  N   UNL     1       1.045  -0.811  -2.663  0.00  0.00    +0.000 N 
ATOM     11  H   UNL     1       1.034  -0.773  -3.669  0.00  0.00    +0.000 HD
BRANCH   9  12
ATOM     12  C   UNL     1      -1.121   0.172  -2.762  0.00  0.00    +0.000 A 
ATOM     13  C   UNL     1      -1.417  -0.002  -4.105  0.00  0.00    +0.000 A 
ATOM     14  C   UNL     1      -2.665   0.615  -4.368  0.00  0.00    +0.000 A 
ATOM     15  C   UNL     1      -3.111   1.152  -3.183  0.00  0.00    +0.000 A 
ATOM     16  N   UNL     1      -2.178   0.875  -2.219  0.00  0.00    +0.000 N 
ATOM     17  H   UNL     1      -2.236   1.139  -1.243  0.00  0.00    +0.000 HD
ENDBRANCH   9  12
ENDBRANCH   7  10
ENDBRANCH   1   7
BRANCH   4  18
ATOM     18  C   UNL     1       5.905  -3.667  -5.877  0.00  0.00    +0.000 C 
BRANCH  18  19
ATOM     19  N   UNL     1       7.116  -4.096  -5.225  0.00  0.00    +0.000 N 
ATOM     20  C   UNL     1       8.166  -4.632  -5.927  0.00  0.00    +0.000 C 
ATOM     21  O   UNL     1       8.155  -4.724  -7.151  0.00  0.00    +0.000 OA
ATOM     22  H   UNL     1       7.059  -4.252  -4.225  0.00  0.00    +0.000 HD
BRANCH  20  23
ATOM     23  C   UNL     1       9.337  -5.032  -5.135  0.00  0.00    +0.000 A 
ATOM     24  C   UNL     1      10.586  -5.116  -5.738  0.00  0.00    +0.000 A 
ATOM     25  S   UNL     1      11.843  -5.512  -4.654  0.00  0.00    +0.000 S 
ATOM     26  C   UNL     1      10.756  -5.640  -3.352  0.00  0.00    +0.000 A 
ATOM     27  N   UNL     1      11.190  -5.970  -2.105  0.00  0.00    +0.000 NA
ATOM     28  C   UNL     1      10.254  -6.063  -1.221  0.00  0.00    +0.000 A 
ATOM     29  N   UNL     1       8.922  -5.857  -1.470  0.00  0.00    +0.000 N 
ATOM     30  C   UNL     1       8.440  -5.503  -2.707  0.00  0.00    +0.000 A 
ATOM     31  O   UNL     1       7.244  -5.301  -2.889  0.00  0.00    +0.000 OA
ATOM     32  C   UNL     1       9.453  -5.380  -3.738  0.00  0.00    +0.000 A 
ATOM     33  H   UNL     1       8.237  -5.945  -0.734  0.00  0.00    +0.000 HD
ENDBRANCH  20  23
ENDBRANCH  18  19
ENDBRANCH   4  18
TORSDOF 6
