REMARK  Name = 
REMARK  9 active torsions:
REMARK  status: ('A' for Active; 'I' for Inactive)
REMARK    1  A    between atoms: C_1  and  N_2
REMARK    2  A    between atoms: N_2  and  C_3
REMARK    3  A    between atoms: N_2  and  C_4
REMARK    4  A    between atoms: C_4  and  C_5
REMARK    5  A    between atoms: C_8  and  C_9
REMARK    6  A    between atoms: C_9  and  C_10
REMARK    7  A    between atoms: C_13  and  C_14
REMARK    8  A    between atoms: C_14  and  N_15
REMARK    9  A    between atoms: C_16  and  C_18
REMARK                            x       y       z     vdW  Elec       q    Type
REMARK                         _______ _______ _______ _____ _____    ______ ____
ROOT
ATOM      1  C   UNL     1       9.148  -2.723  -0.657  0.00  0.00    +0.000 A 
ATOM      2  C   UNL     1       9.444  -4.055  -0.928  0.00  0.00    +0.000 A 
ATOM      3  C   UNL     1      10.121  -4.368  -2.107  0.00  0.00    +0.000 A 
ATOM      4  C   UNL     1      10.463  -3.354  -3.003  0.00  0.00    +0.000 A 
ATOM      5  C   UNL     1      10.108  -2.058  -2.658  0.00  0.00    +0.000 A 
ATOM      6  N   UNL     1       9.466  -1.723  -1.513  0.00  0.00    +0.000 NA
ENDROOT
BRANCH   1   7
ATOM      7  C   UNL     1       8.504  -2.329   0.650  0.00  0.00    +0.000 C 
BRANCH   7  11
ATOM      8  C   UNL     1       4.402  -0.844   1.197  0.00  0.00    +0.000 C 
ATOM      9  C   UNL     1       4.849  -1.231  -0.220  0.00  0.00    +0.000 C 
ATOM     10  C   UNL     1       6.367  -1.350  -0.348  0.00  0.00    +0.000 C 
ATOM     11  C   UNL     1       6.961  -2.346   0.663  0.00  0.00    +0.000 C 
ATOM     12  C   UNL     1       6.472  -2.053   2.096  0.00  0.00    +0.000 C 
ATOM     13  C   UNL     1       4.958  -1.873   2.195  0.00  0.00    +0.000 C 
BRANCH   8  14
ATOM     14  C   UNL     1       4.798   0.603   1.594  0.00  0.00    +0.000 C 
BRANCH  14  16
ATOM     15  C   UNL     1       2.855   1.743   0.651  0.00  0.00    +0.000 C 
ATOM     16  N   UNL     1       4.314   1.649   0.673  0.00  0.00    +0.000 NA
ATOM     17  C   UNL     1       4.887   2.948   1.037  0.00  0.00    +0.000 C 
ENDBRANCH  14  16
ENDBRANCH   8  14
ENDBRANCH   7  11
ENDBRANCH   1   7
BRANCH   4  18
ATOM     18  C   UNL     1      11.236  -3.643  -4.257  0.00  0.00    +0.000 C 
BRANCH  18  19
ATOM     19  N   UNL     1      12.658  -3.541  -4.033  0.00  0.00    +0.000 N 
ATOM     20  C   UNL     1      13.549  -3.661  -5.069  0.00  0.00    +0.000 C 
ATOM     21  O   UNL     1      13.176  -3.828  -6.228  0.00  0.00    +0.000 OA
ATOM     22  H   UNL     1      12.990  -3.630  -3.077  0.00  0.00    +0.000 HD
BRANCH  20  23
ATOM     23  C   UNL     1      14.972  -3.512  -4.738  0.00  0.00    +0.000 A 
ATOM     24  C   UNL     1      15.873  -3.146  -5.730  0.00  0.00    +0.000 A 
ATOM     25  S   UNL     1      17.471  -2.950  -5.168  0.00  0.00    +0.000 S 
ATOM     26  C   UNL     1      17.028  -3.402  -3.589  0.00  0.00    +0.000 A 
ATOM     27  N   UNL     1      17.953  -3.460  -2.594  0.00  0.00    +0.000 NA
ATOM     28  C   UNL     1      17.485  -3.851  -1.454  0.00  0.00    +0.000 A 
ATOM     29  N   UNL     1      16.178  -4.189  -1.221  0.00  0.00    +0.000 N 
ATOM     30  C   UNL     1      15.204  -4.117  -2.188  0.00  0.00    +0.000 A 
ATOM     31  O   UNL     1      14.034  -4.389  -1.938  0.00  0.00    +0.000 OA
ATOM     32  C   UNL     1      15.678  -3.688  -3.490  0.00  0.00    +0.000 A 
ATOM     33  H   UNL     1      15.876  -4.483  -0.304  0.00  0.00    +0.000 HD
ENDBRANCH  20  23
ENDBRANCH  18  19
ENDBRANCH   4  18
TORSDOF 7
