REMARK  Name = 
REMARK  5 active torsions:
REMARK  status: ('A' for Active; 'I' for Inactive)
REMARK    1  A    between atoms: N_1  and  C_2
REMARK    2  A    between atoms: C_2  and  C_3
REMARK    3  A    between atoms: C_7  and  C_8
REMARK    4  A    between atoms: C_8  and  N_9
REMARK    5  A    between atoms: C_15  and  C_16
REMARK                            x       y       z     vdW  Elec       q    Type
REMARK                         _______ _______ _______ _____ _____    ______ ____
ROOT
ATOM      1  N   UNL     1       4.566   0.523   4.665  0.00  0.00    +0.000 N 
ATOM      2  C   UNL     1       5.777   1.102   4.396  0.00  0.00    +0.000 A 
ATOM      3  N   UNL     1       5.755   2.396   4.613  0.00  0.00    +0.000 NA
ATOM      4  C   UNL     1       4.476   2.671   5.029  0.00  0.00    +0.000 A 
ATOM      5  C   UNL     1       3.904   3.897   5.397  0.00  0.00    +0.000 A 
ATOM      6  C   UNL     1       2.550   3.933   5.756  0.00  0.00    +0.000 A 
ATOM      7  C   UNL     1       1.765   2.767   5.756  0.00  0.00    +0.000 A 
ATOM      8  C   UNL     1       2.341   1.527   5.407  0.00  0.00    +0.000 A 
ATOM      9  C   UNL     1       3.697   1.517   5.056  0.00  0.00    +0.000 A 
ENDROOT
BRANCH   7  10
ATOM     10  C   UNL     1       0.296   2.827   6.111  0.00  0.00    +0.000 C 
ATOM     11  F   UNL     1      -0.138   4.075   6.441  0.00  0.00    +0.000 F 
ATOM     12  F   UNL     1      -0.500   2.414   5.086  0.00  0.00    +0.000 F 
ATOM     13  F   UNL     1      -0.016   2.030   7.170  0.00  0.00    +0.000 F 
ENDBRANCH   7  10
BRANCH   1  14
ATOM     14  C   UNL     1       4.290  -0.902   4.591  0.00  0.00    +0.000 C 
BRANCH  14  19
ATOM     15  C   UNL     1       2.847  -1.049   1.032  0.00  0.00    +0.000 A 
ATOM     16  C   UNL     1       2.606  -2.416   0.993  0.00  0.00    +0.000 A 
ATOM     17  N   UNL     1       2.914  -3.266   1.997  0.00  0.00    +0.000 NA
ATOM     18  C   UNL     1       3.457  -2.722   3.108  0.00  0.00    +0.000 A 
ATOM     19  C   UNL     1       3.731  -1.366   3.273  0.00  0.00    +0.000 A 
ATOM     20  C   UNL     1       3.425  -0.527   2.195  0.00  0.00    +0.000 A 
BRANCH  15  21
ATOM     21  C   UNL     1       2.433  -0.153  -0.097  0.00  0.00    +0.000 C 
BRANCH  21  22
ATOM     22  N   UNL     1       1.090   0.364   0.124  0.00  0.00    +0.000 NA
ATOM     23  H   UNL     1       0.865   1.042  -0.603  0.00  0.00    +0.000 HD
ATOM     24  H   UNL     1       1.064   0.876   1.005  0.00  0.00    +0.000 HD
ENDBRANCH  21  22
ENDBRANCH  15  21
ENDBRANCH  14  19
ENDBRANCH   1  14
TORSDOF 5
