REMARK  Name = 
REMARK  4 active torsions:
REMARK  status: ('A' for Active; 'I' for Inactive)
REMARK    1  A    between atoms: C_2  and  C_4
REMARK    2  A    between atoms: C_7  and  N_8
REMARK    3  A    between atoms: N_8  and  C_9
REMARK    4  A    between atoms: C_9  and  C_10
REMARK                            x       y       z     vdW  Elec       q    Type
REMARK                         _______ _______ _______ _____ _____    ______ ____
ROOT
ATOM      1  C   UNL     1       7.526   2.660  -1.183  0.00  0.00    +0.000 A 
ATOM      2  N   UNL     1       6.575   1.678  -1.066  0.00  0.00    +0.000 NA
ATOM      3  C   UNL     1       5.855   1.390  -2.180  0.00  0.00    +0.000 A 
ATOM      4  C   UNL     1       6.005   2.013  -3.418  0.00  0.00    +0.000 A 
ATOM      5  C   UNL     1       7.017   2.971  -3.501  0.00  0.00    +0.000 A 
ATOM      6  C   UNL     1       7.784   3.319  -2.381  0.00  0.00    +0.000 A 
ATOM      7 CL   UNL     1       8.961   4.559  -2.599  0.00  0.00    +0.000 Cl
ENDROOT
BRANCH   1   9
ATOM      8  N   UNL     1       7.840   2.230   1.188  0.00  0.00    +0.000 N 
ATOM      9  C   UNL     1       8.246   2.970   0.106  0.00  0.00    +0.000 C 
ATOM     10  O   UNL     1       9.124   3.811   0.238  0.00  0.00    +0.000 OA
ATOM     11  H   UNL     1       8.266   2.395   2.089  0.00  0.00    +0.000 HD
ATOM     12  H   UNL     1       7.102   1.543   1.081  0.00  0.00    +0.000 HD
ENDBRANCH   1   9
BRANCH   4  13
ATOM     13  N   UNL     1       5.157   1.699  -4.495  0.00  0.00    +0.000 N 
ATOM     14  H   UNL     1       4.484   0.960  -4.324  0.00  0.00    +0.000 HD
BRANCH  13  15
ATOM     15  C   UNL     1       4.887   2.597  -5.636  0.00  0.00    +0.000 C 
ATOM     16  C   UNL     1       4.728   4.096  -5.426  0.00  0.00    +0.000 C 
ATOM     17  C   UNL     1       3.516   3.271  -5.690  0.00  0.00    +0.000 C 
BRANCH  15  18
ATOM     18  C   UNL     1       5.395   2.077  -6.981  0.00  0.00    +0.000 A 
ATOM     19  C   UNL     1       4.673   1.110  -7.708  0.00  0.00    +0.000 A 
ATOM     20  C   UNL     1       5.068   0.708  -8.988  0.00  0.00    +0.000 A 
ATOM     21  C   UNL     1       6.207   1.256  -9.567  0.00  0.00    +0.000 A 
ATOM     22  C   UNL     1       6.962   2.186  -8.857  0.00  0.00    +0.000 A 
ATOM     23  C   UNL     1       6.563   2.583  -7.577  0.00  0.00    +0.000 A 
ENDBRANCH  15  18
ENDBRANCH  13  15
ENDBRANCH   4  13
TORSDOF 4
