REMARK  Name = 
REMARK  7 active torsions:
REMARK  status: ('A' for Active; 'I' for Inactive)
REMARK    1  A    between atoms: C_1  and  C_2
REMARK    2  A    between atoms: C_2  and  N_3
REMARK    3  A    between atoms: C_2  and  C_17
REMARK    4  A    between atoms: C_4  and  C_6
REMARK    5  A    between atoms: N_12  and  C_13
REMARK    6  A    between atoms: C_20  and  O_21
REMARK    7  A    between atoms: O_21  and  C_22
REMARK                            x       y       z     vdW  Elec       q    Type
REMARK                         _______ _______ _______ _____ _____    ______ ____
ROOT
ATOM      1  C   UNL     1       2.945   0.709   1.185  0.00  0.00    +0.000 C 
ATOM      2  C   UNL     1       2.531  -0.214   0.033  0.00  0.00    +0.000 C 
ENDROOT
BRANCH   2   3
ATOM      3  C   UNL     1       3.139  -1.596   0.145  0.00  0.00    +0.000 A 
ATOM      4  C   UNL     1       3.513  -2.312  -0.999  0.00  0.00    +0.000 A 
ATOM      5  C   UNL     1       4.199  -3.522  -0.870  0.00  0.00    +0.000 A 
ATOM      6  C   UNL     1       4.473  -3.984   0.407  0.00  0.00    +0.000 A 
ATOM      7  N   UNL     1       4.011  -3.386   1.524  0.00  0.00    +0.000 NA
ATOM      8  C   UNL     1       3.363  -2.214   1.371  0.00  0.00    +0.000 A 
BRANCH   6   9
ATOM      9  O   UNL     1       5.306  -5.081   0.539  0.00  0.00    +0.000 OA
BRANCH   9  10
ATOM     10  C   UNL     1       6.093  -5.124   1.671  0.00  0.00    +0.000 A 
ATOM     11  C   UNL     1       6.689  -3.998   2.246  0.00  0.00    +0.000 A 
ATOM     12  N   UNL     1       7.481  -4.051   3.348  0.00  0.00    +0.000 NA
ATOM     13  C   UNL     1       7.667  -5.289   3.850  0.00  0.00    +0.000 A 
ATOM     14  C   UNL     1       7.115  -6.417   3.263  0.00  0.00    +0.000 A 
ATOM     15  N   UNL     1       6.333  -6.365   2.158  0.00  0.00    +0.000 NA
ENDBRANCH   9  10
ENDBRANCH   6   9
ENDBRANCH   2   3
BRANCH   2  16
ATOM     16  N   UNL     1       1.091  -0.318  -0.055  0.00  0.00    +0.000 N 
ATOM     17  C   UNL     1       0.317   0.618  -0.694  0.00  0.00    +0.000 C 
ATOM     18  O   UNL     1       0.798   1.539  -1.345  0.00  0.00    +0.000 OA
ATOM     19  H   UNL     1       0.647  -0.930   0.620  0.00  0.00    +0.000 HD
BRANCH  17  20
ATOM     20  C   UNL     1      -1.134   0.407  -0.608  0.00  0.00    +0.000 A 
ATOM     21  C   UNL     1      -1.966   0.885  -1.611  0.00  0.00    +0.000 A 
ATOM     22  S   UNL     1      -3.608   0.488  -1.377  0.00  0.00    +0.000 S 
ATOM     23  C   UNL     1      -3.269  -0.290   0.098  0.00  0.00    +0.000 A 
ATOM     24  N   UNL     1      -4.260  -0.857   0.832  0.00  0.00    +0.000 NA
ATOM     25  C   UNL     1      -3.869  -1.378   1.950  0.00  0.00    +0.000 A 
ATOM     26  N   UNL     1      -2.570  -1.391   2.416  0.00  0.00    +0.000 N 
ATOM     27  C   UNL     1      -2.254  -1.984   3.701  0.00  0.00    +0.000 C 
ATOM     28  C   UNL     1      -1.526  -0.852   1.671  0.00  0.00    +0.000 A 
ATOM     29  O   UNL     1      -0.353  -0.896   2.037  0.00  0.00    +0.000 OA
ATOM     30  C   UNL     1      -1.924  -0.252   0.408  0.00  0.00    +0.000 A 
ENDBRANCH  17  20
ENDBRANCH   2  16
TORSDOF 5
