REMARK  Name = 
REMARK  10 active torsions:
REMARK  status: ('A' for Active; 'I' for Inactive)
REMARK    1  A    between atoms: C_1  and  O_2
REMARK    2  A    between atoms: O_2  and  C_3
REMARK    3  A    between atoms: C_10  and  C_11
REMARK    4  A    between atoms: N_13  and  C_14
REMARK    5  A    between atoms: C_14  and  C_15
REMARK    6  A    between atoms: C_18  and  C_19
REMARK    7  A    between atoms: C_19  and  N_20
REMARK    8  A    between atoms: N_20  and  C_21
REMARK    9  A    between atoms: C_21  and  C_22
REMARK   10  A    between atoms: C_21  and  C_23
REMARK                            x       y       z     vdW  Elec       q    Type
REMARK                         _______ _______ _______ _____ _____    ______ ____
ROOT
ATOM      1  C   UNL     1       1.841  -0.030   3.426  0.00  0.00    +0.000 A 
ATOM      2  C   UNL     1       0.533  -0.470   3.668  0.00  0.00    +0.000 A 
ATOM      3  C   UNL     1      -0.515   0.449   3.825  0.00  0.00    +0.000 A 
ATOM      4  C   UNL     1      -0.281   1.831   3.742  0.00  0.00    +0.000 A 
ATOM      5  C   UNL     1       1.022   2.264   3.465  0.00  0.00    +0.000 A 
ATOM      6  C   UNL     1       2.068   1.347   3.300  0.00  0.00    +0.000 A 
ENDROOT
BRANCH   1   7
ATOM      7  C   UNL     1       2.974  -1.017   3.264  0.00  0.00    +0.000 C 
BRANCH   7  10
ATOM      8  C   UNL     1       4.077  -2.303   1.472  0.00  0.00    +0.000 C 
ATOM      9  O   UNL     1       4.856  -2.832   2.264  0.00  0.00    +0.000 OA
ATOM     10  N   UNL     1       3.131  -1.412   1.886  0.00  0.00    +0.000 N 
ATOM     11  H   UNL     1       2.544  -0.943   1.211  0.00  0.00    +0.000 HD
BRANCH   8  19
ATOM     12  C   UNL     1       2.193  -1.267  -1.214  0.00  0.00    +0.000 A 
ATOM     13  N   UNL     1       1.624  -1.036  -2.411  0.00  0.00    +0.000 NA
ATOM     14  C   UNL     1       2.127  -1.662  -3.474  0.00  0.00    +0.000 A 
ATOM     15  N   UNL     1       3.151  -2.512  -3.496  0.00  0.00    +0.000 NA
ATOM     16  C   UNL     1       3.691  -2.710  -2.279  0.00  0.00    +0.000 A 
ATOM     17  S   UNL     1       5.014  -3.765  -2.115  0.00  0.00    +0.000 S 
ATOM     18  C   UNL     1       5.087  -3.491  -0.439  0.00  0.00    +0.000 A 
ATOM     19  C   UNL     1       4.122  -2.606   0.028  0.00  0.00    +0.000 A 
ATOM     20  C   UNL     1       3.290  -2.137  -1.080  0.00  0.00    +0.000 A 
BRANCH  12  22
ATOM     21  C   UNL     1       0.336  -0.195  -0.287  0.00  0.00    +0.000 C 
ATOM     22  O   UNL     1       1.701  -0.575  -0.128  0.00  0.00    +0.000 OA
ENDBRANCH  12  22
ENDBRANCH   8  19
ENDBRANCH   7  10
ENDBRANCH   1   7
BRANCH   4  23
ATOM     23  C   UNL     1      -1.410   2.836   3.901  0.00  0.00    +0.000 C 
BRANCH  23  24
ATOM     24  N   UNL     1      -2.061   2.718   5.208  0.00  0.00    +0.000 NA
ATOM     25  H   UNL     1      -1.349   2.891   5.921  0.00  0.00    +0.000 HD
BRANCH  24  26
ATOM     26  C   UNL     1      -3.144   3.701   5.444  0.00  0.00    +0.000 C 
ATOM     27  C   UNL     1      -4.305   3.590   4.445  0.00  0.00    +0.000 C 
BRANCH  26  28
ATOM     28  C   UNL     1      -3.701   3.567   6.869  0.00  0.00    +0.000 A 
ATOM     29  C   UNL     1      -4.260   2.364   7.313  0.00  0.00    +0.000 A 
ATOM     30  C   UNL     1      -4.762   2.281   8.611  0.00  0.00    +0.000 A 
ATOM     31  C   UNL     1      -4.701   3.397   9.434  0.00  0.00    +0.000 A 
ATOM     32  C   UNL     1      -4.136   4.553   8.923  0.00  0.00    +0.000 A 
ATOM     33  N   UNL     1      -3.634   4.663   7.669  0.00  0.00    +0.000 NA
ENDBRANCH  26  28
ENDBRANCH  24  26
ENDBRANCH  23  24
ENDBRANCH   4  23
TORSDOF 8
