REMARK  Name = 
REMARK  10 active torsions:
REMARK  status: ('A' for Active; 'I' for Inactive)
REMARK    1  A    between atoms: C_1  and  C_2
REMARK    2  A    between atoms: C_2  and  C_3
REMARK    3  A    between atoms: C_3  and  C_4
REMARK    4  A    between atoms: C_4  and  N_5
REMARK    5  A    between atoms: C_4  and  C_27
REMARK    6  A    between atoms: N_5  and  C_6
REMARK    7  A    between atoms: C_6  and  C_7
REMARK    8  A    between atoms: C_10  and  C_11
REMARK    9  A    between atoms: C_11  and  N_12
REMARK   10  A    between atoms: C_13  and  C_15
REMARK                            x       y       z     vdW  Elec       q    Type
REMARK                         _______ _______ _______ _____ _____    ______ ____
ROOT
ATOM      1  C   UNL     1       0.804  -2.022  -0.916  0.00  0.00    +0.000 A 
ATOM      2  C   UNL     1       0.110  -3.207  -1.149  0.00  0.00    +0.000 A 
ATOM      3  C   UNL     1      -1.265  -3.247  -0.915  0.00  0.00    +0.000 A 
ATOM      4  C   UNL     1      -1.928  -2.106  -0.459  0.00  0.00    +0.000 A 
ATOM      5  C   UNL     1      -1.155  -0.972  -0.244  0.00  0.00    +0.000 A 
ATOM      6  N   UNL     1       0.179  -0.903  -0.465  0.00  0.00    +0.000 NA
ENDROOT
BRANCH   1   7
ATOM      7  C   UNL     1       2.321  -1.973  -0.977  0.00  0.00    +0.000 C 
BRANCH   7   8
ATOM      8  N   UNL     1       2.934  -2.597  -2.166  0.00  0.00    +0.000 NA
ATOM      9  H   UNL     1       2.564  -2.114  -2.987  0.00  0.00    +0.000 HD
BRANCH   8  10
ATOM     10  C   UNL     1       4.410  -2.437  -2.183  0.00  0.00    +0.000 C 
BRANCH  10  11
ATOM     11  C   UNL     1       4.984  -3.017  -3.472  0.00  0.00    +0.000 A 
ATOM     12  C   UNL     1       5.863  -2.259  -4.258  0.00  0.00    +0.000 A 
ATOM     13  C   UNL     1       6.447  -2.846  -5.371  0.00  0.00    +0.000 A 
ATOM     14  N   UNL     1       6.212  -4.115  -5.762  0.00  0.00    +0.000 NA
ATOM     15  C   UNL     1       5.349  -4.827  -5.006  0.00  0.00    +0.000 A 
ATOM     16  C   UNL     1       4.722  -4.331  -3.873  0.00  0.00    +0.000 A 
ENDBRANCH  10  11
BRANCH  10  17
ATOM     17  C   UNL     1       5.099  -3.083  -0.950  0.00  0.00    +0.000 C 
BRANCH  17  19
ATOM     18  C   UNL     1       7.071  -1.453  -0.749  0.00  0.00    +0.000 C 
ATOM     19  C   UNL     1       6.622  -2.904  -0.854  0.00  0.00    +0.000 C 
ENDBRANCH  17  19
ENDBRANCH  10  17
ENDBRANCH   8  10
ENDBRANCH   7   8
ENDBRANCH   1   7
BRANCH   4  20
ATOM     20  C   UNL     1      -3.399  -2.105  -0.160  0.00  0.00    +0.000 C 
BRANCH  20  21
ATOM     21  N   UNL     1      -3.665  -2.481   1.206  0.00  0.00    +0.000 N 
ATOM     22  C   UNL     1      -4.947  -2.640   1.659  0.00  0.00    +0.000 C 
ATOM     23  O   UNL     1      -5.919  -2.529   0.916  0.00  0.00    +0.000 OA
ATOM     24  H   UNL     1      -2.912  -2.359   1.879  0.00  0.00    +0.000 HD
BRANCH  22  25
ATOM     25  C   UNL     1      -5.106  -3.010   3.074  0.00  0.00    +0.000 A 
ATOM     26  C   UNL     1      -6.262  -3.655   3.492  0.00  0.00    +0.000 A 
ATOM     27  S   UNL     1      -6.264  -4.054   5.150  0.00  0.00    +0.000 S 
ATOM     28  C   UNL     1      -4.741  -3.333   5.383  0.00  0.00    +0.000 A 
ATOM     29  N   UNL     1      -4.160  -3.307   6.611  0.00  0.00    +0.000 NA
ATOM     30  C   UNL     1      -3.018  -2.705   6.648  0.00  0.00    +0.000 A 
ATOM     31  N   UNL     1      -2.403  -2.131   5.564  0.00  0.00    +0.000 N 
ATOM     32  C   UNL     1      -2.939  -2.157   4.300  0.00  0.00    +0.000 A 
ATOM     33  O   UNL     1      -2.343  -1.673   3.343  0.00  0.00    +0.000 OA
ATOM     34  C   UNL     1      -4.229  -2.813   4.206  0.00  0.00    +0.000 A 
ATOM     35  H   UNL     1      -1.504  -1.681   5.659  0.00  0.00    +0.000 HD
ENDBRANCH  22  25
ENDBRANCH  20  21
ENDBRANCH   4  20
TORSDOF 9
