REMARK  Name = 
REMARK  4 active torsions:
REMARK  status: ('A' for Active; 'I' for Inactive)
REMARK    1  A    between atoms: C_1  and  C_2
REMARK    2  A    between atoms: C_7  and  C_8
REMARK    3  A    between atoms: N_13  and  C_14
REMARK    4  A    between atoms: C_14  and  C_15
REMARK                            x       y       z     vdW  Elec       q    Type
REMARK                         _______ _______ _______ _____ _____    ______ ____
ROOT
ATOM      1  C   UNL     1       0.999  -0.274  -0.170  0.00  0.00    +0.000 C 
ATOM      2  C   UNL     1       2.479  -0.170  -0.126  0.00  0.00    +0.000 A 
ATOM      3  N   UNL     1       3.267  -1.228  -0.112  0.00  0.00    +0.000 NA
ATOM      4  C   UNL     1       4.539  -0.744  -0.083  0.00  0.00    +0.000 A 
ATOM      5  C   UNL     1       5.754  -1.433  -0.062  0.00  0.00    +0.000 A 
ATOM      6  C   UNL     1       6.916  -0.667  -0.042  0.00  0.00    +0.000 A 
ATOM      7  C   UNL     1       6.812   0.725  -0.035  0.00  0.00    +0.000 A 
ATOM      8  N   UNL     1       5.643   1.453  -0.037  0.00  0.00    +0.000 NA
ATOM      9  C   UNL     1       4.555   0.646  -0.068  0.00  0.00    +0.000 A 
ATOM     10  N   UNL     1       3.221   1.001  -0.088  0.00  0.00    +0.000 N 
ENDROOT
BRANCH   7  11
ATOM     11  C   UNL     1       8.097   1.505  -0.034  0.00  0.00    +0.000 C 
ATOM     12  N   UNL     1       7.979   2.867  -0.038  0.00  0.00    +0.000 N 
ATOM     13  O   UNL     1       9.194   0.963  -0.030  0.00  0.00    +0.000 OA
ATOM     14  H   UNL     1       7.068   3.303  -0.022  0.00  0.00    +0.000 HD
ATOM     15  H   UNL     1       8.822   3.424  -0.031  0.00  0.00    +0.000 HD
ENDBRANCH   7  11
BRANCH  10  16
ATOM     16  C   UNL     1       2.716   2.365  -0.004  0.00  0.00    +0.000 C 
BRANCH  16  17
ATOM     17  C   UNL     1       2.573   2.990  -1.364  0.00  0.00    +0.000 A 
ATOM     18  C   UNL     1       3.629   3.678  -1.969  0.00  0.00    +0.000 A 
ATOM     19  C   UNL     1       3.503   4.125  -3.282  0.00  0.00    +0.000 A 
ATOM     20  C   UNL     1       2.315   3.878  -3.948  0.00  0.00    +0.000 A 
ATOM     21  N   UNL     1       1.251   3.277  -3.378  0.00  0.00    +0.000 NA
ATOM     22  C   UNL     1       1.402   2.857  -2.103  0.00  0.00    +0.000 A 
ENDBRANCH  16  17
ENDBRANCH  10  16
TORSDOF 3
