REMARK  Name = 
REMARK  4 active torsions:
REMARK  status: ('A' for Active; 'I' for Inactive)
REMARK    1  A    between atoms: C_2  and  C_4
REMARK    2  A    between atoms: C_7  and  C_8
REMARK    3  A    between atoms: C_8  and  C_9
REMARK    4  A    between atoms: C_9  and  C_10
REMARK                            x       y       z     vdW  Elec       q    Type
REMARK                         _______ _______ _______ _____ _____    ______ ____
ROOT
ATOM      1  C   UNL     1       2.323   1.262  -1.148  0.00  0.00    +0.000 A 
ATOM      2  C   UNL     1       3.638   0.888  -0.929  0.00  0.00    +0.000 A 
ATOM      3  N   UNL     1       4.685   1.556  -1.491  0.00  0.00    +0.000 NA
ATOM      4  C   UNL     1       4.371   2.625  -2.276  0.00  0.00    +0.000 A 
ATOM      5  C   UNL     1       3.040   2.991  -2.478  0.00  0.00    +0.000 A 
ATOM      6  N   UNL     1       1.991   2.329  -1.931  0.00  0.00    +0.000 NA
ENDROOT
BRANCH   1   8
ATOM      7  N   UNL     1      -0.047   0.889  -0.906  0.00  0.00    +0.000 N 
ATOM      8  C   UNL     1       1.213   0.475  -0.552  0.00  0.00    +0.000 C 
ATOM      9  O   UNL     1       1.402  -0.484   0.195  0.00  0.00    +0.000 OA
ATOM     10  H   UNL     1      -0.855   0.398  -0.547  0.00  0.00    +0.000 HD
ATOM     11  H   UNL     1      -0.161   1.676  -1.532  0.00  0.00    +0.000 HD
ENDBRANCH   1   8
BRANCH   4  12
ATOM     12  C   UNL     1       5.524   3.251  -3.022  0.00  0.00    +0.000 C 
BRANCH  12  13
ATOM     13  C   UNL     1       5.377   4.724  -3.356  0.00  0.00    +0.000 C 
ATOM     14  C   UNL     1       4.638   5.090  -4.639  0.00  0.00    +0.000 C 
ATOM     15  C   UNL     1       6.124   5.251  -4.589  0.00  0.00    +0.000 C 
BRANCH  13  16
ATOM     16  C   UNL     1       5.394   5.725  -2.204  0.00  0.00    +0.000 A 
ATOM     17  C   UNL     1       6.582   6.011  -1.520  0.00  0.00    +0.000 A 
ATOM     18  N   UNL     1       6.777   7.131  -0.782  0.00  0.00    +0.000 NA
ATOM     19  C   UNL     1       5.722   7.969  -0.729  0.00  0.00    +0.000 A 
ATOM     20  C   UNL     1       4.508   7.662  -1.316  0.00  0.00    +0.000 A 
ATOM     21  N   UNL     1       4.315   6.538  -2.045  0.00  0.00    +0.000 NA
ENDBRANCH  13  16
ENDBRANCH  12  13
ENDBRANCH   4  12
TORSDOF 4
