REMARK  Name = 
REMARK  8 active torsions:
REMARK  status: ('A' for Active; 'I' for Inactive)
REMARK    1  A    between atoms: C_1  and  C_2
REMARK    2  A    between atoms: C_2  and  N_3
REMARK    3  A    between atoms: C_2  and  C_17
REMARK    4  A    between atoms: C_4  and  C_6
REMARK    5  A    between atoms: N_12  and  C_13
REMARK    6  A    between atoms: C_20  and  C_21
REMARK    7  A    between atoms: C_21  and  N_22
REMARK    8  A    between atoms: C_23  and  C_25
REMARK                            x       y       z     vdW  Elec       q    Type
REMARK                         _______ _______ _______ _____ _____    ______ ____
ROOT
ATOM      1  C   UNL     1       3.671   0.748   0.696  0.00  0.00    +0.000 C 
ATOM      2  C   UNL     1       2.558  -0.049   0.013  0.00  0.00    +0.000 C 
ENDROOT
BRANCH   2   3
ATOM      3  C   UNL     1       3.034  -1.415  -0.455  0.00  0.00    +0.000 A 
ATOM      4  C   UNL     1       2.385  -2.570   0.006  0.00  0.00    +0.000 A 
ATOM      5  C   UNL     1       2.792  -3.838  -0.421  0.00  0.00    +0.000 A 
ATOM      6  C   UNL     1       3.857  -3.982  -1.316  0.00  0.00    +0.000 A 
ATOM      7  C   UNL     1       4.495  -2.831  -1.796  0.00  0.00    +0.000 A 
ATOM      8  C   UNL     1       4.091  -1.563  -1.367  0.00  0.00    +0.000 A 
BRANCH   6   9
ATOM      9  C   UNL     1       4.303  -5.349  -1.762  0.00  0.00    +0.000 C 
BRANCH   9  10
ATOM     10  N   UNL     1       3.663  -5.760  -2.984  0.00  0.00    +0.000 N 
ATOM     11  C   UNL     1       3.899  -6.999  -3.534  0.00  0.00    +0.000 C 
ATOM     12  O   UNL     1       4.728  -7.788  -3.086  0.00  0.00    +0.000 OA
ATOM     13  H   UNL     1       2.870  -5.246  -3.361  0.00  0.00    +0.000 HD
BRANCH  11  14
ATOM     14  C   UNL     1       3.096  -7.295  -4.806  0.00  0.00    +0.000 C 
ATOM     15  C   UNL     1       3.838  -6.865  -6.057  0.00  0.00    +0.000 C 
ATOM     16  C   UNL     1       2.729  -6.756  -7.085  0.00  0.00    +0.000 C 
ATOM     17  C   UNL     1       1.490  -6.381  -6.284  0.00  0.00    +0.000 C 
ATOM     18  N   UNL     1       1.854  -6.482  -4.867  0.00  0.00    +0.000 NA
ATOM     19  H   UNL     1       1.116  -6.954  -4.343  0.00  0.00    +0.000 HD
ENDBRANCH  11  14
ENDBRANCH   9  10
ENDBRANCH   6   9
ENDBRANCH   2   3
BRANCH   2  20
ATOM     20  N   UNL     1       2.016   0.686  -1.112  0.00  0.00    +0.000 N 
ATOM     21  C   UNL     1       0.990   1.586  -0.996  0.00  0.00    +0.000 C 
ATOM     22  O   UNL     1       0.362   1.745   0.046  0.00  0.00    +0.000 OA
ATOM     23  H   UNL     1       2.596   0.717  -1.942  0.00  0.00    +0.000 HD
BRANCH  21  24
ATOM     24  C   UNL     1       0.642   2.319  -2.220  0.00  0.00    +0.000 A 
ATOM     25  C   UNL     1      -0.655   2.774  -2.411  0.00  0.00    +0.000 A 
ATOM     26  S   UNL     1      -0.877   3.590  -3.893  0.00  0.00    +0.000 S 
ATOM     27  C   UNL     1       0.763   3.402  -4.307  0.00  0.00    +0.000 A 
ATOM     28  N   UNL     1       1.252   3.910  -5.466  0.00  0.00    +0.000 NA
ATOM     29  C   UNL     1       2.520   3.724  -5.640  0.00  0.00    +0.000 A 
ATOM     30  N   UNL     1       3.358   3.063  -4.767  0.00  0.00    +0.000 N 
ATOM     31  C   UNL     1       4.764   2.904  -5.071  0.00  0.00    +0.000 C 
ATOM     32  C   UNL     1       2.883   2.499  -3.587  0.00  0.00    +0.000 A 
ATOM     33  O   UNL     1       3.599   1.852  -2.826  0.00  0.00    +0.000 OA
ATOM     34  C   UNL     1       1.466   2.706  -3.343  0.00  0.00    +0.000 A 
ENDBRANCH  21  24
ENDBRANCH   2  20
TORSDOF 6
