REMARK  Name = 
REMARK  9 active torsions:
REMARK  status: ('A' for Active; 'I' for Inactive)
REMARK    1  A    between atoms: C_1  and  O_2
REMARK    2  A    between atoms: O_2  and  C_3
REMARK    3  A    between atoms: C_5  and  C_6
REMARK    4  A    between atoms: C_6  and  O_7
REMARK    5  A    between atoms: O_7  and  C_8
REMARK    6  A    between atoms: C_8  and  C_9
REMARK    7  A    between atoms: C_17  and  C_18
REMARK    8  A    between atoms: C_18  and  N_19
REMARK    9  A    between atoms: C_20  and  C_22
REMARK                            x       y       z     vdW  Elec       q    Type
REMARK                         _______ _______ _______ _____ _____    ______ ____
ROOT
ATOM      1  C   UNL     1       2.999  -0.915  -0.628  0.00  0.00    +0.000 A 
ATOM      2  C   UNL     1       2.784  -1.212  -1.979  0.00  0.00    +0.000 A 
ATOM      3  C   UNL     1       3.567  -2.168  -2.643  0.00  0.00    +0.000 A 
ATOM      4  C   UNL     1       4.603  -2.800  -1.951  0.00  0.00    +0.000 A 
ATOM      5  C   UNL     1       4.831  -2.505  -0.608  0.00  0.00    +0.000 A 
ATOM      6  C   UNL     1       4.035  -1.563   0.069  0.00  0.00    +0.000 A 
ENDROOT
BRANCH   1   8
ATOM      7  C   UNL     1       0.976   0.321  -0.463  0.00  0.00    +0.000 C 
ATOM      8  O   UNL     1       2.258   0.002   0.071  0.00  0.00    +0.000 OA
ENDBRANCH   1   8
BRANCH   3   9
ATOM      9  C   UNL     1       3.238  -2.564  -4.060  0.00  0.00    +0.000 C 
BRANCH   9  10
ATOM     10  O   UNL     1       2.942  -3.957  -4.152  0.00  0.00    +0.000 OA
BRANCH  10  11
ATOM     11  C   UNL     1       1.752  -4.325  -3.453  0.00  0.00    +0.000 C 
BRANCH  11  12
ATOM     12  C   UNL     1       1.515  -5.790  -3.657  0.00  0.00    +0.000 A 
ATOM     13  C   UNL     1       2.477  -6.737  -3.293  0.00  0.00    +0.000 A 
ATOM     14  C   UNL     1       2.223  -8.090  -3.488  0.00  0.00    +0.000 A 
ATOM     15  C   UNL     1       1.003  -8.454  -4.034  0.00  0.00    +0.000 A 
ATOM     16  N   UNL     1       0.041  -7.572  -4.384  0.00  0.00    +0.000 NA
ATOM     17  C   UNL     1       0.321  -6.263  -4.189  0.00  0.00    +0.000 A 
ENDBRANCH  11  12
ENDBRANCH  10  11
ENDBRANCH   9  10
ENDBRANCH   3   9
BRANCH   6  18
ATOM     18  C   UNL     1       4.282  -1.341   1.543  0.00  0.00    +0.000 C 
BRANCH  18  19
ATOM     19  N   UNL     1       3.508  -2.265   2.342  0.00  0.00    +0.000 N 
ATOM     20  C   UNL     1       3.925  -2.682   3.581  0.00  0.00    +0.000 C 
ATOM     21  O   UNL     1       5.049  -2.442   4.013  0.00  0.00    +0.000 OA
ATOM     22  H   UNL     1       2.521  -2.316   2.113  0.00  0.00    +0.000 HD
BRANCH  20  23
ATOM     23  C   UNL     1       2.965  -3.477   4.360  0.00  0.00    +0.000 A 
ATOM     24  C   UNL     1       3.425  -4.389   5.302  0.00  0.00    +0.000 A 
ATOM     25  S   UNL     1       2.176  -5.204   6.131  0.00  0.00    +0.000 S 
ATOM     26  C   UNL     1       0.977  -4.335   5.292  0.00  0.00    +0.000 A 
ATOM     27  N   UNL     1      -0.342  -4.520   5.564  0.00  0.00    +0.000 NA
ATOM     28  C   UNL     1      -1.138  -3.761   4.887  0.00  0.00    +0.000 A 
ATOM     29  N   UNL     1      -0.734  -2.845   3.951  0.00  0.00    +0.000 N 
ATOM     30  C   UNL     1       0.581  -2.679   3.591  0.00  0.00    +0.000 A 
ATOM     31  O   UNL     1       0.895  -1.939   2.660  0.00  0.00    +0.000 OA
ATOM     32  C   UNL     1       1.522  -3.465   4.362  0.00  0.00    +0.000 A 
ATOM     33  H   UNL     1      -1.410  -2.305   3.432  0.00  0.00    +0.000 HD
ENDBRANCH  20  23
ENDBRANCH  18  19
ENDBRANCH   6  18
TORSDOF 8
