REMARK  Name = 
REMARK  7 active torsions:
REMARK  status: ('A' for Active; 'I' for Inactive)
REMARK    1  A    between atoms: C_1  and  C_2
REMARK    2  A    between atoms: C_2  and  N_3
REMARK    3  A    between atoms: C_2  and  C_16
REMARK    4  A    between atoms: C_4  and  C_6
REMARK    5  A    between atoms: C_19  and  C_20
REMARK    6  A    between atoms: C_20  and  S_21
REMARK    7  A    between atoms: S_21  and  C_22
REMARK                            x       y       z     vdW  Elec       q    Type
REMARK                         _______ _______ _______ _____ _____    ______ ____
ROOT
ATOM      1  C   UNL     1       2.881  -1.276   0.947  0.00  0.00    +0.000 C 
ATOM      2  C   UNL     1       2.540  -0.163  -0.048  0.00  0.00    +0.000 C 
ENDROOT
BRANCH   2   3
ATOM      3  C   UNL     1       3.005  -0.500  -1.461  0.00  0.00    +0.000 A 
ATOM      4  C   UNL     1       3.424   0.520  -2.312  0.00  0.00    +0.000 A 
ATOM      5  C   UNL     1       3.829   0.201  -3.609  0.00  0.00    +0.000 A 
ATOM      6  C   UNL     1       3.815  -1.128  -4.042  0.00  0.00    +0.000 A 
ATOM      7  C   UNL     1       3.352  -2.074  -3.134  0.00  0.00    +0.000 A 
ATOM      8  N   UNL     1       2.945  -1.794  -1.873  0.00  0.00    +0.000 NA
BRANCH   6   9
ATOM      9  C   UNL     1       4.252  -1.533  -5.429  0.00  0.00    +0.000 C 
BRANCH   9  10
ATOM     10  S   UNL     1       5.995  -1.134  -5.731  0.00  0.00    +0.000 S 
BRANCH  10  11
ATOM     11  C   UNL     1       6.162  -1.633  -7.407  0.00  0.00    +0.000 C 
ATOM     12  O   UNL     1       5.216  -2.132  -8.005  0.00  0.00    +0.000 OA
ATOM     13  N   UNL     1       7.402  -1.403  -7.988  0.00  0.00    +0.000 N 
ATOM     14  C   UNL     1       8.573  -0.768  -7.365  0.00  0.00    +0.000 C 
ATOM     15  C   UNL     1       8.902   0.536  -8.099  0.00  0.00    +0.000 C 
ATOM     16  O   UNL     1       9.128   0.288  -9.497  0.00  0.00    +0.000 OA
ATOM     17  C   UNL     1       7.968  -0.303 -10.112  0.00  0.00    +0.000 C 
ATOM     18  C   UNL     1       7.583  -1.622  -9.426  0.00  0.00    +0.000 C 
ENDBRANCH  10  11
ENDBRANCH   9  10
ENDBRANCH   6   9
ENDBRANCH   2   3
BRANCH   2  19
ATOM     19  N   UNL     1       1.112   0.119  -0.038  0.00  0.00    +0.000 N 
ATOM     20  C   UNL     1       0.537   0.990   0.852  0.00  0.00    +0.000 C 
ATOM     21  O   UNL     1       1.216   1.604   1.671  0.00  0.00    +0.000 OA
ATOM     22  H   UNL     1       0.543  -0.434  -0.673  0.00  0.00    +0.000 HD
BRANCH  20  23
ATOM     23  C   UNL     1      -0.924   1.171   0.791  0.00  0.00    +0.000 A 
ATOM     24  C   UNL     1      -1.533   2.046   1.685  0.00  0.00    +0.000 A 
ATOM     25  S   UNL     1      -3.225   2.146   1.513  0.00  0.00    +0.000 S 
ATOM     26  C   UNL     1      -3.215   1.015   0.244  0.00  0.00    +0.000 A 
ATOM     27  N   UNL     1      -4.378   0.627  -0.346  0.00  0.00    +0.000 NA
ATOM     28  C   UNL     1      -4.233  -0.244  -1.288  0.00  0.00    +0.000 A 
ATOM     29  N   UNL     1      -3.030  -0.748  -1.703  0.00  0.00    +0.000 N 
ATOM     30  C   UNL     1      -1.829  -0.364  -1.156  0.00  0.00    +0.000 A 
ATOM     31  O   UNL     1      -0.770  -0.809  -1.585  0.00  0.00    +0.000 OA
ATOM     32  C   UNL     1      -1.935   0.586  -0.064  0.00  0.00    +0.000 A 
ATOM     33  H   UNL     1      -2.980  -1.417  -2.457  0.00  0.00    +0.000 HD
ENDBRANCH  20  23
ENDBRANCH   2  19
TORSDOF 6
