REMARK  Name = 
REMARK  8 active torsions:
REMARK  status: ('A' for Active; 'I' for Inactive)
REMARK    1  A    between atoms: C_1  and  C_2
REMARK    2  A    between atoms: C_2  and  C_3
REMARK    3  A    between atoms: C_2  and  N_4
REMARK    4  A    between atoms: C_2  and  C_5
REMARK    5  A    between atoms: C_5  and  C_6
REMARK    6  A    between atoms: C_9  and  C_10
REMARK    7  A    between atoms: C_10  and  N_11
REMARK    8  A    between atoms: C_16  and  C_17
REMARK                            x       y       z     vdW  Elec       q    Type
REMARK                         _______ _______ _______ _____ _____    ______ ____
ROOT
ATOM      1  C   UNL     1       4.451  -0.262   1.565  0.00  0.00    +0.000 A 
ATOM      2  C   UNL     1       5.239   0.894   1.488  0.00  0.00    +0.000 A 
ATOM      3  C   UNL     1       6.635   0.807   1.450  0.00  0.00    +0.000 A 
ATOM      4  C   UNL     1       7.273  -0.441   1.492  0.00  0.00    +0.000 A 
ATOM      5  C   UNL     1       6.480  -1.583   1.618  0.00  0.00    +0.000 A 
ATOM      6  F   UNL     1       7.055  -2.789   1.716  0.00  0.00    +0.000 F 
ATOM      7  C   UNL     1       5.089  -1.505   1.652  0.00  0.00    +0.000 A 
ENDROOT
BRANCH   1   8
ATOM      8  C   UNL     1       2.941  -0.175   1.501  0.00  0.00    +0.000 C 
BRANCH   8  10
ATOM      9  C   UNL     1       0.668   0.003   2.544  0.00  0.00    +0.000 C 
ATOM     10  C   UNL     1       2.176  -0.054   2.848  0.00  0.00    +0.000 C 
ATOM     11  C   UNL     1       2.575   1.211   3.622  0.00  0.00    +0.000 C 
BRANCH  10  12
ATOM     12  N   UNL     1       2.408  -1.233   3.698  0.00  0.00    +0.000 NA
ATOM     13  H   UNL     1       1.882  -1.142   4.567  0.00  0.00    +0.000 HD
ATOM     14  H   UNL     1       3.391  -1.263   3.971  0.00  0.00    +0.000 HD
ENDBRANCH  10  12
ENDBRANCH   8  10
ENDBRANCH   1   8
BRANCH   4  15
ATOM     15  C   UNL     1       8.768  -0.552   1.382  0.00  0.00    +0.000 C 
BRANCH  15  16
ATOM     16  N   UNL     1       9.221  -0.642  -0.006  0.00  0.00    +0.000 N 
ATOM     17  C   UNL     1       9.473   0.450  -0.804  0.00  0.00    +0.000 A 
ATOM     18  C   UNL     1      10.029   0.003  -1.980  0.00  0.00    +0.000 A 
ATOM     19  C   UNL     1      10.128  -1.411  -1.902  0.00  0.00    +0.000 A 
ATOM     20  C   UNL     1      10.635  -2.396  -2.775  0.00  0.00    +0.000 A 
ATOM     21  C   UNL     1      10.596  -3.746  -2.393  0.00  0.00    +0.000 A 
ATOM     22  C   UNL     1      10.043  -4.112  -1.166  0.00  0.00    +0.000 A 
ATOM     23  C   UNL     1       9.537  -3.150  -0.285  0.00  0.00    +0.000 A 
ATOM     24  C   UNL     1       9.599  -1.800  -0.667  0.00  0.00    +0.000 A 
BRANCH  21  25
ATOM     25  C   UNL     1      11.136  -4.749  -3.265  0.00  0.00    +0.000 C 
ATOM     26  N   UNL     1      11.580  -5.562  -3.965  0.00  0.00    +0.000 NA
ENDBRANCH  21  25
ENDBRANCH  15  16
ENDBRANCH   4  15
TORSDOF 6
