REMARK  Name = 
REMARK  11 active torsions:
REMARK  status: ('A' for Active; 'I' for Inactive)
REMARK    1  A    between atoms: N_1  and  C_2
REMARK    2  A    between atoms: C_2  and  C_3
REMARK    3  A    between atoms: C_3  and  N_4
REMARK    4  A    between atoms: C_3  and  C_20
REMARK    5  A    between atoms: C_5  and  C_7
REMARK    6  A    between atoms: N_13  and  C_14
REMARK    7  A    between atoms: C_14  and  C_15
REMARK    8  A    between atoms: C_15  and  O_16
REMARK    9  A    between atoms: C_23  and  O_24
REMARK   10  A    between atoms: O_24  and  C_25
REMARK   11  A    between atoms: C_25  and  C_26
REMARK                            x       y       z     vdW  Elec       q    Type
REMARK                         _______ _______ _______ _____ _____    ______ ____
ROOT
ATOM      1  C   UNL     1       2.995   0.785   1.156  0.00  0.00    +0.000 C 
ENDROOT
BRANCH   1   2
ATOM      2  C   UNL     1       4.513   0.800   1.325  0.00  0.00    +0.000 A 
ATOM      3  C   UNL     1       5.302   1.799   0.733  0.00  0.00    +0.000 A 
ATOM      4  C   UNL     1       6.678   1.860   0.990  0.00  0.00    +0.000 A 
ATOM      5  C   UNL     1       7.279   0.921   1.831  0.00  0.00    +0.000 A 
ATOM      6  C   UNL     1       6.528  -0.144   2.315  0.00  0.00    +0.000 A 
ATOM      7  C   UNL     1       5.163  -0.205   2.058  0.00  0.00    +0.000 A 
BRANCH   5   8
ATOM      8  O   UNL     1       8.601   1.126   2.146  0.00  0.00    +0.000 OA
BRANCH   8   9
ATOM      9  C   UNL     1       8.983   0.574   3.409  0.00  0.00    +0.000 C 
BRANCH   9  10
ATOM     10  C   UNL     1      10.207   1.282   3.919  0.00  0.00    +0.000 A 
ATOM     11  C   UNL     1      10.179   2.661   4.141  0.00  0.00    +0.000 A 
ATOM     12  C   UNL     1      11.315   3.274   4.640  0.00  0.00    +0.000 A 
ATOM     13  N   UNL     1      12.455   2.614   4.938  0.00  0.00    +0.000 NA
ATOM     14  C   UNL     1      12.457   1.281   4.725  0.00  0.00    +0.000 A 
ATOM     15  C   UNL     1      11.371   0.577   4.229  0.00  0.00    +0.000 A 
ENDBRANCH   9  10
ENDBRANCH   8   9
ENDBRANCH   5   8
ENDBRANCH   1   2
BRANCH   1  16
ATOM     16  N   UNL     1       2.689   0.019  -0.038  0.00  0.00    +0.000 N 
ATOM     17  C   UNL     1       1.435  -0.119  -0.567  0.00  0.00    +0.000 C 
ATOM     18  O   UNL     1       0.462   0.491  -0.136  0.00  0.00    +0.000 OA
ATOM     19  H   UNL     1       3.408  -0.638  -0.309  0.00  0.00    +0.000 HD
BRANCH  17  20
ATOM     20  C   UNL     1       1.337  -1.012  -1.729  0.00  0.00    +0.000 A 
ATOM     21  C   UNL     1       0.287  -0.889  -2.626  0.00  0.00    +0.000 A 
ATOM     22  S   UNL     1       0.425  -1.929  -3.974  0.00  0.00    +0.000 S 
ATOM     23  C   UNL     1       1.863  -2.613  -3.372  0.00  0.00    +0.000 A 
ATOM     24  N   UNL     1       2.536  -3.567  -4.065  0.00  0.00    +0.000 NA
ATOM     25  C   UNL     1       3.630  -3.970  -3.502  0.00  0.00    +0.000 A 
ATOM     26  N   UNL     1       4.107  -3.540  -2.279  0.00  0.00    +0.000 N 
ATOM     27  C   UNL     1       3.385  -2.645  -1.503  0.00  0.00    +0.000 A 
ATOM     28  O   UNL     1       3.711  -2.349  -0.357  0.00  0.00    +0.000 OA
ATOM     29  C   UNL     1       2.214  -2.081  -2.150  0.00  0.00    +0.000 A 
BRANCH  26  30
ATOM     30  C   UNL     1       5.351  -4.077  -1.734  0.00  0.00    +0.000 C 
BRANCH  30  31
ATOM     31  C   UNL     1       5.116  -5.272  -0.810  0.00  0.00    +0.000 C 
BRANCH  31  32
ATOM     32  O   UNL     1       4.565  -6.362  -1.543  0.00  0.00    +0.000 OA
ATOM     33  H   UNL     1       3.604  -6.218  -1.604  0.00  0.00    +0.000 HD
ENDBRANCH  31  32
ENDBRANCH  30  31
ENDBRANCH  26  30
ENDBRANCH  17  20
ENDBRANCH   1  16
BRANCH   1  34
ATOM     34  C   UNL     1       2.242   0.222   2.408  0.00  0.00    +0.000 C 
BRANCH  34  35
ATOM     35  N   UNL     1       2.556   0.916   3.663  0.00  0.00    +0.000 NA
ATOM     36  H   UNL     1       2.067   0.461   4.432  0.00  0.00    +0.000 HD
ATOM     37  H   UNL     1       2.196   1.869   3.614  0.00  0.00    +0.000 HD
ENDBRANCH  34  35
ENDBRANCH   1  34
TORSDOF 11
