REMARK  Name = 
REMARK  5 active torsions:
REMARK  status: ('A' for Active; 'I' for Inactive)
REMARK    1  A    between atoms: C_2  and  C_4
REMARK    2  A    between atoms: C_7  and  O_8
REMARK    3  A    between atoms: O_8  and  C_9
REMARK    4  A    between atoms: C_9  and  C_10
REMARK    5  A    between atoms: C_15  and  C_16
REMARK                            x       y       z     vdW  Elec       q    Type
REMARK                         _______ _______ _______ _____ _____    ______ ____
ROOT
ATOM      1  C   UNL     1       6.103  -6.556  -2.673  0.00  0.00    +0.000 A 
ATOM      2  C   UNL     1       7.484  -6.348  -2.741  0.00  0.00    +0.000 A 
ATOM      3  C   UNL     1       8.351  -7.436  -2.753  0.00  0.00    +0.000 A 
ATOM      4  C   UNL     1       7.842  -8.732  -2.688  0.00  0.00    +0.000 A 
ATOM      5  F   UNL     1       8.727  -9.741  -2.712  0.00  0.00    +0.000 F 
ATOM      6  C   UNL     1       6.464  -8.994  -2.602  0.00  0.00    +0.000 A 
ATOM      7  C   UNL     1       5.609  -7.873  -2.610  0.00  0.00    +0.000 A 
ENDROOT
BRANCH   6   8
ATOM      8  C   UNL     1       5.927 -10.367  -2.472  0.00  0.00    +0.000 A 
ATOM      9  C   UNL     1       6.613 -11.370  -1.793  0.00  0.00    +0.000 A 
ATOM     10  N   UNL     1       6.141 -12.623  -1.620  0.00  0.00    +0.000 NA
ATOM     11  N   UNL     1       4.917 -12.946  -2.116  0.00  0.00    +0.000 NA
ATOM     12  C   UNL     1       4.202 -12.027  -2.790  0.00  0.00    +0.000 A 
ATOM     13  N   UNL     1       2.922 -12.376  -3.230  0.00  0.00    +0.000 N 
ATOM     14  C   UNL     1       4.678 -10.740  -2.982  0.00  0.00    +0.000 A 
ATOM     15  H   UNL     1       2.789 -13.368  -3.044  0.00  0.00    +0.000 HD
ATOM     16  H   UNL     1       2.776 -12.146  -4.206  0.00  0.00    +0.000 HD
ENDBRANCH   6   8
BRANCH   1  17
ATOM     17  C   UNL     1       5.147  -5.387  -2.629  0.00  0.00    +0.000 C 
BRANCH  17  18
ATOM     18  O   UNL     1       4.287  -5.458  -3.766  0.00  0.00    +0.000 OA
BRANCH  18  22
ATOM     19  C   UNL     1       1.331  -2.582  -4.386  0.00  0.00    +0.000 A 
ATOM     20  C   UNL     1       2.147  -2.464  -3.256  0.00  0.00    +0.000 A 
ATOM     21  C   UNL     1       3.151  -3.408  -3.010  0.00  0.00    +0.000 A 
ATOM     22  C   UNL     1       3.345  -4.474  -3.890  0.00  0.00    +0.000 A 
ATOM     23  C   UNL     1       2.522  -4.594  -5.013  0.00  0.00    +0.000 A 
ATOM     24  C   UNL     1       1.514  -3.658  -5.260  0.00  0.00    +0.000 A 
BRANCH  19  26
ATOM     25  N   UNL     1       0.423  -0.330  -4.220  0.00  0.00    +0.000 N 
ATOM     26  C   UNL     1       0.248  -1.608  -4.673  0.00  0.00    +0.000 C 
ATOM     27  O   UNL     1      -0.745  -1.921  -5.317  0.00  0.00    +0.000 OA
ATOM     28  H   UNL     1      -0.270   0.346  -4.516  0.00  0.00    +0.000 HD
ATOM     29  H   UNL     1       1.325   0.021  -3.933  0.00  0.00    +0.000 HD
ENDBRANCH  19  26
ENDBRANCH  18  22
ENDBRANCH  17  18
ENDBRANCH   1  17
TORSDOF 5
