REMARK  Name = 
REMARK  5 active torsions:
REMARK  status: ('A' for Active; 'I' for Inactive)
REMARK    1  A    between atoms: N_1  and  C_2
REMARK    2  A    between atoms: C_2  and  C_3
REMARK    3  A    between atoms: N_6  and  C_7
REMARK    4  A    between atoms: C_7  and  N_8
REMARK    5  A    between atoms: C_14  and  C_15
REMARK                            x       y       z     vdW  Elec       q    Type
REMARK                         _______ _______ _______ _____ _____    ______ ____
ROOT
ATOM      1  N   UNL     1       1.924   5.451   2.523  0.00  0.00    +0.000 N 
ATOM      2  C   UNL     1       2.852   6.422   2.223  0.00  0.00    +0.000 A 
ATOM      3  C   UNL     1       2.173   7.550   1.813  0.00  0.00    +0.000 A 
ATOM      4  C   UNL     1       0.791   7.266   1.895  0.00  0.00    +0.000 A 
ATOM      5  N   UNL     1      -0.258   8.061   1.572  0.00  0.00    +0.000 NA
ATOM      6  C   UNL     1      -1.477   7.487   1.736  0.00  0.00    +0.000 A 
ATOM      7  C   UNL     1      -1.707   6.206   2.223  0.00  0.00    +0.000 A 
ATOM      8  C   UNL     1      -0.619   5.422   2.609  0.00  0.00    +0.000 A 
ATOM      9  C   UNL     1       0.649   5.966   2.386  0.00  0.00    +0.000 A 
ENDROOT
BRANCH   7  10
ATOM     10  C   UNL     1      -3.097   5.706   2.281  0.00  0.00    +0.000 C 
ATOM     11  N   UNL     1      -3.274   4.345   2.280  0.00  0.00    +0.000 N 
ATOM     12  O   UNL     1      -4.056   6.461   2.274  0.00  0.00    +0.000 OA
ATOM     13  H   UNL     1      -2.537   3.700   2.028  0.00  0.00    +0.000 HD
ATOM     14  H   UNL     1      -4.226   4.021   2.177  0.00  0.00    +0.000 HD
ENDBRANCH   7  10
BRANCH   1  15
ATOM     15  C   UNL     1       2.245   4.078   2.920  0.00  0.00    +0.000 C 
BRANCH  15  19
ATOM     16  C   UNL     1       3.335   1.103  -0.071  0.00  0.00    +0.000 C 
ATOM     17  C   UNL     1       4.120   1.270   1.239  0.00  0.00    +0.000 C 
ATOM     18  C   UNL     1       3.325   2.033   2.301  0.00  0.00    +0.000 C 
ATOM     19  N   UNL     1       2.928   3.366   1.823  0.00  0.00    +0.000 NA
ATOM     20  C   UNL     1       2.100   3.254   0.608  0.00  0.00    +0.000 C 
ATOM     21  C   UNL     1       2.806   2.477  -0.510  0.00  0.00    +0.000 C 
BRANCH  16  22
ATOM     22  C   UNL     1       2.242   0.024   0.086  0.00  0.00    +0.000 C 
BRANCH  22  23
ATOM     23  N   UNL     1       1.513  -0.216  -1.156  0.00  0.00    +0.000 NA
ATOM     24  H   UNL     1       0.802  -0.929  -0.997  0.00  0.00    +0.000 HD
ATOM     25  H   UNL     1       2.146  -0.608  -1.853  0.00  0.00    +0.000 HD
ENDBRANCH  22  23
ENDBRANCH  16  22
ENDBRANCH  15  19
ENDBRANCH   1  15
TORSDOF 5
