REMARK  Name = 
REMARK  7 active torsions:
REMARK  status: ('A' for Active; 'I' for Inactive)
REMARK    1  A    between atoms: C_1  and  N_2
REMARK    2  A    between atoms: N_2  and  C_3
REMARK    3  A    between atoms: C_3  and  C_4
REMARK    4  A    between atoms: C_7  and  C_8
REMARK    5  A    between atoms: C_8  and  C_9
REMARK    6  A    between atoms: C_12  and  N_13
REMARK    7  A    between atoms: C_18  and  C_20
REMARK                            x       y       z     vdW  Elec       q    Type
REMARK                         _______ _______ _______ _____ _____    ______ ____
ROOT
ATOM      1  C   UNL     1      -6.441  -1.592  -7.249  0.00  0.00    +0.000 C 
ENDROOT
BRANCH   1   2
ATOM      2  C   UNL     1      -5.027  -2.095  -7.186  0.00  0.00    +0.000 A 
ATOM      3  C   UNL     1      -4.242  -1.868  -6.045  0.00  0.00    +0.000 A 
ATOM      4  C   UNL     1      -2.976  -2.439  -5.937  0.00  0.00    +0.000 A 
ATOM      5  C   UNL     1      -2.487  -3.255  -6.961  0.00  0.00    +0.000 A 
ATOM      6  C   UNL     1      -3.245  -3.426  -8.127  0.00  0.00    +0.000 A 
ATOM      7  C   UNL     1      -4.505  -2.844  -8.242  0.00  0.00    +0.000 A 
BRANCH   5   8
ATOM      8  C   UNL     1      -1.154  -3.944  -6.839  0.00  0.00    +0.000 C 
BRANCH   8   9
ATOM      9  C   UNL     1      -1.022  -4.928  -5.659  0.00  0.00    +0.000 C 
ATOM     10  C   UNL     1      -2.079  -6.049  -5.653  0.00  0.00    +0.000 C 
ATOM     11  C   UNL     1      -1.847  -7.021  -4.489  0.00  0.00    +0.000 C 
ATOM     12  C   UNL     1      -0.437  -7.620  -4.535  0.00  0.00    +0.000 C 
ATOM     13  C   UNL     1       0.627  -6.520  -4.564  0.00  0.00    +0.000 C 
ATOM     14  C   UNL     1       0.386  -5.542  -5.707  0.00  0.00    +0.000 C 
BRANCH  12  15
ATOM     15  N   UNL     1      -0.219  -8.496  -3.385  0.00  0.00    +0.000 NA
ATOM     16  H   UNL     1      -0.264  -7.952  -2.523  0.00  0.00    +0.000 HD
ATOM     17  H   UNL     1       0.727  -8.876  -3.423  0.00  0.00    +0.000 HD
ENDBRANCH  12  15
ENDBRANCH   8   9
ENDBRANCH   5   8
ENDBRANCH   1   2
BRANCH   1  19
ATOM     18  C   UNL     1      -5.581   0.582  -8.226  0.00  0.00    +0.000 C 
ATOM     19  N   UNL     1      -6.692  -0.283  -7.844  0.00  0.00    +0.000 N 
ATOM     20  C   UNL     1      -7.967   0.128  -8.274  0.00  0.00    +0.000 C 
ATOM     21  O   UNL     1      -8.114   1.166  -8.915  0.00  0.00    +0.000 OA
BRANCH  20  22
ATOM     22  C   UNL     1      -9.146  -0.678  -7.919  0.00  0.00    +0.000 A 
ATOM     23  C   UNL     1      -9.385  -1.221  -6.666  0.00  0.00    +0.000 A 
ATOM     24  S   UNL     1     -10.868  -2.057  -6.550  0.00  0.00    +0.000 S 
ATOM     25  C   UNL     1     -11.313  -1.585  -8.120  0.00  0.00    +0.000 A 
ATOM     26  N   UNL     1     -12.546  -1.873  -8.611  0.00  0.00    +0.000 NA
ATOM     27  C   UNL     1     -12.771  -1.388  -9.787  0.00  0.00    +0.000 A 
ATOM     28  N   UNL     1     -11.858  -0.681 -10.532  0.00  0.00    +0.000 N 
ATOM     29  C   UNL     1     -10.549  -0.495 -10.137  0.00  0.00    +0.000 A 
ATOM     30  O   UNL     1      -9.704  -0.098 -10.924  0.00  0.00    +0.000 OA
ATOM     31  C   UNL     1     -10.295  -0.898  -8.762  0.00  0.00    +0.000 A 
ATOM     32  H   UNL     1     -12.075  -0.394 -11.472  0.00  0.00    +0.000 HD
ENDBRANCH  20  22
ENDBRANCH   1  19
TORSDOF 6
