REMARK  Name = 
REMARK  10 active torsions:
REMARK  status: ('A' for Active; 'I' for Inactive)
REMARK    1  A    between atoms: C_1  and  C_2
REMARK    2  A    between atoms: C_2  and  C_3
REMARK    3  A    between atoms: C_2  and  C_20
REMARK    4  A    between atoms: C_3  and  N_4
REMARK    5  A    between atoms: C_9  and  C_10
REMARK    6  A    between atoms: C_13  and  C_14
REMARK    7  A    between atoms: C_14  and  O_16
REMARK    8  A    between atoms: C_24  and  O_25
REMARK    9  A    between atoms: O_25  and  C_26
REMARK   10  A    between atoms: C_26  and  C_27
REMARK                            x       y       z     vdW  Elec       q    Type
REMARK                         _______ _______ _______ _____ _____    ______ ____
ROOT
ATOM      1  N   UNL     1       2.812  -0.800  -2.384  0.00  0.00    +0.000 N 
ATOM      2  C   UNL     1       3.260  -0.647  -3.683  0.00  0.00    +0.000 A 
ATOM      3  N   UNL     1       2.488  -1.184  -4.632  0.00  0.00    +0.000 NA
ATOM      4  C   UNL     1       2.929  -1.089  -5.897  0.00  0.00    +0.000 A 
ATOM      5  C   UNL     1       4.099  -0.461  -6.246  0.00  0.00    +0.000 A 
ATOM      6  C   UNL     1       4.826   0.088  -5.210  0.00  0.00    +0.000 A 
ATOM      7  N   UNL     1       4.408  -0.006  -3.930  0.00  0.00    +0.000 NA
ATOM      8  H   UNL     1       1.824  -1.028  -2.441  0.00  0.00    +0.000 HD
ENDROOT
BRANCH   6   9
ATOM      9  C   UNL     1       6.106   0.802  -5.405  0.00  0.00    +0.000 A 
ATOM     10  C   UNL     1       6.399   1.513  -6.586  0.00  0.00    +0.000 A 
ATOM     11  C   UNL     1       7.611   2.198  -6.749  0.00  0.00    +0.000 A 
ATOM     12  C   UNL     1       8.567   2.179  -5.730  0.00  0.00    +0.000 A 
ATOM     13  C   UNL     1       8.292   1.497  -4.545  0.00  0.00    +0.000 A 
ATOM     14  C   UNL     1       7.079   0.819  -4.388  0.00  0.00    +0.000 A 
BRANCH  12  15
ATOM     15  C   UNL     1       9.859   2.918  -5.827  0.00  0.00    +0.000 C 
ATOM     16  O   UNL     1      10.439   3.352  -4.851  0.00  0.00    +0.000 OA
BRANCH  15  17
ATOM     17  O   UNL     1      10.339   3.028  -7.082  0.00  0.00    +0.000 OA
ATOM     18  H   UNL     1       9.887   2.492  -7.755  0.00  0.00    +0.000 HD
ENDBRANCH  15  17
ENDBRANCH  12  15
ENDBRANCH   6   9
BRANCH   1  19
ATOM     19  C   UNL     1       3.169   0.267  -1.459  0.00  0.00    +0.000 C 
BRANCH  19  21
ATOM     20  C   UNL     1       3.301  -1.240   0.544  0.00  0.00    +0.000 C 
ATOM     21  C   UNL     1       2.588  -0.003  -0.042  0.00  0.00    +0.000 C 
BRANCH  21  22
ATOM     22  C   UNL     1       1.061  -0.121   0.006  0.00  0.00    +0.000 A 
ATOM     23  C   UNL     1       0.234   0.560  -0.902  0.00  0.00    +0.000 A 
ATOM     24  C   UNL     1      -1.148   0.355  -0.912  0.00  0.00    +0.000 A 
ATOM     25  C   UNL     1      -1.735  -0.521  -0.002  0.00  0.00    +0.000 A 
ATOM     26  C   UNL     1      -0.940  -1.178   0.929  0.00  0.00    +0.000 A 
ATOM     27  C   UNL     1       0.433  -0.935   0.964  0.00  0.00    +0.000 A 
BRANCH  26  28
ATOM     28  O   UNL     1      -1.392  -2.080   1.852  0.00  0.00    +0.000 OA
BRANCH  28  29
ATOM     29  C   UNL     1      -2.477  -2.904   1.406  0.00  0.00    +0.000 C 
BRANCH  29  30
ATOM     30  C   UNL     1      -2.438  -4.289   2.046  0.00  0.00    +0.000 C 
ATOM     31  F   UNL     1      -1.394  -4.463   2.884  0.00  0.00    +0.000 F 
ATOM     32  F   UNL     1      -3.570  -4.524   2.752  0.00  0.00    +0.000 F 
ATOM     33  F   UNL     1      -2.357  -5.252   1.095  0.00  0.00    +0.000 F 
ENDBRANCH  29  30
ENDBRANCH  28  29
ENDBRANCH  26  28
ENDBRANCH  21  22
ENDBRANCH  19  21
ENDBRANCH   1  19
TORSDOF 9
