REMARK  Name = 
REMARK  7 active torsions:
REMARK  status: ('A' for Active; 'I' for Inactive)
REMARK    1  A    between atoms: C_2  and  C_4
REMARK    2  A    between atoms: C_7  and  N_8
REMARK    3  A    between atoms: N_8  and  C_9
REMARK    4  A    between atoms: C_9  and  C_10
REMARK    5  A    between atoms: C_12  and  C_13
REMARK    6  A    between atoms: C_18  and  O_19
REMARK    7  A    between atoms: O_19  and  C_20
REMARK                            x       y       z     vdW  Elec       q    Type
REMARK                         _______ _______ _______ _____ _____    ______ ____
ROOT
ATOM      1  C   UNL     1       5.972   4.106   3.394  0.00  0.00    +0.000 C 
ATOM      2  C   UNL     1       6.067   2.783   2.641  0.00  0.00    +0.000 C 
ATOM      3  C   UNL     1       4.724   3.339   2.980  0.00  0.00    +0.000 C 
ENDROOT
BRANCH   1   4
ATOM      4  C   UNL     1       6.312   4.074   4.894  0.00  0.00    +0.000 A 
ATOM      5  C   UNL     1       5.523   4.791   5.800  0.00  0.00    +0.000 A 
ATOM      6  C   UNL     1       5.615   4.589   7.183  0.00  0.00    +0.000 A 
ATOM      7  C   UNL     1       6.596   3.677   7.596  0.00  0.00    +0.000 A 
ATOM      8  C   UNL     1       7.425   3.081   6.657  0.00  0.00    +0.000 A 
ATOM      9  N   UNL     1       7.306   3.263   5.328  0.00  0.00    +0.000 NA
BRANCH   6  10
ATOM     10  C   UNL     1       4.742   5.320   8.154  0.00  0.00    +0.000 A 
ATOM     11  C   UNL     1       5.228   5.576   9.456  0.00  0.00    +0.000 A 
ATOM     12  C   UNL     1       4.500   6.308  10.397  0.00  0.00    +0.000 A 
ATOM     13  C   UNL     1       3.270   6.845  10.050  0.00  0.00    +0.000 A 
ATOM     14  C   UNL     1       2.748   6.606   8.784  0.00  0.00    +0.000 A 
ATOM     15  C   UNL     1       3.441   5.812   7.854  0.00  0.00    +0.000 A 
BRANCH  15  16
ATOM     16  O   UNL     1       2.906   5.505   6.625  0.00  0.00    +0.000 OA
BRANCH  16  17
ATOM     17  C   UNL     1       1.494   5.549   6.505  0.00  0.00    +0.000 C 
ATOM     18  F   UNL     1       1.103   6.838   6.338  0.00  0.00    +0.000 F 
ATOM     19  F   UNL     1       1.169   4.894   5.363  0.00  0.00    +0.000 F 
ENDBRANCH  16  17
ENDBRANCH  15  16
ENDBRANCH   6  10
ENDBRANCH   1   4
BRANCH   1  20
ATOM     20  N   UNL     1       6.458   5.304   2.656  0.00  0.00    +0.000 N 
ATOM     21  H   UNL     1       7.464   5.430   2.766  0.00  0.00    +0.000 HD
BRANCH  20  25
ATOM     22  C   UNL     1       4.472   8.934   2.604  0.00  0.00    +0.000 A 
ATOM     23  N   UNL     1       5.819   8.952   2.463  0.00  0.00    +0.000 NA
ATOM     24  C   UNL     1       6.415   7.737   2.484  0.00  0.00    +0.000 A 
ATOM     25  C   UNL     1       5.761   6.527   2.674  0.00  0.00    +0.000 A 
ATOM     26  C   UNL     1       4.386   6.659   2.765  0.00  0.00    +0.000 A 
ATOM     27  N   UNL     1       3.716   7.832   2.743  0.00  0.00    +0.000 NA
BRANCH  22  29
ATOM     28  N   UNL     1       4.595  11.376   2.576  0.00  0.00    +0.000 N 
ATOM     29  C   UNL     1       3.773  10.273   2.633  0.00  0.00    +0.000 C 
ATOM     30  O   UNL     1       2.557  10.415   2.718  0.00  0.00    +0.000 OA
ATOM     31  H   UNL     1       4.180  12.294   2.617  0.00  0.00    +0.000 HD
ATOM     32  H   UNL     1       5.599  11.259   2.516  0.00  0.00    +0.000 HD
ENDBRANCH  22  29
ENDBRANCH  20  25
ENDBRANCH   1  20
TORSDOF 7
