REMARK  Name = 
REMARK  5 active torsions:
REMARK  status: ('A' for Active; 'I' for Inactive)
REMARK    1  A    between atoms: C_2  and  C_19
REMARK    2  A    between atoms: N_3  and  C_4
REMARK    3  A    between atoms: C_4  and  C_5
REMARK    4  A    between atoms: C_8  and  C_9
REMARK    5  A    between atoms: C_14  and  O_15
REMARK                            x       y       z     vdW  Elec       q    Type
REMARK                         _______ _______ _______ _____ _____    ______ ____
ROOT
ATOM      1  C   UNL     1       2.183  -2.204  -0.873  0.00  0.00    +0.000 C 
ENDROOT
BRANCH   1   2
ATOM      2  C   UNL     1       3.187  -3.260  -1.255  0.00  0.00    +0.000 A 
ATOM      3  C   UNL     1       4.470  -2.889  -1.670  0.00  0.00    +0.000 A 
ATOM      4  C   UNL     1       5.404  -3.857  -2.052  0.00  0.00    +0.000 A 
ATOM      5  C   UNL     1       5.039  -5.202  -2.131  0.00  0.00    +0.000 A 
ATOM      6  C   UNL     1       3.765  -5.581  -1.686  0.00  0.00    +0.000 A 
ATOM      7  C   UNL     1       2.847  -4.618  -1.250  0.00  0.00    +0.000 A 
BRANCH   5   8
ATOM      8  C   UNL     1       5.907  -6.271  -2.713  0.00  0.00    +0.000 C 
ATOM      9  O   UNL     1       5.805  -7.417  -2.263  0.00  0.00    +0.000 OA
ATOM     10  N   UNL     1       6.728  -5.995  -3.802  0.00  0.00    +0.000 N 
ATOM     11  C   UNL     1       7.360  -7.093  -4.526  0.00  0.00    +0.000 C 
ATOM     12  C   UNL     1       8.173  -6.436  -5.638  0.00  0.00    +0.000 C 
ATOM     13  C   UNL     1       7.477  -5.100  -5.853  0.00  0.00    +0.000 C 
ATOM     14  C   UNL     1       7.013  -4.722  -4.452  0.00  0.00    +0.000 C 
BRANCH  13  15
ATOM     15  O   UNL     1       6.353  -5.256  -6.719  0.00  0.00    +0.000 OA
ATOM     16  H   UNL     1       5.688  -5.786  -6.240  0.00  0.00    +0.000 HD
ENDBRANCH  13  15
ENDBRANCH   5   8
ENDBRANCH   1   2
BRANCH   1  19
ATOM     17  O   UNL     1       0.034  -0.440  -0.802  0.00  0.00    +0.000 OA
ATOM     18  C   UNL     1       0.349  -0.932  -1.882  0.00  0.00    +0.000 C 
ATOM     19  N   UNL     1       1.350  -1.862  -1.996  0.00  0.00    +0.000 N 
ATOM     20  H   UNL     1       1.719  -2.076  -2.916  0.00  0.00    +0.000 HD
BRANCH  18  21
ATOM     21  C   UNL     1      -0.358  -0.587  -3.120  0.00  0.00    +0.000 A 
ATOM     22  C   UNL     1      -1.655  -0.095  -3.063  0.00  0.00    +0.000 A 
ATOM     23  S   UNL     1      -2.333   0.216  -4.598  0.00  0.00    +0.000 S 
ATOM     24  C   UNL     1      -0.900  -0.249  -5.388  0.00  0.00    +0.000 A 
ATOM     25  N   UNL     1      -0.798  -0.196  -6.743  0.00  0.00    +0.000 NA
ATOM     26  C   UNL     1       0.355  -0.547  -7.206  0.00  0.00    +0.000 A 
ATOM     27  N   UNL     1       1.416  -0.950  -6.438  0.00  0.00    +0.000 N 
ATOM     28  C   UNL     1       1.351  -1.048  -5.069  0.00  0.00    +0.000 A 
ATOM     29  O   UNL     1       2.303  -1.461  -4.416  0.00  0.00    +0.000 OA
ATOM     30  C   UNL     1       0.078  -0.653  -4.496  0.00  0.00    +0.000 A 
ATOM     31  H   UNL     1       2.287  -1.226  -6.866  0.00  0.00    +0.000 HD
ENDBRANCH  18  21
ENDBRANCH   1  19
TORSDOF 5
