REMARK  Name = 
REMARK  9 active torsions:
REMARK  status: ('A' for Active; 'I' for Inactive)
REMARK    1  A    between atoms: C_1  and  O_2
REMARK    2  A    between atoms: O_2  and  C_3
REMARK    3  A    between atoms: C_10  and  C_11
REMARK    4  A    between atoms: N_13  and  C_14
REMARK    5  A    between atoms: C_14  and  C_15
REMARK    6  A    between atoms: C_18  and  O_19
REMARK    7  A    between atoms: O_19  and  C_20
REMARK    8  A    between atoms: C_20  and  C_21
REMARK    9  A    between atoms: C_21  and  N_22
REMARK                            x       y       z     vdW  Elec       q    Type
REMARK                         _______ _______ _______ _____ _____    ______ ____
ROOT
ATOM      1  C   UNL     1       5.166  -0.375  -4.306  0.00  0.00    +0.000 C 
ENDROOT
BRANCH   1   2
ATOM      2  C   UNL     1       6.136  -0.114  -5.424  0.00  0.00    +0.000 A 
ATOM      3  C   UNL     1       6.367   1.204  -5.818  0.00  0.00    +0.000 A 
ATOM      4  C   UNL     1       7.183   1.477  -6.911  0.00  0.00    +0.000 A 
ATOM      5  C   UNL     1       7.785   0.448  -7.643  0.00  0.00    +0.000 A 
ATOM      6  C   UNL     1       7.574  -0.871  -7.240  0.00  0.00    +0.000 A 
ATOM      7  C   UNL     1       6.748  -1.152  -6.138  0.00  0.00    +0.000 A 
BRANCH   5   8
ATOM      8  O   UNL     1       8.570   0.645  -8.763  0.00  0.00    +0.000 OA
BRANCH   8   9
ATOM      9  C   UNL     1       8.715   2.028  -9.098  0.00  0.00    +0.000 C 
BRANCH   9  10
ATOM     10  C   UNL     1       9.593   2.302 -10.325  0.00  0.00    +0.000 C 
BRANCH  10  11
ATOM     11  N   UNL     1       9.623   3.751 -10.655  0.00  0.00    +0.000 NA
ATOM     12  C   UNL     1      10.202   4.563  -9.569  0.00  0.00    +0.000 C 
ATOM     13  C   UNL     1      10.219   6.055  -9.906  0.00  0.00    +0.000 C 
ATOM     14  C   UNL     1      10.953   6.315 -11.211  0.00  0.00    +0.000 C 
ATOM     15  C   UNL     1      10.363   5.450 -12.315  0.00  0.00    +0.000 C 
ATOM     16  C   UNL     1      10.338   3.970 -11.920  0.00  0.00    +0.000 C 
ENDBRANCH  10  11
ENDBRANCH   9  10
ENDBRANCH   8   9
ENDBRANCH   5   8
ENDBRANCH   1   2
BRANCH   1  19
ATOM     17  C   UNL     1       2.772  -0.763  -3.996  0.00  0.00    +0.000 C 
ATOM     18  O   UNL     1       2.914  -0.883  -2.782  0.00  0.00    +0.000 OA
ATOM     19  N   UNL     1       3.840  -0.584  -4.832  0.00  0.00    +0.000 N 
ATOM     20  H   UNL     1       3.669  -0.340  -5.800  0.00  0.00    +0.000 HD
BRANCH  17  28
ATOM     21  C   UNL     1       1.496   0.589  -6.834  0.00  0.00    +0.000 A 
ATOM     22  N   UNL     1       0.769   1.039  -7.886  0.00  0.00    +0.000 NA
ATOM     23  C   UNL     1      -0.511   0.668  -8.020  0.00  0.00    +0.000 A 
ATOM     24  C   UNL     1      -1.160  -0.170  -7.145  0.00  0.00    +0.000 A 
ATOM     25  C   UNL     1      -0.411  -0.632  -6.055  0.00  0.00    +0.000 A 
ATOM     26  S   UNL     1      -0.994  -1.674  -4.821  0.00  0.00    +0.000 S 
ATOM     27  C   UNL     1       0.482  -1.628  -3.995  0.00  0.00    +0.000 A 
ATOM     28  C   UNL     1       1.452  -0.870  -4.629  0.00  0.00    +0.000 A 
ATOM     29  C   UNL     1       0.931  -0.271  -5.859  0.00  0.00    +0.000 A 
BRANCH  21  31
ATOM     30  C   UNL     1       3.259   1.724  -7.880  0.00  0.00    +0.000 C 
ATOM     31  O   UNL     1       2.815   0.991  -6.738  0.00  0.00    +0.000 OA
ENDBRANCH  21  31
ENDBRANCH  17  28
ENDBRANCH   1  19
TORSDOF 8
