REMARK  Name = 
REMARK  5 active torsions:
REMARK  status: ('A' for Active; 'I' for Inactive)
REMARK    1  A    between atoms: C_1  and  C_2
REMARK    2  A    between atoms: C_2  and  C_3
REMARK    3  A    between atoms: C_2  and  C_14
REMARK    4  A    between atoms: C_3  and  N_4
REMARK    5  A    between atoms: C_8  and  C_9
REMARK                            x       y       z     vdW  Elec       q    Type
REMARK                         _______ _______ _______ _____ _____    ______ ____
ROOT
ATOM      1  N   UNL     1       2.744  -1.310  -2.115  0.00  0.00    +0.000 N 
ATOM      2  C   UNL     1       3.282  -1.496  -3.397  0.00  0.00    +0.000 A 
ATOM      3  C   UNL     1       3.056  -2.701  -4.079  0.00  0.00    +0.000 A 
ATOM      4  N   UNL     1       3.529  -2.979  -5.324  0.00  0.00    +0.000 NA
ATOM      5  C   UNL     1       4.270  -1.976  -5.874  0.00  0.00    +0.000 A 
ATOM      6  C   UNL     1       4.519  -0.788  -5.208  0.00  0.00    +0.000 A 
ATOM      7  N   UNL     1       4.038  -0.532  -3.965  0.00  0.00    +0.000 NA
ATOM      8  H   UNL     1       1.738  -1.463  -2.153  0.00  0.00    +0.000 HD
ENDROOT
BRANCH   5   9
ATOM      9  C   UNL     1       4.821  -2.180  -7.239  0.00  0.00    +0.000 C 
ATOM     10  N   UNL     1       4.544  -3.385  -7.822  0.00  0.00    +0.000 N 
ATOM     11  O   UNL     1       5.484  -1.323  -7.812  0.00  0.00    +0.000 OA
ATOM     12  H   UNL     1       3.996  -4.078  -7.324  0.00  0.00    +0.000 HD
ATOM     13  H   UNL     1       4.892  -3.578  -8.750  0.00  0.00    +0.000 HD
ENDBRANCH   5   9
BRANCH   1  14
ATOM     14  C   UNL     1       3.044  -0.008  -1.525  0.00  0.00    +0.000 C 
BRANCH  14  16
ATOM     15  C   UNL     1       2.816  -0.750   0.930  0.00  0.00    +0.000 C 
ATOM     16  C   UNL     1       2.304   0.060  -0.219  0.00  0.00    +0.000 C 
BRANCH  16  17
ATOM     17  C   UNL     1       0.895   0.479  -0.251  0.00  0.00    +0.000 A 
ATOM     18  C   UNL     1       0.532   1.735  -0.751  0.00  0.00    +0.000 A 
ATOM     19  C   UNL     1      -0.814   2.090  -0.863  0.00  0.00    +0.000 A 
ATOM     20  C   UNL     1      -1.807   1.189  -0.483  0.00  0.00    +0.000 A 
ATOM     21  C   UNL     1      -1.456  -0.055   0.034  0.00  0.00    +0.000 A 
ATOM     22  C   UNL     1      -0.110  -0.404   0.159  0.00  0.00    +0.000 A 
ENDBRANCH  16  17
ENDBRANCH  14  16
ENDBRANCH   1  14
TORSDOF 4
