REMARK  Name = 
REMARK  6 active torsions:
REMARK  status: ('A' for Active; 'I' for Inactive)
REMARK    1  A    between atoms: C_2  and  C_19
REMARK    2  A    between atoms: N_3  and  C_4
REMARK    3  A    between atoms: C_4  and  C_5
REMARK    4  A    between atoms: C_8  and  C_9
REMARK    5  A    between atoms: C_9  and  N_10
REMARK    6  A    between atoms: N_10  and  C_11
REMARK                            x       y       z     vdW  Elec       q    Type
REMARK                         _______ _______ _______ _____ _____    ______ ____
ROOT
ATOM      1  C   UNL     1       2.244   1.314   2.146  0.00  0.00    +0.000 C 
ENDROOT
BRANCH   1   2
ATOM      2  C   UNL     1       3.174   1.895   3.213  0.00  0.00    +0.000 C 
ATOM      3  C   UNL     1       3.172   1.041   4.491  0.00  0.00    +0.000 C 
ATOM      4  C   UNL     1       4.026   1.669   5.587  0.00  0.00    +0.000 C 
ATOM      5  C   UNL     1       3.592   3.112   5.890  0.00  0.00    +0.000 C 
ATOM      6  C   UNL     1       3.601   3.959   4.611  0.00  0.00    +0.000 C 
ATOM      7  C   UNL     1       2.745   3.334   3.518  0.00  0.00    +0.000 C 
BRANCH   5   8
ATOM      8  C   UNL     1       4.512   3.703   6.968  0.00  0.00    +0.000 C 
BRANCH   8   9
ATOM      9  N   UNL     1       4.101   5.057   7.338  0.00  0.00    +0.000 NA
ATOM     10  H   UNL     1       3.143   5.047   7.687  0.00  0.00    +0.000 HD
BRANCH   9  11
ATOM     11  C   UNL     1       4.997   5.668   8.327  0.00  0.00    +0.000 C 
ATOM     12  C   UNL     1       4.976   4.938   9.675  0.00  0.00    +0.000 C 
ATOM     13  C   UNL     1       5.809   5.691  10.699  0.00  0.00    +0.000 C 
ATOM     14  O   UNL     1       5.347   7.032  10.837  0.00  0.00    +0.000 OA
ATOM     15  C   UNL     1       5.459   7.766   9.618  0.00  0.00    +0.000 C 
ATOM     16  C   UNL     1       4.602   7.137   8.527  0.00  0.00    +0.000 C 
ENDBRANCH   9  11
ENDBRANCH   8   9
ENDBRANCH   5   8
ENDBRANCH   1   2
BRANCH   1  19
ATOM     17  O   UNL     1       4.059   0.658   0.061  0.00  0.00    +0.000 OA
ATOM     18  C   UNL     1       3.505  -0.238   0.687  0.00  0.00    +0.000 C 
ATOM     19  N   UNL     1       2.655  -0.003   1.735  0.00  0.00    +0.000 N 
ATOM     20  H   UNL     1       2.199  -0.780   2.196  0.00  0.00    +0.000 HD
BRANCH  18  21
ATOM     21  C   UNL     1       3.759  -1.655   0.406  0.00  0.00    +0.000 A 
ATOM     22  C   UNL     1       4.943  -2.042  -0.204  0.00  0.00    +0.000 A 
ATOM     23  S   UNL     1       5.082  -3.732  -0.391  0.00  0.00    +0.000 S 
ATOM     24  C   UNL     1       3.548  -3.994   0.300  0.00  0.00    +0.000 A 
ATOM     25  N   UNL     1       3.050  -5.252   0.448  0.00  0.00    +0.000 NA
ATOM     26  C   UNL     1       1.866  -5.299   0.961  0.00  0.00    +0.000 A 
ATOM     27  N   UNL     1       1.131  -4.207   1.334  0.00  0.00    +0.000 N 
ATOM     28  C   UNL     1       1.601  -2.919   1.231  0.00  0.00    +0.000 A 
ATOM     29  O   UNL     1       0.937  -1.975   1.637  0.00  0.00    +0.000 OA
ATOM     30  C   UNL     1       2.934  -2.810   0.663  0.00  0.00    +0.000 A 
ATOM     31  H   UNL     1       0.213  -4.310   1.742  0.00  0.00    +0.000 HD
ENDBRANCH  18  21
ENDBRANCH   1  19
TORSDOF 6
