REMARK  Name = 
REMARK  5 active torsions:
REMARK  status: ('A' for Active; 'I' for Inactive)
REMARK    1  A    between atoms: C_2  and  C_4
REMARK    2  A    between atoms: C_7  and  C_8
REMARK    3  A    between atoms: C_8  and  O_9
REMARK    4  A    between atoms: O_9  and  C_10
REMARK    5  A    between atoms: C_15  and  C_16
REMARK                            x       y       z     vdW  Elec       q    Type
REMARK                         _______ _______ _______ _____ _____    ______ ____
ROOT
ATOM      1  O   UNL     1       5.385  -4.441   3.422  0.00  0.00    +0.000 OA
ENDROOT
BRANCH   1   2
ATOM      2  C   UNL     1       6.016  -5.326   4.248  0.00  0.00    +0.000 A 
ATOM      3  C   UNL     1       6.589  -5.036   5.479  0.00  0.00    +0.000 A 
ATOM      4  C   UNL     1       7.201  -6.058   6.193  0.00  0.00    +0.000 A 
ATOM      5  F   UNL     1       7.750  -5.785   7.384  0.00  0.00    +0.000 F 
ATOM      6  C   UNL     1       7.259  -7.361   5.701  0.00  0.00    +0.000 A 
ATOM      7  C   UNL     1       6.686  -7.686   4.462  0.00  0.00    +0.000 A 
ATOM      8  C   UNL     1       6.064  -6.639   3.756  0.00  0.00    +0.000 A 
BRANCH   7   9
ATOM      9  C   UNL     1       6.726  -9.065   3.918  0.00  0.00    +0.000 A 
ATOM     10  C   UNL     1       6.672 -10.189   4.754  0.00  0.00    +0.000 A 
ATOM     11  C   UNL     1       6.706 -11.460   4.197  0.00  0.00    +0.000 A 
ATOM     12  N   UNL     1       6.780 -11.699   2.873  0.00  0.00    +0.000 NA
ATOM     13  C   UNL     1       6.830 -10.616   2.073  0.00  0.00    +0.000 A 
ATOM     14  C   UNL     1       6.812  -9.309   2.539  0.00  0.00    +0.000 A 
ENDBRANCH   7   9
ENDBRANCH   1   2
BRANCH   1  15
ATOM     15  C   UNL     1       5.196  -3.106   3.896  0.00  0.00    +0.000 C 
BRANCH  15  19
ATOM     16  C   UNL     1       3.078  -0.767   1.010  0.00  0.00    +0.000 A 
ATOM     17  C   UNL     1       2.787  -2.126   1.112  0.00  0.00    +0.000 A 
ATOM     18  C   UNL     1       3.464  -2.899   2.055  0.00  0.00    +0.000 A 
ATOM     19  C   UNL     1       4.432  -2.301   2.864  0.00  0.00    +0.000 A 
ATOM     20  N   UNL     1       4.712  -0.974   2.788  0.00  0.00    +0.000 NA
ATOM     21  C   UNL     1       4.043  -0.244   1.858  0.00  0.00    +0.000 A 
BRANCH  16  23
ATOM     22  N   UNL     1       1.196  -0.227  -0.433  0.00  0.00    +0.000 N 
ATOM     23  C   UNL     1       2.434   0.127   0.026  0.00  0.00    +0.000 C 
ATOM     24  O   UNL     1       2.973   1.161  -0.345  0.00  0.00    +0.000 OA
ATOM     25  H   UNL     1       0.732   0.445  -1.033  0.00  0.00    +0.000 HD
ATOM     26  H   UNL     1       0.622  -0.926   0.015  0.00  0.00    +0.000 HD
ENDBRANCH  16  23
ENDBRANCH  15  19
ENDBRANCH   1  15
TORSDOF 5
