REMARK  Name = 
REMARK  5 active torsions:
REMARK  status: ('A' for Active; 'I' for Inactive)
REMARK    1  A    between atoms: C_2  and  C_4
REMARK    2  A    between atoms: C_7  and  C_8
REMARK    3  A    between atoms: C_8  and  C_9
REMARK    4  A    between atoms: C_9  and  C_10
REMARK    5  A    between atoms: C_14  and  C_15
REMARK                            x       y       z     vdW  Elec       q    Type
REMARK                         _______ _______ _______ _____ _____    ______ ____
ROOT
ATOM      1  C   UNL     1       4.918   1.529   5.719  0.00  0.00    +0.000 C 
ENDROOT
BRANCH   1   2
ATOM      2  C   UNL     1       5.785   2.012   6.850  0.00  0.00    +0.000 A 
ATOM      3  C   UNL     1       5.551   3.232   7.472  0.00  0.00    +0.000 A 
ATOM      4  N   UNL     1       6.316   3.728   8.466  0.00  0.00    +0.000 NA
ATOM      5  C   UNL     1       7.367   2.968   8.861  0.00  0.00    +0.000 A 
ATOM      6  C   UNL     1       7.709   1.721   8.330  0.00  0.00    +0.000 A 
ATOM      7  C   UNL     1       6.875   1.256   7.300  0.00  0.00    +0.000 A 
BRANCH   6   8
ATOM      8  C   UNL     1       8.875   0.949   8.809  0.00  0.00    +0.000 A 
ATOM      9  C   UNL     1       9.319   1.028  10.145  0.00  0.00    +0.000 A 
ATOM     10  C   UNL     1      10.425   0.298  10.597  0.00  0.00    +0.000 A 
ATOM     11  C   UNL     1      11.107  -0.538   9.721  0.00  0.00    +0.000 A 
ATOM     12  C   UNL     1      10.682  -0.633   8.404  0.00  0.00    +0.000 A 
ATOM     13  F   UNL     1      11.333  -1.440   7.557  0.00  0.00    +0.000 F 
ATOM     14  C   UNL     1       9.590   0.099   7.947  0.00  0.00    +0.000 A 
ENDBRANCH   6   8
ENDBRANCH   1   2
BRANCH   1  15
ATOM     15  C   UNL     1       5.461   1.961   4.352  0.00  0.00    +0.000 C 
BRANCH  15  19
ATOM     16  C   UNL     1       2.957   0.517   1.214  0.00  0.00    +0.000 A 
ATOM     17  C   UNL     1       3.158   1.891   1.334  0.00  0.00    +0.000 A 
ATOM     18  C   UNL     1       3.981   2.377   2.350  0.00  0.00    +0.000 A 
ATOM     19  C   UNL     1       4.578   1.474   3.228  0.00  0.00    +0.000 A 
ATOM     20  N   UNL     1       4.402   0.135   3.118  0.00  0.00    +0.000 NA
ATOM     21  C   UNL     1       3.588  -0.314   2.127  0.00  0.00    +0.000 A 
BRANCH  16  23
ATOM     22  N   UNL     1       1.918   0.625  -0.978  0.00  0.00    +0.000 N 
ATOM     23  C   UNL     1       2.071  -0.071   0.189  0.00  0.00    +0.000 C 
ATOM     24  O   UNL     1       1.512  -1.145   0.366  0.00  0.00    +0.000 OA
ATOM     25  H   UNL     1       1.369   0.181  -1.704  0.00  0.00    +0.000 HD
ATOM     26  H   UNL     1       2.527   1.384  -1.250  0.00  0.00    +0.000 HD
ENDBRANCH  16  23
ENDBRANCH  15  19
ENDBRANCH   1  15
TORSDOF 5
