REMARK  Name = 
REMARK  5 active torsions:
REMARK  status: ('A' for Active; 'I' for Inactive)
REMARK    1  A    between atoms: C_2  and  C_4
REMARK    2  A    between atoms: C_7  and  N_8
REMARK    3  A    between atoms: N_8  and  C_9
REMARK    4  A    between atoms: C_9  and  C_10
REMARK    5  A    between atoms: C_14  and  C_15
REMARK                            x       y       z     vdW  Elec       q    Type
REMARK                         _______ _______ _______ _____ _____    ______ ____
ROOT
ATOM      1  C   UNL     1       5.016  -0.720   5.918  0.00  0.00    +0.000 C 
ATOM      2  C   UNL     1       4.750  -2.208   6.117  0.00  0.00    +0.000 C 
ATOM      3  C   UNL     1       3.607  -1.255   6.157  0.00  0.00    +0.000 C 
ENDROOT
BRANCH   1   4
ATOM      4  C   UNL     1       5.559   0.121   7.074  0.00  0.00    +0.000 A 
ATOM      5  C   UNL     1       4.968   1.346   7.421  0.00  0.00    +0.000 A 
ATOM      6  C   UNL     1       5.348   2.033   8.573  0.00  0.00    +0.000 A 
ATOM      7  C   UNL     1       6.332   1.501   9.407  0.00  0.00    +0.000 A 
ATOM      8  C   UNL     1       6.973   0.293   9.092  0.00  0.00    +0.000 A 
ATOM      9  C   UNL     1       6.596  -0.350   7.899  0.00  0.00    +0.000 A 
BRANCH   8  10
ATOM     10  C   UNL     1       7.923  -0.352  10.018  0.00  0.00    +0.000 A 
ATOM     11  C   UNL     1       7.703  -0.358  11.402  0.00  0.00    +0.000 A 
ATOM     12  C   UNL     1       8.559  -1.051  12.256  0.00  0.00    +0.000 A 
ATOM     13  C   UNL     1       9.626  -1.733  11.701  0.00  0.00    +0.000 A 
ATOM     14  N   UNL     1       9.892  -1.755  10.380  0.00  0.00    +0.000 NA
ATOM     15  C   UNL     1       9.042  -1.064   9.578  0.00  0.00    +0.000 A 
ENDBRANCH   8  10
ENDBRANCH   1   4
BRANCH   1  16
ATOM     16  N   UNL     1       5.412  -0.244   4.583  0.00  0.00    +0.000 N 
ATOM     17  H   UNL     1       4.692   0.128   3.971  0.00  0.00    +0.000 HD
BRANCH  16  21
ATOM     18  C   UNL     1       8.912  -1.506   2.551  0.00  0.00    +0.000 A 
ATOM     19  C   UNL     1       8.571  -2.082   3.772  0.00  0.00    +0.000 A 
ATOM     20  C   UNL     1       7.424  -1.661   4.446  0.00  0.00    +0.000 A 
ATOM     21  C   UNL     1       6.565  -0.694   3.908  0.00  0.00    +0.000 A 
ATOM     22  C   UNL     1       6.946  -0.086   2.705  0.00  0.00    +0.000 A 
ATOM     23  C   UNL     1       8.113  -0.483   2.032  0.00  0.00    +0.000 A 
BRANCH  18  25
ATOM     24  N   UNL     1      10.596  -3.192   2.058  0.00  0.00    +0.000 N 
ATOM     25  C   UNL     1      10.133  -1.921   1.822  0.00  0.00    +0.000 C 
ATOM     26  O   UNL     1      10.695  -1.180   1.029  0.00  0.00    +0.000 OA
ATOM     27  H   UNL     1      11.391  -3.491   1.509  0.00  0.00    +0.000 HD
ATOM     28  H   UNL     1      10.040  -3.902   2.505  0.00  0.00    +0.000 HD
ENDBRANCH  18  25
ENDBRANCH  16  21
ENDBRANCH   1  16
TORSDOF 5
