REMARK  Name = 
REMARK  5 active torsions:
REMARK  status: ('A' for Active; 'I' for Inactive)
REMARK    1  A    between atoms: C_2  and  C_3
REMARK    2  A    between atoms: C_6  and  C_7
REMARK    3  A    between atoms: C_7  and  N_8
REMARK    4  A    between atoms: N_8  and  C_9
REMARK    5  A    between atoms: C_12  and  C_13
REMARK                            x       y       z     vdW  Elec       q    Type
REMARK                         _______ _______ _______ _____ _____    ______ ____
ROOT
ATOM      1  N   UNL     1       8.391   1.355   1.047  0.00  0.00    +0.000 N 
ATOM      2  H   UNL     1       9.059   1.150   1.785  0.00  0.00    +0.000 HD
ENDROOT
BRANCH   1   3
ATOM      3  C   UNL     1       8.572   2.637   0.488  0.00  0.00    +0.000 A 
ATOM      4  C   UNL     1       7.925   3.058  -0.675  0.00  0.00    +0.000 A 
ATOM      5  C   UNL     1       8.143   4.341  -1.176  0.00  0.00    +0.000 A 
ATOM      6  C   UNL     1       9.001   5.185  -0.488  0.00  0.00    +0.000 A 
ATOM      7  N   UNL     1       9.618   4.847   0.677  0.00  0.00    +0.000 NA
ATOM      8  C   UNL     1       9.368   3.593   1.133  0.00  0.00    +0.000 A 
BRANCH   6   9
ATOM      9  C   UNL     1       9.303   6.540  -1.051  0.00  0.00    +0.000 C 
ATOM     10  N   UNL     1      10.176   7.308  -0.333  0.00  0.00    +0.000 N 
ATOM     11  O   UNL     1       8.814   6.941  -2.101  0.00  0.00    +0.000 OA
ATOM     12  H   UNL     1      10.595   6.944   0.515  0.00  0.00    +0.000 HD
ATOM     13  H   UNL     1      10.445   8.214  -0.692  0.00  0.00    +0.000 HD
ENDBRANCH   6   9
ENDBRANCH   1   3
BRANCH   1  14
ATOM     14  C   UNL     1       7.981   0.190   0.215  0.00  0.00    +0.000 C 
ATOM     15  C   UNL     1       8.885  -0.309  -0.902  0.00  0.00    +0.000 C 
ATOM     16  C   UNL     1       8.815  -1.077   0.377  0.00  0.00    +0.000 C 
BRANCH  14  20
ATOM     17  C   UNL     1       3.767  -0.346  -0.267  0.00  0.00    +0.000 A 
ATOM     18  C   UNL     1       4.272  -0.299   1.017  0.00  0.00    +0.000 A 
ATOM     19  C   UNL     1       5.643  -0.120   1.178  0.00  0.00    +0.000 A 
ATOM     20  C   UNL     1       6.468   0.005   0.062  0.00  0.00    +0.000 A 
ATOM     21  N   UNL     1       5.914  -0.038  -1.177  0.00  0.00    +0.000 NA
ATOM     22  N   UNL     1       4.559  -0.216  -1.348  0.00  0.00    +0.000 NA
BRANCH  17  24
ATOM     23  N   UNL     1       1.236  -0.728  -0.683  0.00  0.00    +0.000 NA
ATOM     24  C   UNL     1       2.376  -0.552  -0.522  0.00  0.00    +0.000 C 
ENDBRANCH  17  24
ENDBRANCH  14  20
ENDBRANCH   1  14
TORSDOF 5
