REMARK  Name = 
REMARK  12 active torsions:
REMARK  status: ('A' for Active; 'I' for Inactive)
REMARK    1  A    between atoms: C_1  and  C_2
REMARK    2  A    between atoms: C_2  and  C_3
REMARK    3  A    between atoms: C_3  and  N_4
REMARK    4  A    between atoms: C_3  and  C_18
REMARK    5  A    between atoms: C_5  and  C_7
REMARK    6  A    between atoms: N_13  and  C_14
REMARK    7  A    between atoms: C_21  and  C_22
REMARK    8  A    between atoms: C_22  and  N_23
REMARK    9  A    between atoms: N_23  and  CA_24
REMARK   10  A    between atoms: CA_24  and  C_25
REMARK   11  A    between atoms: CA_24  and  C_27
REMARK   12  A    between atoms: C_25  and  O_26
REMARK                            x       y       z     vdW  Elec       q    Type
REMARK                         _______ _______ _______ _____ _____    ______ ____
ROOT
ATOM      1  C   UNL     1      10.893  -5.442   4.893  0.00  0.00    +0.000 A 
ATOM      2  C   UNL     1      11.940  -4.781   4.239  0.00  0.00    +0.000 A 
ATOM      3  C   UNL     1      11.684  -3.982   3.117  0.00  0.00    +0.000 A 
ATOM      4  C   UNL     1      10.377  -3.822   2.632  0.00  0.00    +0.000 A 
ATOM      5  C   UNL     1       9.326  -4.443   3.313  0.00  0.00    +0.000 A 
ATOM      6  C   UNL     1       9.579  -5.227   4.436  0.00  0.00    +0.000 A 
ENDROOT
BRANCH   1   7
ATOM      7  C   UNL     1      11.173  -6.428   6.026  0.00  0.00    +0.000 C 
BRANCH   7   8
ATOM      8  N   UNL     1      10.569  -5.929   7.244  0.00  0.00    +0.000 N 
ATOM      9  C   UNL     1      11.047  -6.161   8.508  0.00  0.00    +0.000 C 
ATOM     10  O   UNL     1      12.111  -6.730   8.724  0.00  0.00    +0.000 OA
ATOM     11  H   UNL     1       9.620  -5.600   7.145  0.00  0.00    +0.000 HD
BRANCH   9  12
ATOM     12  C   UNL     1      10.224  -5.615   9.597  0.00  0.00    +0.000 A 
ATOM     13  C   UNL     1      10.789  -5.323  10.830  0.00  0.00    +0.000 A 
ATOM     14  S   UNL     1       9.704  -4.567  11.911  0.00  0.00    +0.000 S 
ATOM     15  C   UNL     1       8.430  -4.653  10.783  0.00  0.00    +0.000 A 
ATOM     16  N   UNL     1       7.205  -4.137  11.062  0.00  0.00    +0.000 NA
ATOM     17  C   UNL     1       6.333  -4.283  10.116  0.00  0.00    +0.000 A 
ATOM     18  N   UNL     1       6.554  -4.928   8.918  0.00  0.00    +0.000 N 
ATOM     19  C   UNL     1       5.501  -5.058   7.933  0.00  0.00    +0.000 C 
ATOM     20  C   UNL     1       7.787  -5.489   8.614  0.00  0.00    +0.000 A 
ATOM     21  O   UNL     1       7.998  -6.095   7.566  0.00  0.00    +0.000 OA
ATOM     22  C   UNL     1       8.816  -5.284   9.618  0.00  0.00    +0.000 A 
ENDBRANCH   9  12
ENDBRANCH   7   8
BRANCH   7  24
ATOM     23  C   UNL     1      10.817  -8.922   6.622  0.00  0.00    +0.000 C 
ATOM     24  C   UNL     1      10.616  -7.808   5.612  0.00  0.00    +0.000 C 
ENDBRANCH   7  24
ENDBRANCH   1   7
BRANCH   4  25
ATOM     25  C   UNL     1      10.080  -2.974   1.413  0.00  0.00    +0.000 C 
BRANCH  25  26
ATOM     26  N   UNL     1      10.694  -3.530   0.209  0.00  0.00    +0.000 NA
ATOM     27  H   UNL     1      10.318  -4.477   0.098  0.00  0.00    +0.000 HD
BRANCH  26  28
ATOM     28  CA  UNL     1      10.317  -2.809  -1.041  0.00  0.00    +0.000 C 
BRANCH  28  29
ATOM     29  C   UNL     1       8.815  -2.839  -1.349  0.00  0.00    +0.000 A 
ATOM     30  C   UNL     1       8.096  -1.697  -1.706  0.00  0.00    +0.000 A 
ATOM     31  C   UNL     1       6.735  -1.802  -1.982  0.00  0.00    +0.000 A 
ATOM     32  C   UNL     1       6.114  -3.040  -1.910  0.00  0.00    +0.000 A 
ATOM     33  C   UNL     1       6.888  -4.128  -1.552  0.00  0.00    +0.000 A 
ATOM     34  N   UNL     1       8.211  -4.060  -1.271  0.00  0.00    +0.000 NA
ENDBRANCH  28  29
BRANCH  28  35
ATOM     35  C   UNL     1      11.025  -1.436  -1.189  0.00  0.00    +0.000 C 
BRANCH  35  36
ATOM     36  O   UNL     1      10.535  -0.421  -0.313  0.00  0.00    +0.000 OA
ATOM     37  H   UNL     1      11.096  -0.441   0.482  0.00  0.00    +0.000 HD
ENDBRANCH  35  36
ENDBRANCH  28  35
ENDBRANCH  26  28
ENDBRANCH  25  26
ENDBRANCH   4  25
TORSDOF 10
