REMARK  Name = 
REMARK  7 active torsions:
REMARK  status: ('A' for Active; 'I' for Inactive)
REMARK    1  A    between atoms: C_1  and  C_2
REMARK    2  A    between atoms: C_2  and  C_3
REMARK    3  A    between atoms: C_2  and  N_4
REMARK    4  A    between atoms: C_5  and  C_7
REMARK    5  A    between atoms: N_10  and  C_11
REMARK    6  A    between atoms: C_12  and  C_13
REMARK    7  A    between atoms: C_16  and  C_17
REMARK                            x       y       z     vdW  Elec       q    Type
REMARK                         _______ _______ _______ _____ _____    ______ ____
ROOT
ATOM      1  C   UNL     1       5.091   2.384  -1.827  0.00  0.00    +0.000 C 
ATOM      2  C   UNL     1       6.039   3.269  -1.004  0.00  0.00    +0.000 C 
ATOM      3  C   UNL     1       5.261   4.148  -0.026  0.00  0.00    +0.000 C 
ATOM      4  N   UNL     1       4.309   4.975  -0.781  0.00  0.00    +0.000 N 
ATOM      5  C   UNL     1       3.304   4.183  -1.507  0.00  0.00    +0.000 C 
ATOM      6  C   UNL     1       4.013   3.257  -2.498  0.00  0.00    +0.000 C 
ENDROOT
BRANCH   1   8
ATOM      7  N   UNL     1       5.415   0.426  -0.384  0.00  0.00    +0.000 N 
ATOM      8  C   UNL     1       4.488   1.276  -0.959  0.00  0.00    +0.000 C 
ATOM      9  O   UNL     1       3.281   1.158  -0.776  0.00  0.00    +0.000 OA
ATOM     10  H   UNL     1       6.370   0.445  -0.720  0.00  0.00    +0.000 HD
BRANCH   7  12
ATOM     11  C   UNL     1       4.689  -1.930  -0.335  0.00  0.00    +0.000 C 
ATOM     12  C   UNL     1       5.009  -0.679   0.479  0.00  0.00    +0.000 C 
ATOM     13  C   UNL     1       6.090  -0.978   1.514  0.00  0.00    +0.000 C 
ENDBRANCH   7  12
ENDBRANCH   1   8
BRANCH   4  14
ATOM     14  C   UNL     1       4.353   6.359  -0.746  0.00  0.00    +0.000 C 
ATOM     15  C   UNL     1       3.560   7.246  -1.364  0.00  0.00    +0.000 C 
BRANCH  15  16
ATOM     16  C   UNL     1       3.686   8.700  -1.261  0.00  0.00    +0.000 A 
ATOM     17  C   UNL     1       4.871   9.383  -1.043  0.00  0.00    +0.000 A 
ATOM     18  N   UNL     1       4.978  10.728  -0.984  0.00  0.00    +0.000 NA
ATOM     19  C   UNL     1       3.822  11.410  -1.169  0.00  0.00    +0.000 A 
ATOM     20  N   UNL     1       2.613  10.862  -1.412  0.00  0.00    +0.000 NA
ATOM     21  C   UNL     1       2.584   9.517  -1.452  0.00  0.00    +0.000 A 
BRANCH  19  22
ATOM     22  C   UNL     1       3.908  12.915  -1.099  0.00  0.00    +0.000 C 
ATOM     23  N   UNL     1       5.161  13.429  -0.853  0.00  0.00    +0.000 N 
ATOM     24  O   UNL     1       2.949  13.666  -1.242  0.00  0.00    +0.000 OA
ATOM     25  H   UNL     1       5.951  12.806  -0.732  0.00  0.00    +0.000 HD
ATOM     26  H   UNL     1       5.275  14.429  -0.790  0.00  0.00    +0.000 HD
ENDBRANCH  19  22
ENDBRANCH  15  16
ENDBRANCH   4  14
TORSDOF 5
