REMARK  Name = 
REMARK  9 active torsions:
REMARK  status: ('A' for Active; 'I' for Inactive)
REMARK    1  A    between atoms: C_1  and  C_2
REMARK    2  A    between atoms: C_2  and  N_3
REMARK    3  A    between atoms: N_3  and  C_4
REMARK    4  A    between atoms: C_6  and  N_7
REMARK    5  A    between atoms: N_7  and  C_8
REMARK    6  A    between atoms: C_8  and  C_9
REMARK    7  A    between atoms: C_9  and  C_12
REMARK    8  A    between atoms: C_19  and  C_20
REMARK    9  A    between atoms: C_25  and  O_26
REMARK                            x       y       z     vdW  Elec       q    Type
REMARK                         _______ _______ _______ _____ _____    ______ ____
ROOT
ATOM      1  C   UNL     1       3.974  -0.087  -2.021  0.00  0.00    +0.000 A 
ATOM      2  C   UNL     1       4.830  -1.179  -1.811  0.00  0.00    +0.000 A 
ATOM      3  C   UNL     1       6.056  -1.310  -2.494  0.00  0.00    +0.000 A 
ATOM      4  C   UNL     1       6.435  -0.281  -3.358  0.00  0.00    +0.000 A 
ATOM      5  C   UNL     1       5.586   0.799  -3.609  0.00  0.00    +0.000 A 
ATOM      6  C   UNL     1       4.366   0.898  -2.937  0.00  0.00    +0.000 A 
ENDROOT
BRANCH   5   7
ATOM      7  C   UNL     1       6.037   1.816  -4.592  0.00  0.00    +0.000 C 
ATOM      8  N   UNL     1       5.070   2.503  -5.268  0.00  0.00    +0.000 N 
ATOM      9  O   UNL     1       7.226   1.992  -4.839  0.00  0.00    +0.000 OA
ATOM     10  H   UNL     1       4.104   2.212  -5.278  0.00  0.00    +0.000 HD
ATOM     11  H   UNL     1       5.392   3.086  -6.030  0.00  0.00    +0.000 HD
ENDBRANCH   5   7
BRANCH   1  12
ATOM     12  N   UNL     1       2.796   0.151  -1.277  0.00  0.00    +0.000 N 
ATOM     13  H   UNL     1       2.052   0.510  -1.875  0.00  0.00    +0.000 HD
BRANCH  12  15
ATOM     14  C   UNL     1       1.623  -1.815  -0.374  0.00  0.00    +0.000 C 
ATOM     15  C   UNL     1       2.299  -0.487  -0.082  0.00  0.00    +0.000 C 
ATOM     16  C   UNL     1       3.281  -0.424   1.116  0.00  0.00    +0.000 C 
ATOM     17  C   UNL     1       2.556   0.834   1.633  0.00  0.00    +0.000 C 
ATOM     18  C   UNL     1       1.385   0.514   0.686  0.00  0.00    +0.000 C 
BRANCH  17  19
ATOM     19  O   UNL     1       3.213   2.098   1.414  0.00  0.00    +0.000 OA
ATOM     20  H   UNL     1       3.407   2.115   0.460  0.00  0.00    +0.000 HD
ENDBRANCH  17  19
ENDBRANCH  12  15
ENDBRANCH   1  12
BRANCH   3  21
ATOM     21  N   UNL     1       6.860  -2.432  -2.232  0.00  0.00    +0.000 N 
ATOM     22  H   UNL     1       6.308  -3.287  -2.318  0.00  0.00    +0.000 HD
BRANCH  21  23
ATOM     23  C   UNL     1       8.182  -2.530  -2.893  0.00  0.00    +0.000 C 
BRANCH  23  24
ATOM     24  C   UNL     1       8.938  -3.850  -2.616  0.00  0.00    +0.000 C 
ATOM     25  F   UNL     1       8.168  -4.877  -3.099  0.00  0.00    +0.000 F 
ATOM     26  F   UNL     1      10.055  -3.853  -3.408  0.00  0.00    +0.000 F 
BRANCH  24  27
ATOM     27  C   UNL     1       9.284  -4.036  -1.177  0.00  0.00    +0.000 A 
ATOM     28  C   UNL     1       8.461  -4.718  -0.303  0.00  0.00    +0.000 A 
ATOM     29  N   UNL     1       8.736  -4.891   1.001  0.00  0.00    +0.000 NA
ATOM     30  C   UNL     1       9.888  -4.353   1.430  0.00  0.00    +0.000 A 
ATOM     31  N   UNL     1      10.770  -3.676   0.677  0.00  0.00    +0.000 NA
ATOM     32  C   UNL     1      10.440  -3.535  -0.621  0.00  0.00    +0.000 A 
ENDBRANCH  24  27
ENDBRANCH  23  24
ENDBRANCH  21  23
ENDBRANCH   3  21
TORSDOF 8
