REMARK  Name = 
REMARK  4 active torsions:
REMARK  status: ('A' for Active; 'I' for Inactive)
REMARK    1  A    between atoms: C_2  and  C_4
REMARK    2  A    between atoms: C_7  and  C_8
REMARK    3  A    between atoms: C_8  and  C_9
REMARK    4  A    between atoms: C_9  and  C_10
REMARK                            x       y       z     vdW  Elec       q    Type
REMARK                         _______ _______ _______ _____ _____    ______ ____
ROOT
ATOM      1  C   UNL     1       2.254  -7.879   0.253  0.00  0.00    +0.000 A 
ATOM      2  N   UNL     1       2.883  -7.767   1.446  0.00  0.00    +0.000 NA
ATOM      3  C   UNL     1       3.775  -6.760   1.537  0.00  0.00    +0.000 A 
ATOM      4  C   UNL     1       4.085  -5.893   0.504  0.00  0.00    +0.000 A 
ATOM      5  C   UNL     1       3.368  -6.113  -0.659  0.00  0.00    +0.000 A 
ATOM      6  N   UNL     1       2.453  -7.088  -0.816  0.00  0.00    +0.000 NA
ENDROOT
BRANCH   1   8
ATOM      7  N   UNL     1       1.045  -9.749   1.265  0.00  0.00    +0.000 N 
ATOM      8  C   UNL     1       1.199  -8.959   0.145  0.00  0.00    +0.000 C 
ATOM      9  O   UNL     1       0.501  -9.145  -0.842  0.00  0.00    +0.000 OA
ATOM     10  H   UNL     1       0.324 -10.456   1.268  0.00  0.00    +0.000 HD
ATOM     11  H   UNL     1       1.603  -9.572   2.091  0.00  0.00    +0.000 HD
ENDBRANCH   1   8
BRANCH   4  12
ATOM     12  C   UNL     1       5.028  -4.727   0.622  0.00  0.00    +0.000 C 
BRANCH  12  13
ATOM     13  C   UNL     1       6.276  -4.993   1.464  0.00  0.00    +0.000 C 
ATOM     14  C   UNL     1       6.205  -4.678   2.950  0.00  0.00    +0.000 C 
ATOM     15  C   UNL     1       6.989  -3.775   2.050  0.00  0.00    +0.000 C 
BRANCH  13  16
ATOM     16  C   UNL     1       7.189  -6.106   0.949  0.00  0.00    +0.000 A 
ATOM     17  C   UNL     1       7.147  -7.410   1.471  0.00  0.00    +0.000 A 
ATOM     18  C   UNL     1       7.920  -8.443   0.932  0.00  0.00    +0.000 A 
ATOM     19  C   UNL     1       8.777  -8.186  -0.132  0.00  0.00    +0.000 A 
ATOM     20  C   UNL     1       8.860  -6.895  -0.635  0.00  0.00    +0.000 A 
ATOM     21  F   UNL     1       9.692  -6.636  -1.654  0.00  0.00    +0.000 F 
ATOM     22  C   UNL     1       8.082  -5.868  -0.112  0.00  0.00    +0.000 A 
ENDBRANCH  13  16
ENDBRANCH  12  13
ENDBRANCH   4  12
TORSDOF 4
