REMARK  Name = 
REMARK  6 active torsions:
REMARK  status: ('A' for Active; 'I' for Inactive)
REMARK    1  A    between atoms: C_2  and  C_19
REMARK    2  A    between atoms: N_3  and  C_4
REMARK    3  A    between atoms: C_4  and  C_5
REMARK    4  A    between atoms: C_8  and  C_9
REMARK    5  A    between atoms: C_9  and  O_10
REMARK    6  A    between atoms: C_9  and  C_11
REMARK                            x       y       z     vdW  Elec       q    Type
REMARK                         _______ _______ _______ _____ _____    ______ ____
ROOT
ATOM      1  C   UNL     1       2.312  -1.960  -1.256  0.00  0.00    +0.000 C 
ENDROOT
BRANCH   1   2
ATOM      2  C   UNL     1       3.248  -2.965  -1.870  0.00  0.00    +0.000 A 
ATOM      3  C   UNL     1       4.419  -2.546  -2.514  0.00  0.00    +0.000 A 
ATOM      4  C   UNL     1       5.303  -3.482  -3.059  0.00  0.00    +0.000 A 
ATOM      5  C   UNL     1       5.028  -4.856  -2.981  0.00  0.00    +0.000 A 
ATOM      6  C   UNL     1       3.824  -5.263  -2.384  0.00  0.00    +0.000 A 
ATOM      7  C   UNL     1       2.945  -4.330  -1.835  0.00  0.00    +0.000 A 
BRANCH   5   8
ATOM      8  C   UNL     1       5.987  -5.868  -3.582  0.00  0.00    +0.000 C 
BRANCH   8   9
ATOM      9  C   UNL     1       5.703  -6.136  -5.053  0.00  0.00    +0.000 A 
ATOM     10  C   UNL     1       6.332  -5.385  -6.045  0.00  0.00    +0.000 A 
ATOM     11  C   UNL     1       5.997  -5.619  -7.375  0.00  0.00    +0.000 A 
ATOM     12  C   UNL     1       5.048  -6.589  -7.679  0.00  0.00    +0.000 A 
ATOM     13  C   UNL     1       4.485  -7.306  -6.638  0.00  0.00    +0.000 A 
ATOM     14  N   UNL     1       4.799  -7.117  -5.338  0.00  0.00    +0.000 NA
ENDBRANCH   8   9
BRANCH   8  15
ATOM     15  O   UNL     1       5.911  -7.099  -2.846  0.00  0.00    +0.000 OA
ATOM     16  H   UNL     1       5.446  -7.710  -3.452  0.00  0.00    +0.000 HD
ENDBRANCH   8  15
ENDBRANCH   5   8
ENDBRANCH   1   2
BRANCH   1  19
ATOM     17  O   UNL     1       2.287   0.347  -2.860  0.00  0.00    +0.000 OA
ATOM     18  C   UNL     1       1.371  -0.463  -2.968  0.00  0.00    +0.000 C 
ATOM     19  N   UNL     1       1.278  -1.582  -2.184  0.00  0.00    +0.000 N 
ATOM     20  H   UNL     1       0.619  -2.311  -2.434  0.00  0.00    +0.000 HD
BRANCH  18  21
ATOM     21  C   UNL     1       0.276  -0.251  -3.922  0.00  0.00    +0.000 A 
ATOM     22  C   UNL     1       0.009   1.028  -4.394  0.00  0.00    +0.000 A 
ATOM     23  S   UNL     1      -1.291   1.089  -5.498  0.00  0.00    +0.000 S 
ATOM     24  C   UNL     1      -1.509  -0.595  -5.413  0.00  0.00    +0.000 A 
ATOM     25  N   UNL     1      -2.446  -1.234  -6.157  0.00  0.00    +0.000 NA
ATOM     26  N   UNL     1      -2.542  -2.485  -6.085  0.00  0.00    +0.000 NA
ATOM     27  N   UNL     1      -1.726  -3.170  -5.229  0.00  0.00    +0.000 N 
ATOM     28  C   UNL     1      -0.791  -2.616  -4.387  0.00  0.00    +0.000 A 
ATOM     29  O   UNL     1      -0.163  -3.294  -3.581  0.00  0.00    +0.000 OA
ATOM     30  C   UNL     1      -0.641  -1.186  -4.525  0.00  0.00    +0.000 A 
ATOM     31  H   UNL     1      -1.866  -4.171  -5.191  0.00  0.00    +0.000 HD
ENDBRANCH  18  21
ENDBRANCH   1  19
TORSDOF 6
