REMARK  Name = 
REMARK  10 active torsions:
REMARK  status: ('A' for Active; 'I' for Inactive)
REMARK    1  A    between atoms: N_1  and  C_2
REMARK    2  A    between atoms: C_2  and  C_3
REMARK    3  A    between atoms: C_3  and  N_4
REMARK    4  A    between atoms: C_3  and  C_20
REMARK    5  A    between atoms: N_4  and  C_5
REMARK    6  A    between atoms: C_5  and  C_6
REMARK    7  A    between atoms: C_9  and  C_10
REMARK    8  A    between atoms: C_10  and  N_11
REMARK    9  A    between atoms: N_11  and  C_12
REMARK   10  A    between atoms: C_12  and  C_13
REMARK                            x       y       z     vdW  Elec       q    Type
REMARK                         _______ _______ _______ _____ _____    ______ ____
ROOT
ATOM      1  N   UNL     1      -7.827  -6.761  -5.633  0.00  0.00    +0.000 NA
ATOM      2  H   UNL     1      -7.171  -7.535  -5.716  0.00  0.00    +0.000 HD
ENDROOT
BRANCH   1   3
ATOM      3  C   UNL     1      -8.940  -7.167  -4.755  0.00  0.00    +0.000 C 
BRANCH   3   4
ATOM      4  C   UNL     1      -9.637  -8.350  -5.427  0.00  0.00    +0.000 A 
ATOM      5  C   UNL     1      -9.697  -8.561  -6.800  0.00  0.00    +0.000 A 
ATOM      6  S   UNL     1     -10.664  -9.894  -7.245  0.00  0.00    +0.000 S 
ATOM      7  C   UNL     1     -11.055 -10.228  -5.626  0.00  0.00    +0.000 A 
ATOM      8  N   UNL     1     -11.927 -11.219  -5.301  0.00  0.00    +0.000 NA
ATOM      9  C   UNL     1     -12.148 -11.338  -4.034  0.00  0.00    +0.000 A 
ATOM     10  N   UNL     1     -11.542 -10.587  -3.057  0.00  0.00    +0.000 N 
ATOM     11  C   UNL     1     -10.614  -9.604  -3.334  0.00  0.00    +0.000 A 
ATOM     12  O   UNL     1     -10.024  -9.006  -2.438  0.00  0.00    +0.000 OA
ATOM     13  C   UNL     1     -10.397  -9.379  -4.752  0.00  0.00    +0.000 A 
ATOM     14  H   UNL     1     -11.730 -10.759  -2.084  0.00  0.00    +0.000 HD
ENDBRANCH   3   4
BRANCH   3  15
ATOM     15  C   UNL     1      -9.968  -6.018  -4.464  0.00  0.00    +0.000 C 
BRANCH  15  16
ATOM     16  N   UNL     1     -10.988  -6.335  -3.454  0.00  0.00    +0.000 NA
ATOM     17  H   UNL     1     -11.283  -5.472  -2.999  0.00  0.00    +0.000 HD
ATOM     18  H   UNL     1     -10.573  -6.919  -2.722  0.00  0.00    +0.000 HD
ENDBRANCH  15  16
ENDBRANCH   3  15
ENDBRANCH   1   3
BRANCH   1  19
ATOM     19  C   UNL     1      -7.114  -5.550  -5.220  0.00  0.00    +0.000 C 
BRANCH  19  20
ATOM     20  C   UNL     1      -5.988  -5.186  -6.167  0.00  0.00    +0.000 A 
ATOM     21  C   UNL     1      -4.672  -5.118  -5.723  0.00  0.00    +0.000 A 
ATOM     22  N   UNL     1      -3.638  -4.766  -6.526  0.00  0.00    +0.000 NA
ATOM     23  C   UNL     1      -3.966  -4.467  -7.813  0.00  0.00    +0.000 A 
ATOM     24  C   UNL     1      -5.282  -4.525  -8.254  0.00  0.00    +0.000 A 
ATOM     25  N   UNL     1      -6.309  -4.877  -7.450  0.00  0.00    +0.000 NA
BRANCH  23  26
ATOM     26  C   UNL     1      -2.853  -4.126  -8.778  0.00  0.00    +0.000 C 
BRANCH  26  27
ATOM     27  N   UNL     1      -1.823  -5.171  -8.892  0.00  0.00    +0.000 NA
ATOM     28  H   UNL     1      -1.480  -5.340  -7.943  0.00  0.00    +0.000 HD
BRANCH  27  29
ATOM     29  C   UNL     1      -2.357  -6.425  -9.434  0.00  0.00    +0.000 C 
BRANCH  29  30
ATOM     30  C   UNL     1      -1.254  -7.478  -9.549  0.00  0.00    +0.000 C 
ATOM     31  C   UNL     1      -0.579  -7.827  -8.229  0.00  0.00    +0.000 C 
ATOM     32  C   UNL     1      -0.028  -9.207  -8.511  0.00  0.00    +0.000 C 
ATOM     33  N   UNL     1      -1.101  -9.874  -9.256  0.00  0.00    +0.000 NA
ATOM     34  C   UNL     1      -1.773  -8.829 -10.050  0.00  0.00    +0.000 C 
ATOM     35  H   UNL     1      -1.775 -10.244  -8.583  0.00  0.00    +0.000 HD
ENDBRANCH  29  30
ENDBRANCH  27  29
ENDBRANCH  26  27
ENDBRANCH  23  26
ENDBRANCH  19  20
ENDBRANCH   1  19
TORSDOF 10
