REMARK  Name = 
REMARK  10 active torsions:
REMARK  status: ('A' for Active; 'I' for Inactive)
REMARK    1  A    between atoms: C_1  and  O_2
REMARK    2  A    between atoms: O_2  and  C_3
REMARK    3  A    between atoms: C_10  and  C_11
REMARK    4  A    between atoms: N_13  and  C_14
REMARK    5  A    between atoms: C_14  and  C_15
REMARK    6  A    between atoms: C_18  and  C_19
REMARK    7  A    between atoms: C_19  and  N_20
REMARK    8  A    between atoms: N_20  and  C_21
REMARK    9  A    between atoms: C_21  and  C_22
REMARK   10  A    between atoms: C_21  and  C_23
REMARK                            x       y       z     vdW  Elec       q    Type
REMARK                         _______ _______ _______ _____ _____    ______ ____
ROOT
ATOM      1  C   UNL     1       1.790  -0.549   3.358  0.00  0.00    +0.000 A 
ATOM      2  C   UNL     1       0.528  -1.043   3.714  0.00  0.00    +0.000 A 
ATOM      3  C   UNL     1      -0.528  -0.167   3.986  0.00  0.00    +0.000 A 
ATOM      4  C   UNL     1      -0.350   1.222   3.905  0.00  0.00    +0.000 A 
ATOM      5  C   UNL     1       0.905   1.714   3.522  0.00  0.00    +0.000 A 
ATOM      6  C   UNL     1       1.962   0.838   3.247  0.00  0.00    +0.000 A 
ENDROOT
BRANCH   1   7
ATOM      7  C   UNL     1       2.925  -1.490   3.045  0.00  0.00    +0.000 C 
BRANCH   7  10
ATOM      8  C   UNL     1       3.846  -2.698   1.106  0.00  0.00    +0.000 C 
ATOM      9  O   UNL     1       4.695  -3.248   1.805  0.00  0.00    +0.000 OA
ATOM     10  N   UNL     1       2.946  -1.820   1.640  0.00  0.00    +0.000 N 
ATOM     11  H   UNL     1       2.286  -1.341   1.044  0.00  0.00    +0.000 HD
BRANCH   8  19
ATOM     12  C   UNL     1       1.674  -1.662  -1.361  0.00  0.00    +0.000 A 
ATOM     13  N   UNL     1       0.986  -1.425  -2.495  0.00  0.00    +0.000 NA
ATOM     14  C   UNL     1       1.408  -2.010  -3.619  0.00  0.00    +0.000 A 
ATOM     15  N   UNL     1       2.453  -2.822  -3.756  0.00  0.00    +0.000 NA
ATOM     16  C   UNL     1       3.112  -3.029  -2.603  0.00  0.00    +0.000 A 
ATOM     17  S   UNL     1       4.475  -4.041  -2.589  0.00  0.00    +0.000 S 
ATOM     18  C   UNL     1       4.697  -3.802  -0.922  0.00  0.00    +0.000 A 
ATOM     19  C   UNL     1       3.756  -2.959  -0.342  0.00  0.00    +0.000 A 
ATOM     20  C   UNL     1       2.808  -2.494  -1.355  0.00  0.00    +0.000 A 
BRANCH  12  22
ATOM     21  C   UNL     1      -0.108  -0.644  -0.231  0.00  0.00    +0.000 C 
ATOM     22  O   UNL     1       1.266  -1.022  -0.209  0.00  0.00    +0.000 OA
ENDBRANCH  12  22
ENDBRANCH   8  19
ENDBRANCH   7  10
ENDBRANCH   1   7
BRANCH   4  23
ATOM     23  C   UNL     1      -1.501   2.166   4.191  0.00  0.00    +0.000 C 
BRANCH  23  24
ATOM     24  N   UNL     1      -2.030   1.959   5.539  0.00  0.00    +0.000 NA
ATOM     25  H   UNL     1      -1.262   2.093   6.199  0.00  0.00    +0.000 HD
BRANCH  24  26
ATOM     26  C   UNL     1      -3.094   2.916   5.910  0.00  0.00    +0.000 C 
ATOM     27  C   UNL     1      -4.344   2.803   5.027  0.00  0.00    +0.000 C 
BRANCH  26  28
ATOM     28  C   UNL     1      -3.496   2.735   7.376  0.00  0.00    +0.000 A 
ATOM     29  C   UNL     1      -3.956   1.502   7.843  0.00  0.00    +0.000 A 
ATOM     30  C   UNL     1      -4.322   1.375   9.180  0.00  0.00    +0.000 A 
ATOM     31  C   UNL     1      -4.218   2.475  10.019  0.00  0.00    +0.000 A 
ATOM     32  C   UNL     1      -3.748   3.663   9.484  0.00  0.00    +0.000 A 
ATOM     33  N   UNL     1      -3.386   3.818   8.189  0.00  0.00    +0.000 NA
ENDBRANCH  26  28
ENDBRANCH  24  26
ENDBRANCH  23  24
ENDBRANCH   4  23
TORSDOF 8
