REMARK  Name = 
REMARK  10 active torsions:
REMARK  status: ('A' for Active; 'I' for Inactive)
REMARK    1  A    between atoms: C_1  and  O_2
REMARK    2  A    between atoms: O_2  and  C_3
REMARK    3  A    between atoms: C_3  and  C_5
REMARK    4  A    between atoms: C_8  and  N_9
REMARK    5  A    between atoms: N_9  and  C_10
REMARK    6  A    between atoms: C_10  and  C_11
REMARK    7  A    between atoms: C_11  and  C_12
REMARK    8  A    between atoms: C_11  and  C_13
REMARK    9  A    between atoms: C_16  and  C_17
REMARK   10  A    between atoms: C_17  and  N_18
REMARK                            x       y       z     vdW  Elec       q    Type
REMARK                         _______ _______ _______ _____ _____    ______ ____
ROOT
ATOM      1  C   UNL     1       9.451  -0.195  -0.794  0.00  0.00    +0.000 C 
ENDROOT
BRANCH   1   2
ATOM      2  N   UNL     1       8.655   1.041  -0.797  0.00  0.00    +0.000 N 
ATOM      3  H   UNL     1       8.930   1.694  -0.066  0.00  0.00    +0.000 HD
BRANCH   2   7
ATOM      4  C   UNL     1       4.498   1.033  -1.167  0.00  0.00    +0.000 A 
ATOM      5  C   UNL     1       5.199  -0.041  -1.702  0.00  0.00    +0.000 A 
ATOM      6  C   UNL     1       6.589  -0.072  -1.559  0.00  0.00    +0.000 A 
ATOM      7  C   UNL     1       7.259   0.945  -0.877  0.00  0.00    +0.000 A 
ATOM      8  C   UNL     1       6.452   1.983  -0.395  0.00  0.00    +0.000 A 
ATOM      9  N   UNL     1       5.104   2.048  -0.502  0.00  0.00    +0.000 NA
BRANCH   4  10
ATOM     10  C   UNL     1       3.015   1.108  -1.359  0.00  0.00    +0.000 C 
ATOM     11  O   UNL     1       2.363   0.265  -1.960  0.00  0.00    +0.000 OA
BRANCH  10  13
ATOM     12  C   UNL     1       1.126   2.431  -0.951  0.00  0.00    +0.000 C 
ATOM     13  O   UNL     1       2.527   2.236  -0.790  0.00  0.00    +0.000 OA
ENDBRANCH  10  13
ENDBRANCH   4  10
ENDBRANCH   2   7
ENDBRANCH   1   2
BRANCH   1  14
ATOM     14  C   UNL     1      10.966   0.099  -0.653  0.00  0.00    +0.000 C 
ATOM     15  C   UNL     1      11.310   0.810   0.664  0.00  0.00    +0.000 C 
BRANCH  14  16
ATOM     16  C   UNL     1      11.802  -1.173  -0.780  0.00  0.00    +0.000 A 
ATOM     17  C   UNL     1      12.754  -1.293  -1.802  0.00  0.00    +0.000 A 
ATOM     18  C   UNL     1      13.572  -2.427  -1.895  0.00  0.00    +0.000 A 
ATOM     19  C   UNL     1      13.454  -3.473  -0.971  0.00  0.00    +0.000 A 
ATOM     20  C   UNL     1      12.490  -3.363   0.039  0.00  0.00    +0.000 A 
ATOM     21  C   UNL     1      11.676  -2.230   0.134  0.00  0.00    +0.000 A 
BRANCH  19  22
ATOM     22  C   UNL     1      14.320  -4.705  -1.071  0.00  0.00    +0.000 C 
BRANCH  22  23
ATOM     23  N   UNL     1      15.111  -4.919   0.136  0.00  0.00    +0.000 NA
ATOM     24  H   UNL     1      15.727  -4.118   0.271  0.00  0.00    +0.000 HD
ATOM     25  H   UNL     1      15.716  -5.726  -0.000  0.00  0.00    +0.000 HD
ENDBRANCH  22  23
ENDBRANCH  19  22
ENDBRANCH  14  16
ENDBRANCH   1  14
TORSDOF 8
