REMARK  Name = 
REMARK  7 active torsions:
REMARK  status: ('A' for Active; 'I' for Inactive)
REMARK    1  A    between atoms: C_1  and  C_2
REMARK    2  A    between atoms: C_2  and  C_3
REMARK    3  A    between atoms: C_5  and  C_6
REMARK    4  A    between atoms: C_11  and  O_12
REMARK    5  A    between atoms: O_12  and  C_13
REMARK    6  A    between atoms: C_13  and  C_14
REMARK    7  A    between atoms: C_18  and  N_19
REMARK                            x       y       z     vdW  Elec       q    Type
REMARK                         _______ _______ _______ _____ _____    ______ ____
ROOT
ATOM      1  O   UNL     1       2.928  -2.492   1.350  0.00  0.00    +0.000 OA
ENDROOT
BRANCH   1   7
ATOM      2  C   UNL     1       2.248  -0.090   1.355  0.00  0.00    +0.000 A 
ATOM      3  C   UNL     1       2.267   1.096   2.122  0.00  0.00    +0.000 A 
ATOM      4  C   UNL     1       2.846   1.163   3.394  0.00  0.00    +0.000 A 
ATOM      5  C   UNL     1       3.432   0.013   3.918  0.00  0.00    +0.000 A 
ATOM      6  C   UNL     1       3.441  -1.168   3.167  0.00  0.00    +0.000 A 
ATOM      7  C   UNL     1       2.869  -1.232   1.884  0.00  0.00    +0.000 A 
BRANCH   4   8
ATOM      8  C   UNL     1       2.756   2.465   4.105  0.00  0.00    +0.000 C 
ATOM      9  N   UNL     1       3.292   2.570   5.358  0.00  0.00    +0.000 N 
ATOM     10  O   UNL     1       2.211   3.444   3.599  0.00  0.00    +0.000 OA
ATOM     11  H   UNL     1       3.757   1.832   5.857  0.00  0.00    +0.000 HD
ATOM     12  H   UNL     1       3.207   3.472   5.810  0.00  0.00    +0.000 HD
ENDBRANCH   4   8
BRANCH   2  14
ATOM     13  C   UNL     1      -0.002  -0.508   0.352  0.00  0.00    +0.000 C 
ATOM     14  C   UNL     1       1.414  -0.012   0.097  0.00  0.00    +0.000 C 
ENDBRANCH   2  14
ENDBRANCH   1   7
BRANCH   1  15
ATOM     15  C   UNL     1       3.039  -2.626  -0.066  0.00  0.00    +0.000 C 
BRANCH  15  16
ATOM     16  C   UNL     1       3.267  -4.063  -0.472  0.00  0.00    +0.000 A 
ATOM     17  C   UNL     1       3.915  -4.375  -1.670  0.00  0.00    +0.000 A 
ATOM     18  C   UNL     1       4.001  -5.700  -2.086  0.00  0.00    +0.000 A 
ATOM     19  C   UNL     1       3.449  -6.721  -1.303  0.00  0.00    +0.000 A 
ATOM     20  C   UNL     1       2.797  -6.447  -0.094  0.00  0.00    +0.000 A 
ATOM     21  C   UNL     1       2.696  -5.101   0.277  0.00  0.00    +0.000 A 
BRANCH  20  22
ATOM     22  N   UNL     1       2.312  -7.442   0.725  0.00  0.00    +0.000 N 
ATOM     23  C   UNL     1       2.278  -7.270   2.183  0.00  0.00    +0.000 C 
ATOM     24  C   UNL     1       2.840  -8.536   2.866  0.00  0.00    +0.000 C 
ATOM     25  N   UNL     1       2.161  -9.783   2.450  0.00  0.00    +0.000 NA
ATOM     26  C   UNL     1       2.236  -9.894   0.975  0.00  0.00    +0.000 C 
ATOM     27  C   UNL     1       1.680  -8.664   0.221  0.00  0.00    +0.000 C 
ATOM     28  H   UNL     1       1.178  -9.698   2.707  0.00  0.00    +0.000 HD
ENDBRANCH  20  22
ENDBRANCH  15  16
ENDBRANCH   1  15
TORSDOF 6
