REMARK  Name = 
REMARK  5 active torsions:
REMARK  status: ('A' for Active; 'I' for Inactive)
REMARK    1  A    between atoms: C_2  and  C_3
REMARK    2  A    between atoms: C_8  and  N_9
REMARK    3  A    between atoms: N_9  and  C_10
REMARK    4  A    between atoms: C_10  and  C_11
REMARK    5  A    between atoms: C_15  and  C_16
REMARK                            x       y       z     vdW  Elec       q    Type
REMARK                         _______ _______ _______ _____ _____    ______ ____
ROOT
ATOM      1  C   UNL     1       1.843  -2.634   0.303  0.00  0.00    +0.000 C 
ATOM      2  C   UNL     1       1.069  -1.564  -0.478  0.00  0.00    +0.000 C 
ATOM      3  C   UNL     1       0.527  -2.075   0.809  0.00  0.00    +0.000 C 
ENDROOT
BRANCH   1   4
ATOM      4  C   UNL     1       1.832  -4.051  -0.277  0.00  0.00    +0.000 A 
ATOM      5  C   UNL     1       1.543  -5.167   0.520  0.00  0.00    +0.000 A 
ATOM      6  C   UNL     1       1.451  -6.447  -0.020  0.00  0.00    +0.000 A 
ATOM      7  C   UNL     1       1.621  -6.637  -1.389  0.00  0.00    +0.000 A 
ATOM      8  C   UNL     1       1.884  -5.556  -2.246  0.00  0.00    +0.000 A 
ATOM      9  C   UNL     1       2.031  -4.285  -1.654  0.00  0.00    +0.000 A 
BRANCH   8  10
ATOM     10  C   UNL     1       1.892  -5.721  -3.719  0.00  0.00    +0.000 A 
ATOM     11  C   UNL     1       1.002  -6.619  -4.343  0.00  0.00    +0.000 A 
ATOM     12  C   UNL     1       0.925  -6.728  -5.734  0.00  0.00    +0.000 A 
ATOM     13  C   UNL     1       1.735  -5.931  -6.532  0.00  0.00    +0.000 A 
ATOM     14 CL   UNL     1       1.612  -6.032  -8.245  0.00  0.00    +0.000 Cl
ATOM     15  C   UNL     1       2.633  -5.042  -5.950  0.00  0.00    +0.000 A 
ATOM     16  C   UNL     1       2.717  -4.946  -4.555  0.00  0.00    +0.000 A 
ENDBRANCH   8  10
ENDBRANCH   1   4
BRANCH   1  17
ATOM     17  N   UNL     1       3.145  -2.178   0.773  0.00  0.00    +0.000 N 
ATOM     18  H   UNL     1       3.840  -1.906   0.083  0.00  0.00    +0.000 HD
BRANCH  17  24
ATOM     19  C   UNL     1       3.244  -2.651   3.232  0.00  0.00    +0.000 A 
ATOM     20  C   UNL     1       4.068  -2.605   4.373  0.00  0.00    +0.000 A 
ATOM     21  C   UNL     1       5.373  -2.135   4.276  0.00  0.00    +0.000 A 
ATOM     22  C   UNL     1       5.812  -1.730   3.038  0.00  0.00    +0.000 A 
ATOM     23  N   UNL     1       5.048  -1.784   1.925  0.00  0.00    +0.000 NA
ATOM     24  C   UNL     1       3.769  -2.240   2.010  0.00  0.00    +0.000 A 
BRANCH  19  26
ATOM     25  N   UNL     1       0.843  -3.501   3.697  0.00  0.00    +0.000 NA
ATOM     26  C   UNL     1       1.907  -3.111   3.434  0.00  0.00    +0.000 C 
ENDBRANCH  19  26
ENDBRANCH  17  24
ENDBRANCH   1  17
TORSDOF 5
