REMARK  Name = 
REMARK  5 active torsions:
REMARK  status: ('A' for Active; 'I' for Inactive)
REMARK    1  A    between atoms: C_2  and  C_4
REMARK    2  A    between atoms: C_7  and  O_8
REMARK    3  A    between atoms: O_8  and  C_9
REMARK    4  A    between atoms: C_9  and  C_10
REMARK    5  A    between atoms: C_15  and  C_16
REMARK                            x       y       z     vdW  Elec       q    Type
REMARK                         _______ _______ _______ _____ _____    ______ ____
ROOT
ATOM      1  C   UNL     1       6.153   0.259   6.908  0.00  0.00    +0.000 A 
ATOM      2  C   UNL     1       6.330   1.591   7.302  0.00  0.00    +0.000 A 
ATOM      3  C   UNL     1       7.190   1.900   8.351  0.00  0.00    +0.000 A 
ATOM      4  C   UNL     1       7.878   0.882   9.009  0.00  0.00    +0.000 A 
ATOM      5  F   UNL     1       8.717   1.244   9.992  0.00  0.00    +0.000 F 
ATOM      6  C   UNL     1       7.723  -0.471   8.663  0.00  0.00    +0.000 A 
ATOM      7  C   UNL     1       6.830  -0.755   7.610  0.00  0.00    +0.000 A 
ENDROOT
BRANCH   6   8
ATOM      8  C   UNL     1       8.463  -1.555   9.347  0.00  0.00    +0.000 A 
ATOM      9  C   UNL     1       8.800  -1.500  10.706  0.00  0.00    +0.000 A 
ATOM     10  N   UNL     1       9.490  -2.455  11.385  0.00  0.00    +0.000 NA
ATOM     11  C   UNL     1       9.872  -3.538  10.676  0.00  0.00    +0.000 A 
ATOM     12  C   UNL     1       9.584  -3.705   9.337  0.00  0.00    +0.000 A 
ATOM     13  F   UNL     1       9.978  -4.805   8.683  0.00  0.00    +0.000 F 
ATOM     14  C   UNL     1       8.880  -2.711   8.668  0.00  0.00    +0.000 A 
ENDBRANCH   6   8
BRANCH   1  15
ATOM     15  C   UNL     1       5.182  -0.067   5.793  0.00  0.00    +0.000 C 
BRANCH  15  16
ATOM     16  O   UNL     1       5.608  -1.232   5.075  0.00  0.00    +0.000 OA
BRANCH  16  20
ATOM     17  C   UNL     1       3.039  -2.258   2.027  0.00  0.00    +0.000 A 
ATOM     18  C   UNL     1       4.167  -3.044   2.272  0.00  0.00    +0.000 A 
ATOM     19  C   UNL     1       5.031  -2.686   3.308  0.00  0.00    +0.000 A 
ATOM     20  C   UNL     1       4.734  -1.558   4.059  0.00  0.00    +0.000 A 
ATOM     21  N   UNL     1       3.653  -0.779   3.840  0.00  0.00    +0.000 NA
ATOM     22  C   UNL     1       2.836  -1.140   2.824  0.00  0.00    +0.000 A 
BRANCH  17  24
ATOM     23  N   UNL     1       1.924  -3.830   0.547  0.00  0.00    +0.000 N 
ATOM     24  C   UNL     1       2.066  -2.533   0.952  0.00  0.00    +0.000 C 
ATOM     25  O   UNL     1       1.383  -1.640   0.470  0.00  0.00    +0.000 OA
ATOM     26  H   UNL     1       1.173  -4.010  -0.108  0.00  0.00    +0.000 HD
ATOM     27  H   UNL     1       2.272  -4.612   1.083  0.00  0.00    +0.000 HD
ENDBRANCH  17  24
ENDBRANCH  16  20
ENDBRANCH  15  16
ENDBRANCH   1  15
TORSDOF 5
