REMARK  Name = 
REMARK  11 active torsions:
REMARK  status: ('A' for Active; 'I' for Inactive)
REMARK    1  A    between atoms: C_1  and  N_2
REMARK    2  A    between atoms: N_2  and  C_3
REMARK    3  A    between atoms: N_2  and  C_4
REMARK    4  A    between atoms: C_4  and  C_5
REMARK    5  A    between atoms: C_5  and  N_6
REMARK    6  A    between atoms: C_7  and  C_9
REMARK    7  A    between atoms: C_12  and  C_13
REMARK    8  A    between atoms: C_14  and  C_15
REMARK    9  A    between atoms: C_15  and  C_16
REMARK   10  A    between atoms: C_15  and  C_17
REMARK   11  A    between atoms: C_15  and  C_18
REMARK                            x       y       z     vdW  Elec       q    Type
REMARK                         _______ _______ _______ _____ _____    ______ ____
ROOT
ATOM      1  C   UNL     1       6.931  -4.146   1.616  0.00  0.00    +0.000 A 
ATOM      2  C   UNL     1       6.408  -5.377   1.210  0.00  0.00    +0.000 A 
ATOM      3  C   UNL     1       6.883  -6.556   1.799  0.00  0.00    +0.000 A 
ATOM      4  C   UNL     1       7.856  -6.474   2.793  0.00  0.00    +0.000 A 
ATOM      5  N   UNL     1       8.415  -5.303   3.170  0.00  0.00    +0.000 NA
ATOM      6  C   UNL     1       7.954  -4.173   2.567  0.00  0.00    +0.000 A 
ENDROOT
BRANCH   1   8
ATOM      7  N   UNL     1       5.174  -2.744   0.622  0.00  0.00    +0.000 N 
ATOM      8  C   UNL     1       6.481  -2.835   1.076  0.00  0.00    +0.000 C 
ATOM      9  O   UNL     1       7.263  -1.882   1.056  0.00  0.00    +0.000 OA
ATOM     10  H   UNL     1       4.490  -3.455   0.880  0.00  0.00    +0.000 HD
BRANCH   7  11
ATOM     11  C   UNL     1       4.640  -1.464   0.162  0.00  0.00    +0.000 C 
BRANCH  11  12
ATOM     12  C   UNL     1       3.152  -1.485  -0.274  0.00  0.00    +0.000 C 
BRANCH  12  14
ATOM     13  C   UNL     1       2.252  -0.965   1.920  0.00  0.00    +0.000 C 
ATOM     14  N   UNL     1       2.210  -1.903   0.791  0.00  0.00    +0.000 NA
ATOM     15  C   UNL     1       0.831  -1.968   0.287  0.00  0.00    +0.000 C 
ENDBRANCH  12  14
ENDBRANCH  11  12
ENDBRANCH   7  11
ENDBRANCH   1   8
BRANCH   4  16
ATOM     16  C   UNL     1       8.307  -7.644   3.509  0.00  0.00    +0.000 C 
ATOM     17  C   UNL     1       8.649  -8.723   4.157  0.00  0.00    +0.000 C 
BRANCH  17  18
ATOM     18  C   UNL     1       9.046  -9.980   4.914  0.00  0.00    +0.000 C 
ATOM     19  C   UNL     1       9.749 -10.904   3.895  0.00  0.00    +0.000 C 
ATOM     20  C   UNL     1      10.043  -9.604   6.021  0.00  0.00    +0.000 C 
BRANCH  18  21
ATOM     21  C   UNL     1       7.807 -10.632   5.540  0.00  0.00    +0.000 A 
ATOM     22  C   UNL     1       7.696 -12.014   5.750  0.00  0.00    +0.000 A 
ATOM     23  C   UNL     1       6.523 -12.558   6.273  0.00  0.00    +0.000 A 
ATOM     24  C   UNL     1       5.485 -11.703   6.591  0.00  0.00    +0.000 A 
ATOM     25  N   UNL     1       5.557 -10.366   6.457  0.00  0.00    +0.000 NA
ATOM     26  C   UNL     1       6.711  -9.866   5.953  0.00  0.00    +0.000 A 
ENDBRANCH  18  21
ENDBRANCH  17  18
ENDBRANCH   4  16
TORSDOF 7
