REMARK  Name = 
REMARK  5 active torsions:
REMARK  status: ('A' for Active; 'I' for Inactive)
REMARK    1  A    between atoms: N_1  and  C_2
REMARK    2  A    between atoms: C_2  and  C_3
REMARK    3  A    between atoms: C_3  and  C_4
REMARK    4  A    between atoms: N_6  and  C_7
REMARK    5  A    between atoms: C_7  and  C_8
REMARK                            x       y       z     vdW  Elec       q    Type
REMARK                         _______ _______ _______ _____ _____    ______ ____
ROOT
ATOM      1  C   UNL     1       4.400   0.954  -1.037  0.00  0.00    +0.000 A 
ATOM      2  C   UNL     1       5.188   1.782  -0.263  0.00  0.00    +0.000 A 
ATOM      3  N   UNL     1       6.506   1.486  -0.509  0.00  0.00    +0.000 N 
ATOM      4  C   UNL     1       6.595   0.494  -1.463  0.00  0.00    +0.000 A 
ATOM      5  C   UNL     1       7.715  -0.125  -2.047  0.00  0.00    +0.000 A 
ATOM      6  C   UNL     1       7.492  -1.130  -2.993  0.00  0.00    +0.000 A 
ATOM      7  C   UNL     1       6.200  -1.504  -3.350  0.00  0.00    +0.000 A 
ATOM      8  C   UNL     1       5.093  -0.878  -2.768  0.00  0.00    +0.000 A 
ATOM      9  C   UNL     1       5.288   0.141  -1.809  0.00  0.00    +0.000 A 
ENDROOT
BRANCH   1  10
ATOM     10  C   UNL     1       2.904   0.905  -1.030  0.00  0.00    +0.000 C 
BRANCH  10  11
ATOM     11  C   UNL     1       2.378  -0.048   0.051  0.00  0.00    +0.000 C 
BRANCH  11  12
ATOM     12  N   UNL     1       0.915  -0.095   0.074  0.00  0.00    +0.000 NA
ATOM     13  H   UNL     1       0.618  -0.766   0.782  0.00  0.00    +0.000 HD
ATOM     14  H   UNL     1       0.574  -0.456  -0.817  0.00  0.00    +0.000 HD
ENDBRANCH  11  12
ENDBRANCH  10  11
ENDBRANCH   1  10
BRANCH   3  15
ATOM     15  C   UNL     1       7.626   2.075   0.219  0.00  0.00    +0.000 C 
BRANCH  15  16
ATOM     16  C   UNL     1       8.233   3.241  -0.517  0.00  0.00    +0.000 A 
ATOM     17  C   UNL     1       7.495   4.402  -0.753  0.00  0.00    +0.000 A 
ATOM     18  C   UNL     1       8.085   5.447  -1.458  0.00  0.00    +0.000 A 
ATOM     19  C   UNL     1       9.396   5.318  -1.895  0.00  0.00    +0.000 A 
ATOM     20  C   UNL     1      10.072   4.148  -1.595  0.00  0.00    +0.000 A 
ATOM     21  N   UNL     1       9.525   3.115  -0.916  0.00  0.00    +0.000 NA
ENDBRANCH  15  16
ENDBRANCH   3  15
TORSDOF 5
