REMARK  Name = 
REMARK  11 active torsions:
REMARK  status: ('A' for Active; 'I' for Inactive)
REMARK    1  A    between atoms: C_1  and  C_2
REMARK    2  A    between atoms: C_2  and  C_3
REMARK    3  A    between atoms: C_2  and  C_4
REMARK    4  A    between atoms: C_2  and  C_15
REMARK    5  A    between atoms: C_4  and  O_5
REMARK    6  A    between atoms: O_5  and  C_6
REMARK    7  A    between atoms: C_10  and  C_11
REMARK    8  A    between atoms: C_20  and  O_21
REMARK    9  A    between atoms: O_21  and  C_22
REMARK   10  A    between atoms: C_24  and  C_25
REMARK   11  A    between atoms: C_24  and  C_26
REMARK                            x       y       z     vdW  Elec       q    Type
REMARK                         _______ _______ _______ _____ _____    ______ ____
ROOT
ATOM      1  C   UNL     1       0.924   0.058   0.030  0.00  0.00    +0.000 C 
ATOM      2  C   UNL     1       2.466   0.016   0.121  0.00  0.00    +0.000 C 
ATOM      3  C   UNL     1       3.006   0.104  -1.328  0.00  0.00    +0.000 C 
ENDROOT
BRANCH   2   4
ATOM      4  C   UNL     1       2.895  -1.262   0.874  0.00  0.00    +0.000 A 
ATOM      5  C   UNL     1       3.753  -2.219   0.310  0.00  0.00    +0.000 A 
ATOM      6  C   UNL     1       4.134  -3.345   1.038  0.00  0.00    +0.000 A 
ATOM      7  F   UNL     1       4.961  -4.237   0.478  0.00  0.00    +0.000 F 
ATOM      8  C   UNL     1       3.676  -3.556   2.329  0.00  0.00    +0.000 A 
ATOM      9  C   UNL     1       2.806  -2.637   2.909  0.00  0.00    +0.000 A 
ATOM     10  C   UNL     1       2.429  -1.500   2.195  0.00  0.00    +0.000 A 
BRANCH   9  11
ATOM     11  O   UNL     1       2.413  -2.933   4.188  0.00  0.00    +0.000 OA
BRANCH  11  12
ATOM     12  C   UNL     1       1.208  -2.333   4.711  0.00  0.00    +0.000 C 
ATOM     13  C   UNL     1      -0.120  -2.702   4.103  0.00  0.00    +0.000 C 
ATOM     14  C   UNL     1       0.280  -3.323   5.417  0.00  0.00    +0.000 C 
ATOM     15  C   UNL     1       0.664  -4.783   5.434  0.00  0.00    +0.000 C 
ATOM     16  C   UNL     1      -0.478  -2.892   6.646  0.00  0.00    +0.000 C 
ENDBRANCH  11  12
ENDBRANCH   9  11
ENDBRANCH   2   4
BRANCH   2  17
ATOM     17  C   UNL     1       2.987   1.256   0.901  0.00  0.00    +0.000 C 
BRANCH  17  18
ATOM     18  O   UNL     1       2.568   2.473   0.266  0.00  0.00    +0.000 OA
BRANCH  18  19
ATOM     19  C   UNL     1       2.952   3.599   0.965  0.00  0.00    +0.000 A 
ATOM     20  C   UNL     1       2.593   4.826   0.428  0.00  0.00    +0.000 A 
ATOM     21  C   UNL     1       2.961   5.983   1.110  0.00  0.00    +0.000 A 
ATOM     22  C   UNL     1       3.669   5.874   2.303  0.00  0.00    +0.000 A 
ATOM     23  C   UNL     1       3.977   4.599   2.763  0.00  0.00    +0.000 A 
ATOM     24  N   UNL     1       3.635   3.456   2.116  0.00  0.00    +0.000 NA
BRANCH  23  25
ATOM     25  C   UNL     1       4.717   4.415   4.048  0.00  0.00    +0.000 C 
ATOM     26  N   UNL     1       4.944   3.110   4.407  0.00  0.00    +0.000 N 
ATOM     27  O   UNL     1       5.092   5.351   4.738  0.00  0.00    +0.000 OA
ATOM     28  H   UNL     1       4.626   2.366   3.800  0.00  0.00    +0.000 HD
ATOM     29  H   UNL     1       5.444   2.904   5.258  0.00  0.00    +0.000 HD
ENDBRANCH  23  25
ENDBRANCH  18  19
ENDBRANCH  17  18
ENDBRANCH   2  17
TORSDOF 7
