REMARK  Name = 
REMARK  6 active torsions:
REMARK  status: ('A' for Active; 'I' for Inactive)
REMARK    1  A    between atoms: N_1  and  C_2
REMARK    2  A    between atoms: C_2  and  C_3
REMARK    3  A    between atoms: C_6  and  S_7
REMARK    4  A    between atoms: S_7  and  C_8
REMARK    5  A    between atoms: C_8  and  C_9
REMARK    6  A    between atoms: C_12  and  C_13
REMARK                            x       y       z     vdW  Elec       q    Type
REMARK                         _______ _______ _______ _____ _____    ______ ____
ROOT
ATOM      1  S   UNL     1       4.381   1.235  -5.660  0.00  0.00    +0.000 S 
ENDROOT
BRANCH   1   5
ATOM      2  C   UNL     1       3.011   0.446  -1.384  0.00  0.00    +0.000 A 
ATOM      3  C   UNL     1       2.955   1.763  -1.834  0.00  0.00    +0.000 A 
ATOM      4  C   UNL     1       3.368   2.063  -3.138  0.00  0.00    +0.000 A 
ATOM      5  C   UNL     1       3.833   1.048  -3.972  0.00  0.00    +0.000 A 
ATOM      6  C   UNL     1       3.861  -0.235  -3.424  0.00  0.00    +0.000 A 
ATOM      7  N   UNL     1       3.463  -0.560  -2.168  0.00  0.00    +0.000 NA
BRANCH   2   8
ATOM      8  C   UNL     1       2.519   0.082   0.002  0.00  0.00    +0.000 C 
BRANCH   8   9
ATOM      9  N   UNL     1       1.088   0.356   0.175  0.00  0.00    +0.000 NA
ATOM     10  H   UNL     1       0.790  -0.034   1.067  0.00  0.00    +0.000 HD
ATOM     11  H   UNL     1       0.585  -0.174  -0.539  0.00  0.00    +0.000 HD
ENDBRANCH   8   9
ENDBRANCH   2   8
ENDBRANCH   1   5
BRANCH   1  12
ATOM     12  C   UNL     1       4.172   3.011  -6.007  0.00  0.00    +0.000 C 
BRANCH  12  13
ATOM     13  C   UNL     1       4.602   3.345  -7.403  0.00  0.00    +0.000 A 
ATOM     14  C   UNL     1       3.742   3.301  -8.480  0.00  0.00    +0.000 A 
ATOM     15  N   UNL     1       4.102   3.598  -9.746  0.00  0.00    +0.000 NA
ATOM     16  C   UNL     1       5.396   3.944  -9.960  0.00  0.00    +0.000 A 
ATOM     17  N   UNL     1       6.317   4.001  -8.964  0.00  0.00    +0.000 NA
ATOM     18  C   UNL     1       5.899   3.693  -7.719  0.00  0.00    +0.000 A 
BRANCH  16  19
ATOM     19  C   UNL     1       5.843   4.295 -11.387  0.00  0.00    +0.000 C 
ATOM     20  F   UNL     1       4.845   4.207 -12.320  0.00  0.00    +0.000 F 
ATOM     21  F   UNL     1       6.325   5.571 -11.500  0.00  0.00    +0.000 F 
ATOM     22  F   UNL     1       6.842   3.484 -11.854  0.00  0.00    +0.000 F 
ENDBRANCH  16  19
ENDBRANCH  12  13
ENDBRANCH   1  12
TORSDOF 6
