REMARK  Name = 
REMARK  8 active torsions:
REMARK  status: ('A' for Active; 'I' for Inactive)
REMARK    1  A    between atoms: N_1  and  C_2
REMARK    2  A    between atoms: C_2  and  C_3
REMARK    3  A    between atoms: C_3  and  N_4
REMARK    4  A    between atoms: C_3  and  C_17
REMARK    5  A    between atoms: C_5  and  C_7
REMARK    6  A    between atoms: C_20  and  C_21
REMARK    7  A    between atoms: C_21  and  N_22
REMARK    8  A    between atoms: C_23  and  C_25
REMARK                            x       y       z     vdW  Elec       q    Type
REMARK                         _______ _______ _______ _____ _____    ______ ____
ROOT
ATOM      1  C   UNL     1       2.943   1.154   0.434  0.00  0.00    +0.000 C 
ENDROOT
BRANCH   1   2
ATOM      2  C   UNL     1       4.472   1.233   0.515  0.00  0.00    +0.000 A 
ATOM      3  C   UNL     1       5.115   2.479   0.568  0.00  0.00    +0.000 A 
ATOM      4  C   UNL     1       6.514   2.570   0.641  0.00  0.00    +0.000 A 
ATOM      5  C   UNL     1       7.307   1.415   0.661  0.00  0.00    +0.000 A 
ATOM      6  C   UNL     1       6.667   0.170   0.641  0.00  0.00    +0.000 A 
ATOM      7  C   UNL     1       5.270   0.079   0.566  0.00  0.00    +0.000 A 
BRANCH   5   8
ATOM      8  C   UNL     1       8.813   1.499   0.675  0.00  0.00    +0.000 C 
BRANCH   8   9
ATOM      9  N   UNL     1       9.374   1.490   2.010  0.00  0.00    +0.000 N 
ATOM     10  C   UNL     1      10.740   1.497   2.174  0.00  0.00    +0.000 C 
ATOM     11  O   UNL     1      11.518   1.437   1.223  0.00  0.00    +0.000 OA
ATOM     12  H   UNL     1       8.765   1.703   2.788  0.00  0.00    +0.000 HD
BRANCH  10  13
ATOM     13  C   UNL     1      11.264   1.612   3.600  0.00  0.00    +0.000 C 
ATOM     14  C   UNL     1      10.839   0.456   4.508  0.00  0.00    +0.000 C 
ATOM     15  C   UNL     1      11.409   0.669   5.908  0.00  0.00    +0.000 C 
ATOM     16  O   UNL     1      10.989   1.929   6.433  0.00  0.00    +0.000 OA
ATOM     17  C   UNL     1      11.456   3.027   5.648  0.00  0.00    +0.000 C 
ATOM     18  C   UNL     1      10.886   2.949   4.238  0.00  0.00    +0.000 C 
ENDBRANCH  10  13
ENDBRANCH   8   9
ENDBRANCH   5   8
ENDBRANCH   1   2
BRANCH   1  19
ATOM     19  N   UNL     1       2.445   0.519   1.647  0.00  0.00    +0.000 N 
ATOM     20  C   UNL     1       1.110   0.447   1.962  0.00  0.00    +0.000 C 
ATOM     21  O   UNL     1       0.219   0.791   1.197  0.00  0.00    +0.000 OA
ATOM     22  H   UNL     1       3.116   0.455   2.405  0.00  0.00    +0.000 HD
BRANCH  20  23
ATOM     23  C   UNL     1       0.802  -0.120   3.276  0.00  0.00    +0.000 A 
ATOM     24  C   UNL     1      -0.377  -0.824   3.482  0.00  0.00    +0.000 A 
ATOM     25  S   UNL     1      -0.572  -1.356   5.092  0.00  0.00    +0.000 S 
ATOM     26  C   UNL     1       0.891  -0.625   5.570  0.00  0.00    +0.000 A 
ATOM     27  N   UNL     1       1.298  -0.647   6.866  0.00  0.00    +0.000 NA
ATOM     28  C   UNL     1       2.408  -0.019   7.084  0.00  0.00    +0.000 A 
ATOM     29  N   UNL     1       3.160   0.602   6.125  0.00  0.00    +0.000 N 
ATOM     30  C   UNL     1       2.818   0.595   4.792  0.00  0.00    +0.000 A 
ATOM     31  O   UNL     1       3.571   1.060   3.942  0.00  0.00    +0.000 OA
ATOM     32  C   UNL     1       1.549  -0.037   4.506  0.00  0.00    +0.000 A 
ATOM     33  H   UNL     1       4.042   1.037   6.353  0.00  0.00    +0.000 HD
ENDBRANCH  20  23
ENDBRANCH   1  19
BRANCH   1  34
ATOM     34  C   UNL     1       2.441   0.414  -0.843  0.00  0.00    +0.000 C 
BRANCH  34  35
ATOM     35  N   UNL     1       2.898   0.989  -2.113  0.00  0.00    +0.000 NA
ATOM     36  H   UNL     1       2.723   0.313  -2.855  0.00  0.00    +0.000 HD
ATOM     37  H   UNL     1       3.907   1.130  -2.081  0.00  0.00    +0.000 HD
ENDBRANCH  34  35
ENDBRANCH   1  34
TORSDOF 8
