REMARK  Name = 
REMARK  7 active torsions:
REMARK  status: ('A' for Active; 'I' for Inactive)
REMARK    1  A    between atoms: C_2  and  C_3
REMARK    2  A    between atoms: C_7  and  C_8
REMARK    3  A    between atoms: N_10  and  C_11
REMARK    4  A    between atoms: C_11  and  C_12
REMARK    5  A    between atoms: C_15  and  C_16
REMARK    6  A    between atoms: C_16  and  N_17
REMARK    7  A    between atoms: C_18  and  C_20
REMARK                            x       y       z     vdW  Elec       q    Type
REMARK                         _______ _______ _______ _____ _____    ______ ____
ROOT
ATOM      1  C   UNL     1       4.080   6.017   1.222  0.00  0.00    +0.000 A 
ATOM      2  C   UNL     1       5.226   6.635   1.741  0.00  0.00    +0.000 A 
ATOM      3  C   UNL     1       5.116   7.703   2.641  0.00  0.00    +0.000 A 
ATOM      4  C   UNL     1       3.859   8.164   3.055  0.00  0.00    +0.000 A 
ATOM      5  C   UNL     1       2.714   7.561   2.517  0.00  0.00    +0.000 A 
ATOM      6  C   UNL     1       2.824   6.491   1.622  0.00  0.00    +0.000 A 
ENDROOT
BRANCH   1   7
ATOM      7  C   UNL     1       4.187   4.872   0.247  0.00  0.00    +0.000 C 
BRANCH   7  10
ATOM      8  C   UNL     1       3.077   2.837   1.084  0.00  0.00    +0.000 C 
ATOM      9  O   UNL     1       1.966   3.221   0.734  0.00  0.00    +0.000 OA
ATOM     10  N   UNL     1       4.220   3.580   0.902  0.00  0.00    +0.000 N 
ATOM     11  H   UNL     1       5.090   3.283   1.322  0.00  0.00    +0.000 HD
BRANCH   8  16
ATOM     12  C   UNL     1       1.992   0.688   1.852  0.00  0.00    +0.000 C 
ATOM     13  C   UNL     1       2.431  -0.778   1.932  0.00  0.00    +0.000 C 
ATOM     14  C   UNL     1       3.825  -0.847   1.316  0.00  0.00    +0.000 C 
ATOM     15  C   UNL     1       4.171   0.569   0.874  0.00  0.00    +0.000 C 
ATOM     16  C   UNL     1       3.302   1.480   1.738  0.00  0.00    +0.000 C 
BRANCH  12  18
ATOM     17  N   UNL     1       0.611   1.370   3.982  0.00  0.00    +0.000 NA
ATOM     18  C   UNL     1       1.210   1.083   3.031  0.00  0.00    +0.000 C 
ENDBRANCH  12  18
ENDBRANCH   8  16
ENDBRANCH   7  10
ENDBRANCH   1   7
BRANCH   4  19
ATOM     19  C   UNL     1       3.730   9.292   4.049  0.00  0.00    +0.000 C 
BRANCH  19  20
ATOM     20  N   UNL     1       3.689  10.576   3.397  0.00  0.00    +0.000 N 
ATOM     21  C   UNL     1       3.618  11.742   4.116  0.00  0.00    +0.000 C 
ATOM     22  O   UNL     1       3.651  11.758   5.344  0.00  0.00    +0.000 OA
ATOM     23  H   UNL     1       3.408  10.579   2.422  0.00  0.00    +0.000 HD
BRANCH  21  24
ATOM     24  C   UNL     1       3.566  12.987   3.336  0.00  0.00    +0.000 A 
ATOM     25  C   UNL     1       4.008  14.177   3.897  0.00  0.00    +0.000 A 
ATOM     26  S   UNL     1       3.925  15.507   2.831  0.00  0.00    +0.000 S 
ATOM     27  C   UNL     1       3.245  14.549   1.601  0.00  0.00    +0.000 A 
ATOM     28  N   UNL     1       2.902  15.088   0.400  0.00  0.00    +0.000 NA
ATOM     29  C   UNL     1       2.375  14.253  -0.431  0.00  0.00    +0.000 A 
ATOM     30  N   UNL     1       2.161  12.923  -0.169  0.00  0.00    +0.000 N 
ATOM     31  C   UNL     1       2.516  12.329   1.015  0.00  0.00    +0.000 A 
ATOM     32  O   UNL     1       2.351  11.127   1.199  0.00  0.00    +0.000 OA
ATOM     33  C   UNL     1       3.104  13.229   1.991  0.00  0.00    +0.000 A 
ATOM     34  H   UNL     1       1.750  12.318  -0.865  0.00  0.00    +0.000 HD
ENDBRANCH  21  24
ENDBRANCH  19  20
ENDBRANCH   4  19
TORSDOF 7
