REMARK  Name = 
REMARK  10 active torsions:
REMARK  status: ('A' for Active; 'I' for Inactive)
REMARK    1  A    between atoms: C_1  and  C_2
REMARK    2  A    between atoms: C_2  and  N_3
REMARK    3  A    between atoms: C_2  and  C_19
REMARK    4  A    between atoms: N_3  and  C_4
REMARK    5  A    between atoms: C_4  and  C_5
REMARK    6  A    between atoms: C_8  and  C_9
REMARK    7  A    between atoms: C_9  and  O_10
REMARK    8  A    between atoms: C_9  and  C_11
REMARK    9  A    between atoms: C_11  and  N_12
REMARK   10  A    between atoms: C_19  and  C_21
REMARK                            x       y       z     vdW  Elec       q    Type
REMARK                         _______ _______ _______ _____ _____    ______ ____
ROOT
ATOM      1  N   UNL     1       1.078  -1.635   0.425  0.00  0.00    +0.000 NA
ATOM      2  H   UNL     1       0.767  -1.511  -0.543  0.00  0.00    +0.000 HD
ENDROOT
BRANCH   1   4
ATOM      3  C   UNL     1       3.106  -2.832  -0.269  0.00  0.00    +0.000 C 
ATOM      4  C   UNL     1       2.561  -1.599   0.449  0.00  0.00    +0.000 C 
BRANCH   4   5
ATOM      5  C   UNL     1       3.092  -0.288  -0.195  0.00  0.00    +0.000 C 
ATOM      6  O   UNL     1       2.553   0.190  -1.195  0.00  0.00    +0.000 OA
BRANCH   5   7
ATOM      7  C   UNL     1       4.250   0.369   0.426  0.00  0.00    +0.000 A 
ATOM      8  C   UNL     1       5.252  -0.330   1.077  0.00  0.00    +0.000 A 
ATOM      9  S   UNL     1       6.552   0.661   1.573  0.00  0.00    +0.000 S 
ATOM     10  C   UNL     1       5.802   2.053   0.937  0.00  0.00    +0.000 A 
ATOM     11  N   UNL     1       6.430   3.260   0.973  0.00  0.00    +0.000 NA
ATOM     12  C   UNL     1       5.753   4.217   0.432  0.00  0.00    +0.000 A 
ATOM     13  N   UNL     1       4.496   4.090  -0.099  0.00  0.00    +0.000 N 
ATOM     14  C   UNL     1       3.761   2.922   0.007  0.00  0.00    +0.000 A 
ATOM     15  O   UNL     1       2.544   2.915  -0.147  0.00  0.00    +0.000 OA
ATOM     16  C   UNL     1       4.547   1.780   0.439  0.00  0.00    +0.000 A 
ATOM     17  H   UNL     1       3.985   4.903  -0.405  0.00  0.00    +0.000 HD
ENDBRANCH   5   7
ENDBRANCH   4   5
ENDBRANCH   1   4
BRANCH   1  18
ATOM     18  C   UNL     1       0.540  -0.530   1.227  0.00  0.00    +0.000 C 
BRANCH  18  19
ATOM     19  C   UNL     1      -0.953  -0.564   1.325  0.00  0.00    +0.000 A 
ATOM     20  C   UNL     1      -1.642  -1.667   1.828  0.00  0.00    +0.000 A 
ATOM     21  C   UNL     1      -3.029  -1.622   1.938  0.00  0.00    +0.000 A 
ATOM     22  C   UNL     1      -3.701  -0.468   1.532  0.00  0.00    +0.000 A 
ATOM     23  N   UNL     1      -3.040   0.626   1.076  0.00  0.00    +0.000 NA
ATOM     24  C   UNL     1      -1.698   0.554   0.975  0.00  0.00    +0.000 A 
BRANCH  22  25
ATOM     25  C   UNL     1      -5.217  -0.395   1.473  0.00  0.00    +0.000 C 
BRANCH  25  26
ATOM     26  O   UNL     1      -5.723  -1.382   0.560  0.00  0.00    +0.000 OA
ATOM     27  H   UNL     1      -5.281  -2.221   0.753  0.00  0.00    +0.000 HD
ENDBRANCH  25  26
BRANCH  25  28
ATOM     28  C   UNL     1      -5.898  -0.526   2.864  0.00  0.00    +0.000 C 
BRANCH  28  29
ATOM     29  N   UNL     1      -7.378  -0.443   2.839  0.00  0.00    +0.000 NA
ATOM     30  C   UNL     1      -7.895   0.850   2.371  0.00  0.00    +0.000 C 
ATOM     31  C   UNL     1      -8.037   1.699   3.617  0.00  0.00    +0.000 C 
ATOM     32  C   UNL     1      -8.463   0.701   4.673  0.00  0.00    +0.000 C 
ATOM     33  C   UNL     1      -7.961  -0.650   4.174  0.00  0.00    +0.000 C 
ENDBRANCH  28  29
ENDBRANCH  25  28
ENDBRANCH  22  25
ENDBRANCH  18  19
ENDBRANCH   1  18
TORSDOF 9
