REMARK  Name = 
REMARK  6 active torsions:
REMARK  status: ('A' for Active; 'I' for Inactive)
REMARK    1  A    between atoms: N_1  and  C_2
REMARK    2  A    between atoms: C_2  and  C_3
REMARK    3  A    between atoms: C_3  and  O_4
REMARK    4  A    between atoms: O_4  and  C_5
REMARK    5  A    between atoms: N_11  and  C_12
REMARK    6  A    between atoms: C_12  and  C_13
REMARK                            x       y       z     vdW  Elec       q    Type
REMARK                         _______ _______ _______ _____ _____    ______ ____
ROOT
ATOM      1  C   UNL     1       5.237   1.631   2.105  0.00  0.00    +0.000 A 
ATOM      2  C   UNL     1       4.850   1.646   3.440  0.00  0.00    +0.000 A 
ATOM      3  N   UNL     1       5.399   2.450   4.385  0.00  0.00    +0.000 NA
ATOM      4  C   UNL     1       6.363   3.267   3.879  0.00  0.00    +0.000 A 
ATOM      5  C   UNL     1       7.177   4.228   4.519  0.00  0.00    +0.000 A 
ATOM      6  C   UNL     1       7.989   4.791   3.554  0.00  0.00    +0.000 A 
ATOM      7  N   UNL     1       7.685   4.208   2.343  0.00  0.00    +0.000 N 
ATOM      8  C   UNL     1       6.714   3.252   2.531  0.00  0.00    +0.000 A 
ATOM      9  N   UNL     1       6.183   2.449   1.584  0.00  0.00    +0.000 NA
ENDROOT
BRANCH   1  10
ATOM     10  O   UNL     1       4.579   0.755   1.258  0.00  0.00    +0.000 OA
BRANCH  10  11
ATOM     11  C   UNL     1       5.416   0.390   0.151  0.00  0.00    +0.000 C 
BRANCH  11  12
ATOM     12  C   UNL     1       4.666  -0.565  -0.781  0.00  0.00    +0.000 C 
BRANCH  12  13
ATOM     13  N   UNL     1       4.258  -1.801  -0.111  0.00  0.00    +0.000 NA
ATOM     14  H   UNL     1       3.742  -2.384  -0.768  0.00  0.00    +0.000 HD
ATOM     15  H   UNL     1       3.604  -1.560   0.635  0.00  0.00    +0.000 HD
ENDBRANCH  12  13
ENDBRANCH  11  12
ENDBRANCH  10  11
ENDBRANCH   1  10
BRANCH   7  16
ATOM     16  C   UNL     1       8.331   4.522   1.075  0.00  0.00    +0.000 C 
BRANCH  16  17
ATOM     17  C   UNL     1       7.640   5.649   0.355  0.00  0.00    +0.000 A 
ATOM     18  C   UNL     1       6.339   5.521  -0.143  0.00  0.00    +0.000 A 
ATOM     19  C   UNL     1       5.715   6.610  -0.745  0.00  0.00    +0.000 A 
ATOM     20  C   UNL     1       6.423   7.793  -0.855  0.00  0.00    +0.000 A 
ATOM     21  N   UNL     1       7.696   7.944  -0.432  0.00  0.00    +0.000 NA
ATOM     22  C   UNL     1       8.273   6.874   0.161  0.00  0.00    +0.000 A 
ENDBRANCH  16  17
ENDBRANCH   7  16
TORSDOF 6
