REMARK  Name = 
REMARK  4 active torsions:
REMARK  status: ('A' for Active; 'I' for Inactive)
REMARK    1  A    between atoms: C_2  and  C_4
REMARK    2  A    between atoms: N_8  and  C_9
REMARK    3  A    between atoms: C_9  and  C_10
REMARK    4  A    between atoms: C_13  and  C_14
REMARK                            x       y       z     vdW  Elec       q    Type
REMARK                         _______ _______ _______ _____ _____    ______ ____
ROOT
ATOM      1  C   UNL     1       6.100   5.028   2.477  0.00  0.00    +0.000 C 
ATOM      2  C   UNL     1       5.812   5.649   1.116  0.00  0.00    +0.000 C 
ATOM      3  C   UNL     1       6.791   4.535   1.214  0.00  0.00    +0.000 C 
ATOM      4  F   UNL     1       8.129   4.846   1.038  0.00  0.00    +0.000 F 
ENDROOT
BRANCH   1   9
ATOM      5  C   UNL     1       5.253   9.019   5.475  0.00  0.00    +0.000 A 
ATOM      6  C   UNL     1       6.302   8.276   5.962  0.00  0.00    +0.000 A 
ATOM      7  N   UNL     1       6.837   7.217   5.310  0.00  0.00    +0.000 NA
ATOM      8  C   UNL     1       6.287   6.884   4.130  0.00  0.00    +0.000 A 
ATOM      9  N   UNL     1       6.871   5.811   3.458  0.00  0.00    +0.000 N 
ATOM     10  N   UNL     1       5.239   7.534   3.593  0.00  0.00    +0.000 NA
ATOM     11  C   UNL     1       4.737   8.583   4.280  0.00  0.00    +0.000 A 
ATOM     12  H   UNL     1       7.505   5.339   4.089  0.00  0.00    +0.000 HD
BRANCH   5  14
ATOM     13  N   UNL     1       5.514  10.924   6.953  0.00  0.00    +0.000 N 
ATOM     14  C   UNL     1       4.685  10.197   6.144  0.00  0.00    +0.000 C 
ATOM     15  O   UNL     1       3.529  10.541   5.946  0.00  0.00    +0.000 OA
ATOM     16  H   UNL     1       5.138  11.798   7.301  0.00  0.00    +0.000 HD
ATOM     17  H   UNL     1       6.522  10.839   6.933  0.00  0.00    +0.000 HD
ENDBRANCH   5  14
ENDBRANCH   1   9
BRANCH   1  18
ATOM     18  C   UNL     1       5.049   4.106   3.095  0.00  0.00    +0.000 A 
ATOM     19  C   UNL     1       5.337   2.777   3.450  0.00  0.00    +0.000 A 
ATOM     20  C   UNL     1       4.357   1.935   3.989  0.00  0.00    +0.000 A 
ATOM     21  C   UNL     1       3.054   2.404   4.204  0.00  0.00    +0.000 A 
ATOM     22  C   UNL     1       2.762   3.736   3.888  0.00  0.00    +0.000 A 
ATOM     23  C   UNL     1       3.744   4.565   3.342  0.00  0.00    +0.000 A 
BRANCH  21  24
ATOM     24  C   UNL     1       1.968   1.514   4.753  0.00  0.00    +0.000 C 
ATOM     25  F   UNL     1       2.375   0.236   4.992  0.00  0.00    +0.000 F 
ATOM     26  F   UNL     1       1.461   1.972   5.932  0.00  0.00    +0.000 F 
ATOM     27  F   UNL     1       0.905   1.413   3.906  0.00  0.00    +0.000 F 
ENDBRANCH  21  24
ENDBRANCH   1  18
TORSDOF 4
