REMARK  Name = 
REMARK  9 active torsions:
REMARK  status: ('A' for Active; 'I' for Inactive)
REMARK    1  A    between atoms: N_1  and  C_2
REMARK    2  A    between atoms: C_2  and  C_3
REMARK    3  A    between atoms: C_3  and  N_4
REMARK    4  A    between atoms: C_3  and  C_26
REMARK    5  A    between atoms: N_4  and  C_5
REMARK    6  A    between atoms: C_5  and  C_6
REMARK    7  A    between atoms: C_9  and  C_10
REMARK    8  A    between atoms: C_10  and  N_11
REMARK    9  A    between atoms: C_12  and  C_14
REMARK                            x       y       z     vdW  Elec       q    Type
REMARK                         _______ _______ _______ _____ _____    ______ ____
ROOT
ATOM      1  C   UNL     1       0.485   3.742   1.000  0.00  0.00    +0.000 A 
ATOM      2  C   UNL     1      -0.213   3.552   2.195  0.00  0.00    +0.000 A 
ATOM      3  C   UNL     1      -0.539   4.648   2.988  0.00  0.00    +0.000 A 
ATOM      4  C   UNL     1      -0.139   5.914   2.573  0.00  0.00    +0.000 A 
ATOM      5  N   UNL     1       0.491   6.135   1.389  0.00  0.00    +0.000 NA
ATOM      6  C   UNL     1       0.780   5.050   0.637  0.00  0.00    +0.000 A 
ENDROOT
BRANCH   1   7
ATOM      7  C   UNL     1       0.916   2.567   0.159  0.00  0.00    +0.000 C 
BRANCH   7   8
ATOM      8  N   UNL     1       2.372   2.511   0.064  0.00  0.00    +0.000 NA
ATOM      9  H   UNL     1       2.701   3.366  -0.381  0.00  0.00    +0.000 HD
BRANCH   8  10
ATOM     10  C   UNL     1       2.895   1.383  -0.744  0.00  0.00    +0.000 C 
BRANCH  10  11
ATOM     11  C   UNL     1       4.419   1.511  -0.900  0.00  0.00    +0.000 A 
ATOM     12  C   UNL     1       5.215   1.961   0.159  0.00  0.00    +0.000 A 
ATOM     13  C   UNL     1       6.589   2.080  -0.023  0.00  0.00    +0.000 A 
ATOM     14  C   UNL     1       7.143   1.730  -1.244  0.00  0.00    +0.000 A 
ATOM     15  C   UNL     1       6.293   1.276  -2.241  0.00  0.00    +0.000 A 
ATOM     16  N   UNL     1       4.953   1.161  -2.099  0.00  0.00    +0.000 NA
ENDBRANCH  10  11
BRANCH  10  17
ATOM     17  C   UNL     1       2.597  -0.051  -0.201  0.00  0.00    +0.000 C 
BRANCH  17  18
ATOM     18  N   UNL     1       1.180  -0.450  -0.180  0.00  0.00    +0.000 NA
ATOM     19  H   UNL     1       1.110  -1.407   0.161  0.00  0.00    +0.000 HD
ATOM     20  H   UNL     1       0.812  -0.450  -1.130  0.00  0.00    +0.000 HD
ENDBRANCH  17  18
ENDBRANCH  10  17
ENDBRANCH   8  10
ENDBRANCH   7   8
ENDBRANCH   1   7
BRANCH   4  21
ATOM     21  C   UNL     1      -0.395   7.113   3.447  0.00  0.00    +0.000 C 
BRANCH  21  22
ATOM     22  N   UNL     1      -1.660   7.743   3.154  0.00  0.00    +0.000 N 
ATOM     23  C   UNL     1      -2.782   7.508   3.900  0.00  0.00    +0.000 C 
ATOM     24  O   UNL     1      -2.776   6.746   4.864  0.00  0.00    +0.000 OA
ATOM     25  H   UNL     1      -1.737   8.171   2.236  0.00  0.00    +0.000 HD
BRANCH  23  26
ATOM     26  C   UNL     1      -3.982   8.272   3.539  0.00  0.00    +0.000 A 
ATOM     27  C   UNL     1      -4.976   8.467   4.489  0.00  0.00    +0.000 A 
ATOM     28  S   UNL     1      -6.283   9.407   3.930  0.00  0.00    +0.000 S 
ATOM     29  C   UNL     1      -5.592   9.549   2.383  0.00  0.00    +0.000 A 
ATOM     30  N   UNL     1      -6.229  10.225   1.393  0.00  0.00    +0.000 NA
ATOM     31  C   UNL     1      -5.606  10.232   0.262  0.00  0.00    +0.000 A 
ATOM     32  N   UNL     1      -4.393   9.635   0.038  0.00  0.00    +0.000 N 
ATOM     33  C   UNL     1      -3.688   8.982   1.021  0.00  0.00    +0.000 A 
ATOM     34  O   UNL     1      -2.568   8.531   0.807  0.00  0.00    +0.000 OA
ATOM     35  C   UNL     1      -4.361   8.915   2.303  0.00  0.00    +0.000 A 
ATOM     36  H   UNL     1      -3.946   9.693  -0.865  0.00  0.00    +0.000 HD
ENDBRANCH  23  26
ENDBRANCH  21  22
ENDBRANCH   4  21
TORSDOF 9
