REMARK  Name = 
REMARK  5 active torsions:
REMARK  status: ('A' for Active; 'I' for Inactive)
REMARK    1  A    between atoms: N_1  and  C_2
REMARK    2  A    between atoms: C_2  and  C_3
REMARK    3  A    between atoms: C_3  and  C_4
REMARK    4  A    between atoms: C_7  and  C_8
REMARK    5  A    between atoms: C_8  and  N_9
REMARK                            x       y       z     vdW  Elec       q    Type
REMARK                         _______ _______ _______ _____ _____    ______ ____
ROOT
ATOM      1  C   UNL     1       4.471   1.469   0.144  0.00  0.00    +0.000 A 
ATOM      2  C   UNL     1       5.155   2.020  -0.941  0.00  0.00    +0.000 A 
ATOM      3  C   UNL     1       6.550   2.044  -0.942  0.00  0.00    +0.000 A 
ATOM      4  C   UNL     1       7.235   1.529   0.156  0.00  0.00    +0.000 A 
ATOM      5  N   UNL     1       6.586   0.960   1.206  0.00  0.00    +0.000 NA
ATOM      6  C   UNL     1       5.234   0.935   1.173  0.00  0.00    +0.000 A 
ENDROOT
BRANCH   1   7
ATOM      7  C   UNL     1       2.968   1.436   0.195  0.00  0.00    +0.000 C 
BRANCH   7   8
ATOM      8  C   UNL     1       2.399   0.159  -0.430  0.00  0.00    +0.000 C 
BRANCH   8   9
ATOM      9  N   UNL     1       0.938   0.153  -0.369  0.00  0.00    +0.000 NA
ATOM     10  H   UNL     1       0.587  -0.700  -0.804  0.00  0.00    +0.000 HD
ATOM     11  H   UNL     1       0.566   0.925  -0.922  0.00  0.00    +0.000 HD
ENDBRANCH   8   9
ENDBRANCH   7   8
ENDBRANCH   1   7
BRANCH   4  12
ATOM     12  C   UNL     1       8.739   1.575   0.241  0.00  0.00    +0.000 C 
BRANCH  12  13
ATOM     13  N   UNL     1       9.265   2.933   0.197  0.00  0.00    +0.000 N 
ATOM     14  N   UNL     1      10.154   3.256  -0.773  0.00  0.00    +0.000 NA
ATOM     15  C   UNL     1      10.436   4.537  -0.531  0.00  0.00    +0.000 A 
ATOM     16  C   UNL     1       9.735   5.052   0.579  0.00  0.00    +0.000 A 
ATOM     17  C   UNL     1       9.647   6.299   1.221  0.00  0.00    +0.000 A 
ATOM     18  C   UNL     1       8.802   6.415   2.324  0.00  0.00    +0.000 A 
ATOM     19  F   UNL     1       8.679   7.605   2.927  0.00  0.00    +0.000 F 
ATOM     20  C   UNL     1       8.076   5.332   2.806  0.00  0.00    +0.000 A 
ATOM     21  C   UNL     1       8.167   4.079   2.191  0.00  0.00    +0.000 A 
ATOM     22  C   UNL     1       8.993   3.974   1.061  0.00  0.00    +0.000 A 
ENDBRANCH  12  13
ENDBRANCH   4  12
TORSDOF 5
