REMARK  Name = 
REMARK  4 active torsions:
REMARK  status: ('A' for Active; 'I' for Inactive)
REMARK    1  A    between atoms: C_1  and  C_2
REMARK    2  A    between atoms: C_6  and  C_7
REMARK    3  A    between atoms: C_7  and  N_8
REMARK    4  A    between atoms: C_12  and  C_13
REMARK                            x       y       z     vdW  Elec       q    Type
REMARK                         _______ _______ _______ _____ _____    ______ ____
ROOT
ATOM      1  N   UNL     1      -3.181   2.438  -0.257  0.00  0.00    +0.000 N 
ATOM      2  C   UNL     1      -3.849   3.669  -0.140  0.00  0.00    +0.000 A 
ATOM      3  C   UNL     1      -5.126   3.823  -0.703  0.00  0.00    +0.000 A 
ATOM      4  N   UNL     1      -5.875   4.956  -0.613  0.00  0.00    +0.000 NA
ATOM      5  C   UNL     1      -5.297   5.949   0.114  0.00  0.00    +0.000 A 
ATOM      6  C   UNL     1      -4.049   5.809   0.697  0.00  0.00    +0.000 A 
ATOM      7  N   UNL     1      -3.303   4.679   0.569  0.00  0.00    +0.000 NA
ATOM      8  H   UNL     1      -3.598   1.794   0.418  0.00  0.00    +0.000 HD
ENDROOT
BRANCH   5   9
ATOM      9  C   UNL     1      -6.044   7.228   0.277  0.00  0.00    +0.000 C 
ATOM     10  N   UNL     1      -7.242   7.311  -0.381  0.00  0.00    +0.000 N 
ATOM     11  O   UNL     1      -5.613   8.155   0.946  0.00  0.00    +0.000 OA
ATOM     12  H   UNL     1      -7.573   6.533  -0.939  0.00  0.00    +0.000 HD
ATOM     13  H   UNL     1      -7.789   8.157  -0.311  0.00  0.00    +0.000 HD
ENDBRANCH   5   9
BRANCH   1  14
ATOM     14  C   UNL     1      -1.740   2.531  -0.006  0.00  0.00    +0.000 C 
BRANCH  14  20
ATOM     15  C   UNL     1      -0.145  -1.280   2.593  0.00  0.00    +0.000 C 
ATOM     16  C   UNL     1      -0.350  -0.672   1.239  0.00  0.00    +0.000 A 
ATOM     17  C   UNL     1       0.077  -1.328   0.090  0.00  0.00    +0.000 A 
ATOM     18  C   UNL     1      -0.119  -0.712  -1.142  0.00  0.00    +0.000 A 
ATOM     19  C   UNL     1      -0.721   0.542  -1.193  0.00  0.00    +0.000 A 
ATOM     20  C   UNL     1      -1.108   1.149  -0.002  0.00  0.00    +0.000 A 
ATOM     21  N   UNL     1      -0.946   0.544   1.205  0.00  0.00    +0.000 NA
ENDBRANCH  14  20
ENDBRANCH   1  14
TORSDOF 3
