REMARK  Name = 
REMARK  11 active torsions:
REMARK  status: ('A' for Active; 'I' for Inactive)
REMARK    1  A    between atoms: C_1  and  C_2
REMARK    2  A    between atoms: C_5  and  O_6
REMARK    3  A    between atoms: O_6  and  C_7
REMARK    4  A    between atoms: C_9  and  N_10
REMARK    5  A    between atoms: N_10  and  C_11
REMARK    6  A    between atoms: C_11  and  C_12
REMARK    7  A    between atoms: C_12  and  C_13
REMARK    8  A    between atoms: C_12  and  C_14
REMARK    9  A    between atoms: C_12  and  C_15
REMARK   10  A    between atoms: C_18  and  C_19
REMARK   11  A    between atoms: C_25  and  C_26
REMARK                            x       y       z     vdW  Elec       q    Type
REMARK                         _______ _______ _______ _____ _____    ______ ____
ROOT
ATOM      1  C   UNL     1       3.854   2.455  -0.878  0.00  0.00    +0.000 A 
ATOM      2  C   UNL     1       4.418   1.324  -1.467  0.00  0.00    +0.000 A 
ATOM      3  C   UNL     1       5.296   1.421  -2.549  0.00  0.00    +0.000 A 
ATOM      4  C   UNL     1       5.659   2.703  -2.987  0.00  0.00    +0.000 A 
ATOM      5  C   UNL     1       5.133   3.860  -2.383  0.00  0.00    +0.000 A 
ATOM      6  C   UNL     1       4.229   3.721  -1.319  0.00  0.00    +0.000 A 
ENDROOT
BRANCH   5   7
ATOM      7  C   UNL     1       5.527   5.234  -2.862  0.00  0.00    +0.000 C 
ATOM      8  F   UNL     1       6.358   5.221  -3.941  0.00  0.00    +0.000 F 
ATOM      9  F   UNL     1       4.450   5.981  -3.236  0.00  0.00    +0.000 F 
ATOM     10  F   UNL     1       6.169   5.960  -1.906  0.00  0.00    +0.000 F 
ENDBRANCH   5   7
BRANCH   3  11
ATOM     11  N   UNL     1       5.916   0.309  -3.137  0.00  0.00    +0.000 N 
ATOM     12  H   UNL     1       6.032   0.435  -4.139  0.00  0.00    +0.000 HD
BRANCH  11  13
ATOM     13  C   UNL     1       5.510  -1.039  -2.716  0.00  0.00    +0.000 C 
BRANCH  13  14
ATOM     14  C   UNL     1       6.200  -2.190  -3.510  0.00  0.00    +0.000 C 
ATOM     15  C   UNL     1       5.769  -2.092  -4.994  0.00  0.00    +0.000 C 
ATOM     16  C   UNL     1       7.736  -2.044  -3.455  0.00  0.00    +0.000 C 
BRANCH  14  17
ATOM     17  C   UNL     1       5.803  -3.546  -2.867  0.00  0.00    +0.000 A 
ATOM     18  C   UNL     1       5.110  -4.544  -3.574  0.00  0.00    +0.000 A 
ATOM     19  C   UNL     1       4.763  -5.759  -2.970  0.00  0.00    +0.000 A 
ATOM     20  C   UNL     1       5.107  -6.016  -1.642  0.00  0.00    +0.000 A 
ATOM     21  C   UNL     1       5.781  -5.037  -0.912  0.00  0.00    +0.000 A 
ATOM     22  C   UNL     1       6.126  -3.821  -1.521  0.00  0.00    +0.000 A 
BRANCH  20  23
ATOM     23  C   UNL     1       4.715  -7.326  -1.056  0.00  0.00    +0.000 C 
ATOM     24  N   UNL     1       5.456  -7.795  -0.005  0.00  0.00    +0.000 N 
ATOM     25  O   UNL     1       3.793  -7.985  -1.514  0.00  0.00    +0.000 OA
ATOM     26  H   UNL     1       6.354  -7.410   0.241  0.00  0.00    +0.000 HD
ATOM     27  H   UNL     1       5.246  -8.738   0.301  0.00  0.00    +0.000 HD
ENDBRANCH  20  23
ENDBRANCH  14  17
ENDBRANCH  13  14
ENDBRANCH  11  13
ENDBRANCH   3  11
BRANCH   1  28
ATOM     28  O   UNL     1       2.939   2.400   0.147  0.00  0.00    +0.000 OA
BRANCH  28  33
ATOM     29  C   UNL     1       0.947   0.554   2.498  0.00  0.00    +0.000 C 
ATOM     30  C   UNL     1       0.880   1.306   1.182  0.00  0.00    +0.000 C 
ATOM     31  N   UNL     1       0.102   0.553   0.170  0.00  0.00    +0.000 NA
ATOM     32  C   UNL     1       1.074   0.959  -0.863  0.00  0.00    +0.000 C 
ATOM     33  C   UNL     1       2.122   1.203   0.253  0.00  0.00    +0.000 C 
ATOM     34  H   UNL     1      -0.847   0.895   0.021  0.00  0.00    +0.000 HD
ENDBRANCH  28  33
ENDBRANCH   1  28
TORSDOF 8
