REMARK  Name = 
REMARK  6 active torsions:
REMARK  status: ('A' for Active; 'I' for Inactive)
REMARK    1  A    between atoms: N_1  and  C_2
REMARK    2  A    between atoms: C_2  and  C_3
REMARK    3  A    between atoms: C_6  and  C_7
REMARK    4  A    between atoms: C_7  and  N_8
REMARK    5  A    between atoms: C_10  and  C_11
REMARK    6  A    between atoms: C_17  and  C_18
REMARK                            x       y       z     vdW  Elec       q    Type
REMARK                         _______ _______ _______ _____ _____    ______ ____
ROOT
ATOM      1  N   UNL     1       4.400  -4.515   0.737  0.00  0.00    +0.000 N 
ATOM      2  C   UNL     1       4.976  -4.307   2.004  0.00  0.00    +0.000 C 
ATOM      3  C   UNL     1       4.769  -5.365   2.808  0.00  0.00    +0.000 C 
ATOM      4  N   UNL     1       3.996  -6.282   2.076  0.00  0.00    +0.000 N 
ATOM      5  C   UNL     1       3.580  -7.535   2.416  0.00  0.00    +0.000 C 
ATOM      6  C   UNL     1       2.970  -8.342   1.379  0.00  0.00    +0.000 C 
ATOM      7  C   UNL     1       2.813  -7.767   0.166  0.00  0.00    +0.000 C 
ATOM      8  N   UNL     1       3.231  -6.484  -0.194  0.00  0.00    +0.000 NA
ATOM      9  C   UNL     1       3.797  -5.801   0.760  0.00  0.00    +0.000 C 
ENDROOT
BRANCH   6  10
ATOM     10  C   UNL     1       2.595  -9.747   1.743  0.00  0.00    +0.000 C 
ATOM     11  N   UNL     1       2.126 -10.569   0.773  0.00  0.00    +0.000 N 
ATOM     12  O   UNL     1       2.738 -10.180   2.885  0.00  0.00    +0.000 OA
ATOM     13  H   UNL     1       2.028 -10.333  -0.201  0.00  0.00    +0.000 HD
ATOM     14  H   UNL     1       1.939 -11.527   1.047  0.00  0.00    +0.000 HD
ENDBRANCH   6  10
BRANCH   3  15
ATOM     15  C   UNL     1       5.457  -5.609   4.106  0.00  0.00    +0.000 C 
ATOM     16  F   UNL     1       5.417  -6.901   4.518  0.00  0.00    +0.000 F 
ATOM     17  F   UNL     1       6.778  -5.285   4.022  0.00  0.00    +0.000 F 
ATOM     18  F   UNL     1       4.939  -4.858   5.109  0.00  0.00    +0.000 F 
ENDBRANCH   3  15
BRANCH   1  19
ATOM     19  C   UNL     1       5.144  -4.024  -0.433  0.00  0.00    +0.000 C 
BRANCH  19  23
ATOM     20  C   UNL     1       5.206  -0.901  -2.699  0.00  0.00    +0.000 C 
ATOM     21  C   UNL     1       4.143  -1.062  -1.595  0.00  0.00    +0.000 C 
ATOM     22  C   UNL     1       3.433  -2.422  -1.551  0.00  0.00    +0.000 C 
ATOM     23  C   UNL     1       4.340  -3.657  -1.691  0.00  0.00    +0.000 C 
ATOM     24  C   UNL     1       5.322  -3.447  -2.864  0.00  0.00    +0.000 C 
ATOM     25  C   UNL     1       6.110  -2.139  -2.761  0.00  0.00    +0.000 C 
BRANCH  20  26
ATOM     26  C   UNL     1       4.632  -0.574  -4.094  0.00  0.00    +0.000 C 
BRANCH  26  27
ATOM     27  N   UNL     1       3.956   0.720  -4.123  0.00  0.00    +0.000 NA
ATOM     28  H   UNL     1       3.706   0.946  -5.086  0.00  0.00    +0.000 HD
ATOM     29  H   UNL     1       4.599   1.452  -3.822  0.00  0.00    +0.000 HD
ENDBRANCH  26  27
ENDBRANCH  20  26
ENDBRANCH  19  23
ENDBRANCH   1  19
TORSDOF 6
