REMARK  Name = 
REMARK  6 active torsions:
REMARK  status: ('A' for Active; 'I' for Inactive)
REMARK    1  A    between atoms: C_2  and  C_25
REMARK    2  A    between atoms: N_3  and  C_4
REMARK    3  A    between atoms: C_4  and  C_5
REMARK    4  A    between atoms: C_8  and  C_9
REMARK    5  A    between atoms: C_9  and  N_10
REMARK    6  A    between atoms: C_11  and  C_13
REMARK                            x       y       z     vdW  Elec       q    Type
REMARK                         _______ _______ _______ _____ _____    ______ ____
ROOT
ATOM      1  C   UNL     1       3.255  -1.712   3.081  0.00  0.00    +0.000 A 
ATOM      2  C   UNL     1       4.101  -0.857   3.792  0.00  0.00    +0.000 A 
ATOM      3  C   UNL     1       4.939  -1.374   4.776  0.00  0.00    +0.000 A 
ATOM      4  C   UNL     1       4.913  -2.740   5.033  0.00  0.00    +0.000 A 
ATOM      5  N   UNL     1       4.131  -3.596   4.326  0.00  0.00    +0.000 NA
ATOM      6  C   UNL     1       3.328  -3.067   3.374  0.00  0.00    +0.000 A 
ENDROOT
BRANCH   1   7
ATOM      7  C   UNL     1       2.294  -1.185   2.061  0.00  0.00    +0.000 C 
BRANCH   7  10
ATOM      8  O   UNL     1       0.942  -0.281  -0.134  0.00  0.00    +0.000 OA
ATOM      9  C   UNL     1       2.113  -0.607  -0.307  0.00  0.00    +0.000 C 
ATOM     10  N   UNL     1       2.875  -1.085   0.743  0.00  0.00    +0.000 N 
ATOM     11  H   UNL     1       3.859  -1.278   0.612  0.00  0.00    +0.000 HD
BRANCH   9  12
ATOM     12  C   UNL     1       2.757  -0.505  -1.599  0.00  0.00    +0.000 A 
ATOM     13  C   UNL     1       2.234   0.018  -2.768  0.00  0.00    +0.000 A 
ATOM     14  C   UNL     1       3.173  -0.093  -3.830  0.00  0.00    +0.000 A 
ATOM     15  N   UNL     1       4.345  -0.648  -3.535  0.00  0.00    +0.000 NA
ATOM     16  S   UNL     1       4.337  -1.060  -1.928  0.00  0.00    +0.000 S 
ENDBRANCH   9  12
ENDBRANCH   7  10
ENDBRANCH   1   7
BRANCH   4  17
ATOM     17  C   UNL     1       5.776  -3.326   6.124  0.00  0.00    +0.000 C 
BRANCH  17  18
ATOM     18  N   UNL     1       7.066  -3.748   5.635  0.00  0.00    +0.000 N 
ATOM     19  C   UNL     1       8.192  -2.978   5.742  0.00  0.00    +0.000 C 
ATOM     20  O   UNL     1       8.179  -1.866   6.265  0.00  0.00    +0.000 OA
ATOM     21  H   UNL     1       7.050  -4.530   4.988  0.00  0.00    +0.000 HD
BRANCH  19  22
ATOM     22  C   UNL     1       9.439  -3.587   5.261  0.00  0.00    +0.000 A 
ATOM     23  C   UNL     1      10.659  -3.169   5.777  0.00  0.00    +0.000 A 
ATOM     24  S   UNL     1      11.997  -4.006   5.129  0.00  0.00    +0.000 S 
ATOM     25  C   UNL     1      10.996  -4.926   4.106  0.00  0.00    +0.000 A 
ATOM     26  N   UNL     1      11.524  -5.835   3.241  0.00  0.00    +0.000 NA
ATOM     27  C   UNL     1      10.652  -6.440   2.506  0.00  0.00    +0.000 A 
ATOM     28  N   UNL     1       9.298  -6.226   2.565  0.00  0.00    +0.000 N 
ATOM     29  C   UNL     1       8.719  -5.355   3.452  0.00  0.00    +0.000 A 
ATOM     30  O   UNL     1       7.499  -5.259   3.542  0.00  0.00    +0.000 OA
ATOM     31  C   UNL     1       9.658  -4.621   4.278  0.00  0.00    +0.000 A 
ATOM     32  H   UNL     1       8.665  -6.752   1.980  0.00  0.00    +0.000 HD
ENDBRANCH  19  22
ENDBRANCH  17  18
ENDBRANCH   4  17
TORSDOF 6
