REMARK  Name = 
REMARK  7 active torsions:
REMARK  status: ('A' for Active; 'I' for Inactive)
REMARK    1  A    between atoms: C_1  and  O_2
REMARK    2  A    between atoms: O_2  and  C_3
REMARK    3  A    between atoms: N_6  and  C_7
REMARK    4  A    between atoms: C_7  and  C_8
REMARK    5  A    between atoms: C_12  and  C_13
REMARK    6  A    between atoms: C_17  and  C_18
REMARK    7  A    between atoms: C_23  and  C_24
REMARK                            x       y       z     vdW  Elec       q    Type
REMARK                         _______ _______ _______ _____ _____    ______ ____
ROOT
ATOM      1  C   UNL     1       3.047   0.995   3.565  0.00  0.00    +0.000 A 
ATOM      2  N   UNL     1       4.185   1.686   3.344  0.00  0.00    +0.000 NA
ATOM      3  C   UNL     1       4.683   1.706   2.107  0.00  0.00    +0.000 A 
ATOM      4  N   UNL     1       5.808   2.467   1.841  0.00  0.00    +0.000 N 
ATOM      5  N   UNL     1       4.139   1.040   1.087  0.00  0.00    +0.000 NA
ATOM      6  C   UNL     1       3.002   0.346   1.347  0.00  0.00    +0.000 A 
ATOM      7  C   UNL     1       2.392   0.284   2.583  0.00  0.00    +0.000 A 
ATOM      8  H   UNL     1       6.215   2.137   0.974  0.00  0.00    +0.000 HD
ENDROOT
BRANCH   7   9
ATOM      9  C   UNL     1       1.139  -0.484   2.728  0.00  0.00    +0.000 C 
ATOM     10  N   UNL     1       0.569  -0.586   3.964  0.00  0.00    +0.000 N 
ATOM     11  O   UNL     1       0.618  -1.021   1.758  0.00  0.00    +0.000 OA
ATOM     12  H   UNL     1       0.963  -0.145   4.788  0.00  0.00    +0.000 HD
ATOM     13  H   UNL     1      -0.304  -1.089   4.050  0.00  0.00    +0.000 HD
ENDBRANCH   7   9
BRANCH   1  15
ATOM     14  C   UNL     1       3.260   1.907   5.712  0.00  0.00    +0.000 C 
ATOM     15  O   UNL     1       2.535   1.026   4.849  0.00  0.00    +0.000 OA
ENDBRANCH   1  15
BRANCH   4  16
ATOM     16  C   UNL     1       6.709   2.602   2.966  0.00  0.00    +0.000 C 
BRANCH  16  17
ATOM     17  C   UNL     1       7.894   3.448   2.576  0.00  0.00    +0.000 A 
ATOM     18  C   UNL     1       9.195   2.957   2.651  0.00  0.00    +0.000 A 
ATOM     19  C   UNL     1      10.236   3.798   2.296  0.00  0.00    +0.000 A 
ATOM     20  N   UNL     1      10.069   5.075   1.886  0.00  0.00    +0.000 NA
ATOM     21  C   UNL     1       8.804   5.563   1.828  0.00  0.00    +0.000 A 
ATOM     22  C   UNL     1       7.705   4.772   2.160  0.00  0.00    +0.000 A 
BRANCH  21  23
ATOM     23  C   UNL     1       8.665   6.965   1.386  0.00  0.00    +0.000 A 
ATOM     24  C   UNL     1       7.635   7.790   1.853  0.00  0.00    +0.000 A 
ATOM     25  C   UNL     1       7.534   9.088   1.376  0.00  0.00    +0.000 A 
ATOM     26  N   UNL     1       8.383   9.621   0.476  0.00  0.00    +0.000 NA
ATOM     27  C   UNL     1       9.391   8.836   0.034  0.00  0.00    +0.000 A 
ATOM     28  C   UNL     1      10.328   9.427  -0.975  0.00  0.00    +0.000 C 
ATOM     29  C   UNL     1       9.566   7.524   0.468  0.00  0.00    +0.000 A 
ENDBRANCH  21  23
ENDBRANCH  16  17
ENDBRANCH   4  16
TORSDOF 5
