REMARK  Name = 
REMARK  8 active torsions:
REMARK  status: ('A' for Active; 'I' for Inactive)
REMARK    1  A    between atoms: N_1  and  C_2
REMARK    2  A    between atoms: C_2  and  C_3
REMARK    3  A    between atoms: C_3  and  C_4
REMARK    4  A    between atoms: C_4  and  C_5
REMARK    5  A    between atoms: N_8  and  C_9
REMARK    6  A    between atoms: C_9  and  C_10
REMARK    7  A    between atoms: C_16  and  C_17
REMARK    8  A    between atoms: C_17  and  O_18
REMARK                            x       y       z     vdW  Elec       q    Type
REMARK                         _______ _______ _______ _____ _____    ______ ____
ROOT
ATOM      1  C   UNL     1       4.822  -2.705  -0.597  0.00  0.00    +0.000 A 
ATOM      2  N   UNL     1       5.846  -2.992  -1.467  0.00  0.00    +0.000 NA
ATOM      3  C   UNL     1       5.907  -4.301  -1.511  0.00  0.00    +0.000 A 
ATOM      4  N   UNL     1       4.957  -4.879  -0.712  0.00  0.00    +0.000 N 
ATOM      5  C   UNL     1       4.280  -3.868  -0.072  0.00  0.00    +0.000 A 
ENDROOT
BRANCH   1   6
ATOM      6  C   UNL     1       4.404  -1.291  -0.380  0.00  0.00    +0.000 C 
BRANCH   6   7
ATOM      7  C   UNL     1       3.850  -0.642  -1.653  0.00  0.00    +0.000 C 
BRANCH   7   8
ATOM      8  C   UNL     1       2.631  -1.353  -2.247  0.00  0.00    +0.000 C 
BRANCH   8   9
ATOM      9  N   UNL     1       1.513  -1.416  -1.304  0.00  0.00    +0.000 NA
ATOM     10  H   UNL     1       0.703  -1.807  -1.792  0.00  0.00    +0.000 HD
ATOM     11  H   UNL     1       1.238  -0.462  -1.062  0.00  0.00    +0.000 HD
ENDBRANCH   8   9
ENDBRANCH   7   8
ENDBRANCH   6   7
ENDBRANCH   1   6
BRANCH   4  12
ATOM     12  C   UNL     1       4.758  -6.315  -0.591  0.00  0.00    +0.000 C 
BRANCH  12  13
ATOM     13  C   UNL     1       3.644  -6.822  -1.472  0.00  0.00    +0.000 A 
ATOM     14  C   UNL     1       3.712  -6.723  -2.866  0.00  0.00    +0.000 A 
ATOM     15  C   UNL     1       2.665  -7.226  -3.624  0.00  0.00    +0.000 A 
ATOM     16  N   UNL     1       1.576  -7.823  -3.099  0.00  0.00    +0.000 NA
ATOM     17  C   UNL     1       1.523  -7.905  -1.754  0.00  0.00    +0.000 A 
ATOM     18  C   UNL     1       2.517  -7.430  -0.911  0.00  0.00    +0.000 A 
ENDBRANCH  12  13
ENDBRANCH   4  12
BRANCH   5  19
ATOM     19  C   UNL     1       3.187  -4.066   0.905  0.00  0.00    +0.000 C 
BRANCH  19  20
ATOM     20  O   UNL     1       1.989  -4.202   0.164  0.00  0.00    +0.000 OA
ATOM     21  H   UNL     1       1.884  -3.366  -0.338  0.00  0.00    +0.000 HD
ENDBRANCH  19  20
ENDBRANCH   5  19
TORSDOF 8
