REMARK  Name = 
REMARK  7 active torsions:
REMARK  status: ('A' for Active; 'I' for Inactive)
REMARK    1  A    between atoms: C_1  and  N_2
REMARK    2  A    between atoms: N_2  and  C_3
REMARK    3  A    between atoms: C_3  and  C_4
REMARK    4  A    between atoms: C_8  and  C_9
REMARK    5  A    between atoms: C_9  and  O_10
REMARK    6  A    between atoms: O_10  and  C_11
REMARK    7  A    between atoms: C_18  and  C_20
REMARK                            x       y       z     vdW  Elec       q    Type
REMARK                         _______ _______ _______ _____ _____    ______ ____
ROOT
ATOM      1  C   UNL     1       1.142   0.162  -0.620  0.00  0.00    +0.000 C 
ATOM      2  N   UNL     1       2.432   0.166   0.057  0.00  0.00    +0.000 N 
ATOM      3  C   UNL     1       3.028   1.413   0.299  0.00  0.00    +0.000 C 
ATOM      4  O   UNL     1       2.459   2.464   0.014  0.00  0.00    +0.000 OA
ENDROOT
BRANCH   3   5
ATOM      5  C   UNL     1       4.376   1.462   0.885  0.00  0.00    +0.000 A 
ATOM      6  C   UNL     1       5.458   0.724   0.430  0.00  0.00    +0.000 A 
ATOM      7  S   UNL     1       6.908   1.054   1.269  0.00  0.00    +0.000 S 
ATOM      8  C   UNL     1       6.166   2.291   2.170  0.00  0.00    +0.000 A 
ATOM      9  N   UNL     1       6.885   3.065   3.028  0.00  0.00    +0.000 NA
ATOM     10  C   UNL     1       6.203   4.005   3.584  0.00  0.00    +0.000 A 
ATOM     11  N   UNL     1       4.862   4.224   3.392  0.00  0.00    +0.000 N 
ATOM     12  C   UNL     1       4.066   3.380   2.647  0.00  0.00    +0.000 A 
ATOM     13  O   UNL     1       2.844   3.455   2.695  0.00  0.00    +0.000 OA
ATOM     14  C   UNL     1       4.812   2.383   1.905  0.00  0.00    +0.000 A 
ATOM     15  H   UNL     1       4.374   4.938   3.912  0.00  0.00    +0.000 HD
ENDBRANCH   3   5
BRANCH   2  16
ATOM     16  C   UNL     1       3.014  -1.106   0.498  0.00  0.00    +0.000 C 
BRANCH  16  17
ATOM     17  C   UNL     1       2.143  -2.340   0.523  0.00  0.00    +0.000 A 
ATOM     18  C   UNL     1       1.307  -2.605   1.600  0.00  0.00    +0.000 A 
ATOM     19  C   UNL     1       0.612  -3.811   1.620  0.00  0.00    +0.000 A 
ATOM     20  C   UNL     1       0.766  -4.714   0.571  0.00  0.00    +0.000 A 
ATOM     21  C   UNL     1       1.626  -4.387  -0.473  0.00  0.00    +0.000 A 
ATOM     22  N   UNL     1       2.299  -3.210  -0.508  0.00  0.00    +0.000 NA
BRANCH  21  23
ATOM     23  C   UNL     1       1.928  -5.385  -1.568  0.00  0.00    +0.000 C 
BRANCH  23  24
ATOM     24  O   UNL     1       0.924  -5.364  -2.584  0.00  0.00    +0.000 OA
BRANCH  24  25
ATOM     25  C   UNL     1       1.119  -6.224  -3.634  0.00  0.00    +0.000 A 
ATOM     26  C   UNL     1       2.198  -7.091  -3.794  0.00  0.00    +0.000 A 
ATOM     27  C   UNL     1       2.226  -7.913  -4.909  0.00  0.00    +0.000 A 
ATOM     28  N   UNL     1       1.268  -7.924  -5.859  0.00  0.00    +0.000 NA
ATOM     29  C   UNL     1       0.240  -7.067  -5.688  0.00  0.00    +0.000 A 
ATOM     30  C   UNL     1       0.125  -6.208  -4.608  0.00  0.00    +0.000 A 
ENDBRANCH  24  25
ENDBRANCH  23  24
ENDBRANCH  21  23
ENDBRANCH  16  17
ENDBRANCH   2  16
TORSDOF 6
