REMARK  Name = 
REMARK  8 active torsions:
REMARK  status: ('A' for Active; 'I' for Inactive)
REMARK    1  A    between atoms: N_1  and  C_2
REMARK    2  A    between atoms: C_2  and  C_3
REMARK    3  A    between atoms: C_2  and  C_18
REMARK    4  A    between atoms: C_3  and  N_4
REMARK    5  A    between atoms: C_7  and  C_8
REMARK    6  A    between atoms: C_8  and  N_9
REMARK    7  A    between atoms: N_9  and  C_10
REMARK    8  A    between atoms: C_10  and  C_11
REMARK                            x       y       z     vdW  Elec       q    Type
REMARK                         _______ _______ _______ _____ _____    ______ ____
ROOT
ATOM      1  C   UNL     1       2.940  -1.302  -0.424  0.00  0.00    +0.000 C 
ENDROOT
BRANCH   1   2
ATOM      2  N   UNL     1       2.608  -2.455   0.464  0.00  0.00    +0.000 NA
ATOM      3  C   UNL     1       1.153  -2.627   0.600  0.00  0.00    +0.000 C 
ATOM      4  C   UNL     1       0.764  -3.868   1.404  0.00  0.00    +0.000 C 
ATOM      5  C   UNL     1       1.364  -5.147   0.821  0.00  0.00    +0.000 C 
ATOM      6  C   UNL     1       2.878  -4.934   0.679  0.00  0.00    +0.000 C 
ATOM      7  C   UNL     1       3.213  -3.674  -0.122  0.00  0.00    +0.000 C 
BRANCH   5   8
ATOM      8  C   UNL     1       0.659  -5.529  -0.498  0.00  0.00    +0.000 C 
BRANCH   8   9
ATOM      9  N   UNL     1       1.210  -6.766  -1.038  0.00  0.00    +0.000 NA
ATOM     10  H   UNL     1       1.078  -7.537  -0.381  0.00  0.00    +0.000 HD
BRANCH   9  11
ATOM     11  C   UNL     1       0.555  -7.145  -2.299  0.00  0.00    +0.000 C 
BRANCH  11  12
ATOM     12  C   UNL     1       1.135  -8.435  -2.793  0.00  0.00    +0.000 A 
ATOM     13  N   UNL     1       1.763  -8.546  -4.011  0.00  0.00    +0.000 NA
ATOM     14  C   UNL     1       2.156  -9.796  -4.030  0.00  0.00    +0.000 A 
ATOM     15  N   UNL     1       1.768 -10.413  -2.884  0.00  0.00    +0.000 N 
ATOM     16  N   UNL     1       1.092  -9.575  -2.082  0.00  0.00    +0.000 NA
ATOM     17  H   UNL     1       1.922 -11.370  -2.588  0.00  0.00    +0.000 HD
ENDBRANCH  11  12
ENDBRANCH   9  11
ENDBRANCH   8   9
ENDBRANCH   5   8
ENDBRANCH   1   2
BRANCH   1  18
ATOM     18  C   UNL     1       2.509   0.148  -0.009  0.00  0.00    +0.000 C 
BRANCH  18  19
ATOM     19  C   UNL     1       1.013   0.425   0.057  0.00  0.00    +0.000 A 
ATOM     20  C   UNL     1       0.320   0.808   1.201  0.00  0.00    +0.000 A 
ATOM     21  S   UNL     1      -1.355   1.014   0.958  0.00  0.00    +0.000 S 
ATOM     22  C   UNL     1      -1.215   0.643  -0.693  0.00  0.00    +0.000 A 
ATOM     23  N   UNL     1      -2.309   0.660  -1.508  0.00  0.00    +0.000 NA
ATOM     24  C   UNL     1      -2.058   0.349  -2.731  0.00  0.00    +0.000 A 
ATOM     25  N   UNL     1      -0.824   0.014  -3.224  0.00  0.00    +0.000 N 
ATOM     26  C   UNL     1       0.312   0.004  -2.447  0.00  0.00    +0.000 A 
ATOM     27  O   UNL     1       1.405  -0.271  -2.930  0.00  0.00    +0.000 OA
ATOM     28  C   UNL     1       0.087   0.345  -1.053  0.00  0.00    +0.000 A 
ATOM     29  H   UNL     1      -0.696  -0.221  -4.197  0.00  0.00    +0.000 HD
ENDBRANCH  18  19
BRANCH  18  30
ATOM     30  N   UNL     1       3.118   0.503   1.289  0.00  0.00    +0.000 NA
ATOM     31  H   UNL     1       4.053   0.866   1.122  0.00  0.00    +0.000 HD
ATOM     32  H   UNL     1       3.254  -0.376   1.799  0.00  0.00    +0.000 HD
ENDBRANCH  18  30
ENDBRANCH   1  18
TORSDOF 8
