REMARK  Name = 
REMARK  7 active torsions:
REMARK  status: ('A' for Active; 'I' for Inactive)
REMARK    1  A    between atoms: C_1  and  C_2
REMARK    2  A    between atoms: C_2  and  C_3
REMARK    3  A    between atoms: C_2  and  C_14
REMARK    4  A    between atoms: C_3  and  N_4
REMARK    5  A    between atoms: C_8  and  C_9
REMARK    6  A    between atoms: C_19  and  O_20
REMARK    7  A    between atoms: O_20  and  C_21
REMARK                            x       y       z     vdW  Elec       q    Type
REMARK                         _______ _______ _______ _____ _____    ______ ____
ROOT
ATOM      1  C   UNL     1       0.935   0.128   0.040  0.00  0.00    +0.000 C 
ATOM      2  C   UNL     1       2.467   0.174   0.061  0.00  0.00    +0.000 C 
ENDROOT
BRANCH   2   3
ATOM      3  C   UNL     1       3.019  -1.183   0.482  0.00  0.00    +0.000 A 
ATOM      4  C   UNL     1       2.758  -1.732   1.746  0.00  0.00    +0.000 A 
ATOM      5  C   UNL     1       3.226  -3.005   2.066  0.00  0.00    +0.000 A 
ATOM      6  F   UNL     1       2.956  -3.516   3.275  0.00  0.00    +0.000 F 
ATOM      7  C   UNL     1       3.946  -3.758   1.150  0.00  0.00    +0.000 A 
ATOM      8  C   UNL     1       4.214  -3.228  -0.109  0.00  0.00    +0.000 A 
ATOM      9  C   UNL     1       3.777  -1.938  -0.431  0.00  0.00    +0.000 A 
BRANCH   8  10
ATOM     10  O   UNL     1       4.914  -4.039  -0.969  0.00  0.00    +0.000 OA
BRANCH  10  11
ATOM     11  C   UNL     1       4.756  -3.819  -2.392  0.00  0.00    +0.000 C 
ATOM     12  C   UNL     1       3.364  -4.070  -3.009  0.00  0.00    +0.000 C 
ATOM     13  N   UNL     1       3.963  -4.918  -4.050  0.00  0.00    +0.000 NA
ATOM     14  C   UNL     1       5.231  -4.968  -3.304  0.00  0.00    +0.000 C 
ATOM     15  H   UNL     1       4.035  -4.469  -4.963  0.00  0.00    +0.000 HD
ENDBRANCH  10  11
ENDBRANCH   8  10
ENDBRANCH   2   3
BRANCH   2  16
ATOM     16  C   UNL     1       3.013   1.315   0.944  0.00  0.00    +0.000 C 
BRANCH  16  17
ATOM     17  N   UNL     1       2.678   2.623   0.387  0.00  0.00    +0.000 N 
ATOM     18  C   UNL     1       3.078   3.763   1.066  0.00  0.00    +0.000 A 
ATOM     19  C   UNL     1       4.296   3.860   1.730  0.00  0.00    +0.000 A 
ATOM     20  C   UNL     1       4.651   5.060   2.347  0.00  0.00    +0.000 A 
ATOM     21  C   UNL     1       3.803   6.161   2.265  0.00  0.00    +0.000 A 
ATOM     22  C   UNL     1       2.614   5.982   1.576  0.00  0.00    +0.000 A 
ATOM     23  N   UNL     1       2.239   4.813   0.986  0.00  0.00    +0.000 NA
ATOM     24  H   UNL     1       1.702   2.772   0.137  0.00  0.00    +0.000 HD
BRANCH  21  25
ATOM     25  C   UNL     1       4.224   7.430   2.906  0.00  0.00    +0.000 C 
ATOM     26  N   UNL     1       3.430   8.538   2.790  0.00  0.00    +0.000 N 
ATOM     27  O   UNL     1       5.276   7.501   3.532  0.00  0.00    +0.000 OA
ATOM     28  H   UNL     1       2.577   8.602   2.261  0.00  0.00    +0.000 HD
ATOM     29  H   UNL     1       3.778   9.384   3.226  0.00  0.00    +0.000 HD
ENDBRANCH  21  25
ENDBRANCH  16  17
ENDBRANCH   2  16
TORSDOF 6
