REMARK  Name = 
REMARK  5 active torsions:
REMARK  status: ('A' for Active; 'I' for Inactive)
REMARK    1  A    between atoms: C_2  and  C_4
REMARK    2  A    between atoms: C_7  and  O_8
REMARK    3  A    between atoms: O_8  and  C_9
REMARK    4  A    between atoms: C_9  and  C_10
REMARK    5  A    between atoms: C_15  and  C_16
REMARK                            x       y       z     vdW  Elec       q    Type
REMARK                         _______ _______ _______ _____ _____    ______ ____
ROOT
ATOM      1  C   UNL     1       5.136   5.098  -5.313  0.00  0.00    +0.000 A 
ATOM      2  C   UNL     1       5.098   6.467  -5.590  0.00  0.00    +0.000 A 
ATOM      3  C   UNL     1       5.765   6.963  -6.705  0.00  0.00    +0.000 A 
ATOM      4  F   UNL     1       5.729   8.278  -6.958  0.00  0.00    +0.000 F 
ATOM      5  C   UNL     1       6.478   6.122  -7.558  0.00  0.00    +0.000 A 
ATOM      6  C   UNL     1       6.524   4.741  -7.314  0.00  0.00    +0.000 A 
ATOM      7  C   UNL     1       5.824   4.255  -6.200  0.00  0.00    +0.000 A 
ENDROOT
BRANCH   6   8
ATOM      8  C   UNL     1       7.350   3.836  -8.219  0.00  0.00    +0.000 C 
ATOM      9  C   UNL     1       6.543   2.755  -8.957  0.00  0.00    +0.000 C 
ATOM     10  C   UNL     1       6.277   1.501  -8.126  0.00  0.00    +0.000 C 
ATOM     11  N   UNL     1       7.486   0.958  -7.508  0.00  0.00    +0.000 NA
ATOM     12  C   UNL     1       8.206   1.948  -6.705  0.00  0.00    +0.000 C 
ATOM     13  C   UNL     1       8.555   3.206  -7.498  0.00  0.00    +0.000 C 
ATOM     14  H   UNL     1       8.107   0.616  -8.242  0.00  0.00    +0.000 HD
ENDBRANCH   6   8
BRANCH   1  15
ATOM     15  C   UNL     1       4.404   4.526  -4.120  0.00  0.00    +0.000 C 
BRANCH  15  16
ATOM     16  O   UNL     1       5.095   3.375  -3.616  0.00  0.00    +0.000 OA
BRANCH  16  20
ATOM     17  C   UNL     1       3.632   1.222  -0.440  0.00  0.00    +0.000 A 
ATOM     18  C   UNL     1       2.901   2.337  -0.828  0.00  0.00    +0.000 A 
ATOM     19  C   UNL     1       3.361   3.098  -1.903  0.00  0.00    +0.000 A 
ATOM     20  C   UNL     1       4.526   2.724  -2.560  0.00  0.00    +0.000 A 
ATOM     21  C   UNL     1       5.187   1.584  -2.101  0.00  0.00    +0.000 A 
ATOM     22  N   UNL     1       4.778   0.821  -1.055  0.00  0.00    +0.000 NA
BRANCH  17  24
ATOM     23  N   UNL     1       3.959  -0.644   1.079  0.00  0.00    +0.000 N 
ATOM     24  C   UNL     1       3.154   0.400   0.718  0.00  0.00    +0.000 C 
ATOM     25  O   UNL     1       2.112   0.647   1.312  0.00  0.00    +0.000 OA
ATOM     26  H   UNL     1       3.693  -1.231   1.856  0.00  0.00    +0.000 HD
ATOM     27  H   UNL     1       4.820  -0.814   0.571  0.00  0.00    +0.000 HD
ENDBRANCH  17  24
ENDBRANCH  16  20
ENDBRANCH  15  16
ENDBRANCH   1  15
TORSDOF 5
