REMARK  Name = 
REMARK  8 active torsions:
REMARK  status: ('A' for Active; 'I' for Inactive)
REMARK    1  A    between atoms: C_1  and  C_2
REMARK    2  A    between atoms: C_2  and  C_3
REMARK    3  A    between atoms: C_2  and  C_9
REMARK    4  A    between atoms: N_16  and  C_17
REMARK    5  A    between atoms: C_17  and  CA_18
REMARK    6  A    between atoms: CA_18  and  N_19
REMARK    7  A    between atoms: CA_18  and  C_20
REMARK    8  A    between atoms: C_20  and  O_21
REMARK                            x       y       z     vdW  Elec       q    Type
REMARK                         _______ _______ _______ _____ _____    ______ ____
ROOT
ATOM      1  C   UNL     1       0.499   0.132  -5.486  0.00  0.00    +0.000 A 
ATOM      2  C   UNL     1       0.776  -0.038  -6.893  0.00  0.00    +0.000 A 
ATOM      3  C   UNL     1       1.896   0.706  -7.227  0.00  0.00    +0.000 A 
ATOM      4  N   UNL     1       2.290   1.325  -6.092  0.00  0.00    +0.000 N 
ATOM      5  C   UNL     1       1.539   0.919  -5.038  0.00  0.00    +0.000 A 
ATOM      6  C   UNL     1       2.057   1.541  -3.803  0.00  0.00    +0.000 C 
ATOM      7  C   UNL     1       3.394   2.165  -4.297  0.00  0.00    +0.000 C 
ATOM      8  N   UNL     1       3.266   2.307  -5.772  0.00  0.00    +0.000 N 
ENDROOT
BRANCH   1  10
ATOM      9  C   UNL     1      -0.340  -1.890  -4.232  0.00  0.00    +0.000 C 
ATOM     10  C   UNL     1      -0.668  -0.501  -4.766  0.00  0.00    +0.000 C 
BRANCH  10  11
ATOM     11  C   UNL     1      -1.216   0.478  -3.734  0.00  0.00    +0.000 A 
ATOM     12  C   UNL     1      -0.961   0.347  -2.357  0.00  0.00    +0.000 A 
ATOM     13  C   UNL     1      -1.582   1.183  -1.424  0.00  0.00    +0.000 A 
ATOM     14  C   UNL     1      -2.462   2.174  -1.849  0.00  0.00    +0.000 A 
ATOM     15  C   UNL     1      -2.706   2.342  -3.210  0.00  0.00    +0.000 A 
ATOM     16  C   UNL     1      -2.085   1.506  -4.144  0.00  0.00    +0.000 A 
ENDBRANCH  10  11
ENDBRANCH   1  10
BRANCH   8  17
ATOM     17  C   UNL     1       4.547   2.189  -6.473  0.00  0.00    +0.000 C 
BRANCH  17  18
ATOM     18  CA  UNL     1       4.564   2.990  -7.808  0.00  0.00    +0.000 C 
BRANCH  18  19
ATOM     19  N   UNL     1       5.891   2.853  -8.453  0.00  0.00    +0.000 NA
ATOM     20  H1  UNL     1       6.541   3.439  -7.917  0.00  0.00    +0.000 HD
ATOM     21  H2  UNL     1       5.853   3.322  -9.361  0.00  0.00    +0.000 HD
ENDBRANCH  18  19
BRANCH  18  22
ATOM     22  C   UNL     1       4.254   4.492  -7.608  0.00  0.00    +0.000 C 
BRANCH  22  23
ATOM     23  O   UNL     1       5.312   5.144  -6.901  0.00  0.00    +0.000 OA
ATOM     24  H   UNL     1       5.204   4.908  -5.963  0.00  0.00    +0.000 HD
ENDBRANCH  22  23
ENDBRANCH  18  22
ENDBRANCH  17  18
ENDBRANCH   8  17
TORSDOF 7
