REMARK  Name = 
REMARK  5 active torsions:
REMARK  status: ('A' for Active; 'I' for Inactive)
REMARK    1  A    between atoms: C_2  and  C_4
REMARK    2  A    between atoms: C_7  and  O_8
REMARK    3  A    between atoms: O_8  and  C_9
REMARK    4  A    between atoms: C_9  and  C_10
REMARK    5  A    between atoms: C_14  and  C_15
REMARK                            x       y       z     vdW  Elec       q    Type
REMARK                         _______ _______ _______ _____ _____    ______ ____
ROOT
ATOM      1  C   UNL     1       4.915   2.374  -5.523  0.00  0.00    +0.000 C 
ATOM      2  C   UNL     1       4.899   3.895  -5.434  0.00  0.00    +0.000 C 
ATOM      3  C   UNL     1       3.614   3.151  -5.598  0.00  0.00    +0.000 C 
ENDROOT
BRANCH   1   4
ATOM      4  C   UNL     1       5.496   1.728  -6.769  0.00  0.00    +0.000 A 
ATOM      5  C   UNL     1       6.873   1.767  -7.029  0.00  0.00    +0.000 A 
ATOM      6  C   UNL     1       7.420   1.110  -8.131  0.00  0.00    +0.000 A 
ATOM      7  C   UNL     1       6.598   0.382  -8.992  0.00  0.00    +0.000 A 
ATOM      8  C   UNL     1       5.214   0.297  -8.776  0.00  0.00    +0.000 A 
ATOM      9  C   UNL     1       4.693   1.001  -7.673  0.00  0.00    +0.000 A 
BRANCH   8  10
ATOM     10  C   UNL     1       4.346  -0.550  -9.615  0.00  0.00    +0.000 A 
ATOM     11  C   UNL     1       4.757  -1.766 -10.145  0.00  0.00    +0.000 A 
ATOM     12  N   UNL     1       3.976  -2.606 -10.860  0.00  0.00    +0.000 NA
ATOM     13  C   UNL     1       2.713  -2.205 -11.046  0.00  0.00    +0.000 A 
ATOM     14  N   UNL     1       2.185  -1.055 -10.608  0.00  0.00    +0.000 NA
ATOM     15  C   UNL     1       3.022  -0.255  -9.908  0.00  0.00    +0.000 A 
ENDBRANCH   8  10
ENDBRANCH   1   4
BRANCH   1  16
ATOM     16  O   UNL     1       5.314   1.794  -4.257  0.00  0.00    +0.000 OA
BRANCH  16  20
ATOM     17  C   UNL     1       3.341  -1.266  -2.369  0.00  0.00    +0.000 A 
ATOM     18  C   UNL     1       2.864  -0.905  -3.623  0.00  0.00    +0.000 A 
ATOM     19  C   UNL     1       3.512   0.119  -4.312  0.00  0.00    +0.000 A 
ATOM     20  C   UNL     1       4.612   0.743  -3.737  0.00  0.00    +0.000 A 
ATOM     21  C   UNL     1       5.035   0.285  -2.491  0.00  0.00    +0.000 A 
ATOM     22  N   UNL     1       4.430  -0.698  -1.782  0.00  0.00    +0.000 NA
BRANCH  17  24
ATOM     23  N   UNL     1       3.097  -2.537  -0.322  0.00  0.00    +0.000 N 
ATOM     24  C   UNL     1       2.611  -2.312  -1.576  0.00  0.00    +0.000 C 
ATOM     25  O   UNL     1       1.627  -2.900  -2.017  0.00  0.00    +0.000 OA
ATOM     26  H   UNL     1       2.615  -3.186   0.283  0.00  0.00    +0.000 HD
ATOM     27  H   UNL     1       3.883  -1.994   0.021  0.00  0.00    +0.000 HD
ENDBRANCH  17  24
ENDBRANCH  16  20
ENDBRANCH   1  16
TORSDOF 5
