REMARK  Name = 
REMARK  5 active torsions:
REMARK  status: ('A' for Active; 'I' for Inactive)
REMARK    1  A    between atoms: C_2  and  C_18
REMARK    2  A    between atoms: N_3  and  C_4
REMARK    3  A    between atoms: C_4  and  C_5
REMARK    4  A    between atoms: C_8  and  C_9
REMARK    5  A    between atoms: C_9  and  C_10
REMARK                            x       y       z     vdW  Elec       q    Type
REMARK                         _______ _______ _______ _____ _____    ______ ____
ROOT
ATOM      1  O   UNL     1      -0.136  -0.121   1.217  0.00  0.00    +0.000 OA
ATOM      2  C   UNL     1       0.036  -0.229   2.418  0.00  0.00    +0.000 C 
ATOM      3  N   UNL     1       1.114  -0.861   3.004  0.00  0.00    +0.000 N 
ATOM      4  H   UNL     1       1.301  -0.632   3.968  0.00  0.00    +0.000 HD
ENDROOT
BRANCH   2   5
ATOM      5  C   UNL     1      -0.718   0.509   3.426  0.00  0.00    +0.000 A 
ATOM      6  C   UNL     1      -1.127   1.815   3.237  0.00  0.00    +0.000 A 
ATOM      7  S   UNL     1      -1.286   2.630   4.742  0.00  0.00    +0.000 S 
ATOM      8  C   UNL     1      -1.028   1.188   5.617  0.00  0.00    +0.000 A 
ATOM      9  N   UNL     1      -0.879   1.166   6.969  0.00  0.00    +0.000 NA
ATOM     10  C   UNL     1      -0.764  -0.021   7.465  0.00  0.00    +0.000 A 
ATOM     11  N   UNL     1      -0.829  -1.192   6.753  0.00  0.00    +0.000 N 
ATOM     12  C   UNL     1      -0.959  -1.217   5.377  0.00  0.00    +0.000 A 
ATOM     13  O   UNL     1      -1.063  -2.265   4.755  0.00  0.00    +0.000 OA
ATOM     14  C   UNL     1      -0.976   0.098   4.775  0.00  0.00    +0.000 A 
ATOM     15  H   UNL     1      -0.816  -2.087   7.215  0.00  0.00    +0.000 HD
ENDBRANCH   2   5
BRANCH   3  16
ATOM     16  C   UNL     1       2.255  -1.300   2.247  0.00  0.00    +0.000 C 
BRANCH  16  17
ATOM     17  C   UNL     1       3.234  -1.976   3.165  0.00  0.00    +0.000 A 
ATOM     18  C   UNL     1       4.173  -1.243   3.898  0.00  0.00    +0.000 A 
ATOM     19  C   UNL     1       5.028  -1.896   4.785  0.00  0.00    +0.000 A 
ATOM     20  C   UNL     1       4.912  -3.275   4.939  0.00  0.00    +0.000 A 
ATOM     21  N   UNL     1       3.999  -4.004   4.250  0.00  0.00    +0.000 NA
ATOM     22  C   UNL     1       3.187  -3.346   3.387  0.00  0.00    +0.000 A 
BRANCH  20  23
ATOM     23  C   UNL     1       5.736  -4.009   5.977  0.00  0.00    +0.000 C 
BRANCH  23  24
ATOM     24  C   UNL     1       5.064  -4.034   7.319  0.00  0.00    +0.000 A 
ATOM     25  C   UNL     1       3.851  -4.666   7.525  0.00  0.00    +0.000 A 
ATOM     26  N   UNL     1       3.166  -4.617   8.686  0.00  0.00    +0.000 NA
ATOM     27  C   UNL     1       3.746  -3.919   9.672  0.00  0.00    +0.000 A 
ATOM     28  N   UNL     1       4.936  -3.302   9.608  0.00  0.00    +0.000 NA
ATOM     29  C   UNL     1       5.574  -3.383   8.424  0.00  0.00    +0.000 A 
ENDBRANCH  23  24
ENDBRANCH  20  23
ENDBRANCH  16  17
ENDBRANCH   3  16
TORSDOF 5
