REMARK  Name = 
REMARK  7 active torsions:
REMARK  status: ('A' for Active; 'I' for Inactive)
REMARK    1  A    between atoms: C_1  and  C_2
REMARK    2  A    between atoms: C_2  and  N_3
REMARK    3  A    between atoms: C_2  and  C_16
REMARK    4  A    between atoms: C_4  and  C_6
REMARK    5  A    between atoms: C_19  and  O_20
REMARK    6  A    between atoms: O_20  and  C_21
REMARK    7  A    between atoms: C_21  and  C_22
REMARK                            x       y       z     vdW  Elec       q    Type
REMARK                         _______ _______ _______ _____ _____    ______ ____
ROOT
ATOM      1  C   UNL     1       1.292  -0.617   0.385  0.00  0.00    +0.000 C 
ATOM      2  C   UNL     1       2.547   0.101  -0.126  0.00  0.00    +0.000 C 
ENDROOT
BRANCH   2   3
ATOM      3  C   UNL     1       2.938   1.259   0.779  0.00  0.00    +0.000 A 
ATOM      4  C   UNL     1       2.827   2.571   0.297  0.00  0.00    +0.000 A 
ATOM      5  C   UNL     1       3.086   3.665   1.125  0.00  0.00    +0.000 A 
ATOM      6  C   UNL     1       3.486   3.474   2.446  0.00  0.00    +0.000 A 
ATOM      7  C   UNL     1       3.648   2.173   2.926  0.00  0.00    +0.000 A 
ATOM      8  C   UNL     1       3.370   1.073   2.102  0.00  0.00    +0.000 A 
BRANCH   6   9
ATOM      9  O   UNL     1       3.772   4.483   3.328  0.00  0.00    +0.000 OA
BRANCH   9  10
ATOM     10  C   UNL     1       3.030   5.688   3.109  0.00  0.00    +0.000 C 
BRANCH  10  11
ATOM     11  C   UNL     1       3.414   6.741   4.161  0.00  0.00    +0.000 C 
ATOM     12  C   UNL     1       3.130   6.238   5.584  0.00  0.00    +0.000 C 
ATOM     13  C   UNL     1       1.629   6.167   5.868  0.00  0.00    +0.000 C 
ATOM     14  N   UNL     1       0.978   7.463   5.658  0.00  0.00    +0.000 NA
ATOM     15  C   UNL     1       1.173   7.948   4.291  0.00  0.00    +0.000 C 
ATOM     16  C   UNL     1       2.655   8.057   3.922  0.00  0.00    +0.000 C 
ATOM     17  H   UNL     1       1.375   8.140   6.310  0.00  0.00    +0.000 HD
ENDBRANCH  10  11
ENDBRANCH   9  10
ENDBRANCH   6   9
ENDBRANCH   2   3
BRANCH   2  18
ATOM     18  N   UNL     1       3.661  -0.805  -0.312  0.00  0.00    +0.000 N 
ATOM     19  C   UNL     1       3.851  -1.519  -1.470  0.00  0.00    +0.000 C 
ATOM     20  O   UNL     1       3.070  -1.484  -2.408  0.00  0.00    +0.000 OA
ATOM     21  H   UNL     1       4.147  -1.119   0.517  0.00  0.00    +0.000 HD
BRANCH  19  22
ATOM     22  C   UNL     1       5.099  -2.294  -1.562  0.00  0.00    +0.000 A 
ATOM     23  C   UNL     1       5.666  -2.540  -2.806  0.00  0.00    +0.000 A 
ATOM     24  S   UNL     1       7.078  -3.494  -2.738  0.00  0.00    +0.000 S 
ATOM     25  C   UNL     1       6.955  -3.644  -1.047  0.00  0.00    +0.000 A 
ATOM     26  N   UNL     1       7.838  -4.407  -0.345  0.00  0.00    +0.000 NA
ATOM     27  C   UNL     1       7.587  -4.481   0.917  0.00  0.00    +0.000 A 
ATOM     28  N   UNL     1       6.550  -3.841   1.550  0.00  0.00    +0.000 N 
ATOM     29  C   UNL     1       5.694  -2.989   0.897  0.00  0.00    +0.000 A 
ATOM     30  O   UNL     1       4.853  -2.325   1.506  0.00  0.00    +0.000 OA
ATOM     31  C   UNL     1       5.885  -2.932  -0.538  0.00  0.00    +0.000 A 
ATOM     32  H   UNL     1       6.434  -3.915   2.551  0.00  0.00    +0.000 HD
ENDBRANCH  19  22
ENDBRANCH   2  18
TORSDOF 6
