REMARK  Name = 
REMARK  6 active torsions:
REMARK  status: ('A' for Active; 'I' for Inactive)
REMARK    1  A    between atoms: N_1  and  C_2
REMARK    2  A    between atoms: C_5  and  C_6
REMARK    3  A    between atoms: C_6  and  O_7
REMARK    4  A    between atoms: O_7  and  C_8
REMARK    5  A    between atoms: CA_11  and  C_12
REMARK    6  A    between atoms: C_12  and  OXT_14
REMARK                            x       y       z     vdW  Elec       q    Type
REMARK                         _______ _______ _______ _____ _____    ______ ____
ROOT
ATOM      1  O   UNL     1       4.022   1.187   0.382  0.00  0.00    +0.000 OA
ENDROOT
BRANCH   1   2
ATOM      2  C   UNL     1       5.334   1.358   0.039  0.00  0.00    +0.000 A 
ATOM      3  C   UNL     1       6.076   0.488  -0.747  0.00  0.00    +0.000 A 
ATOM      4  C   UNL     1       7.402   0.796  -1.073  0.00  0.00    +0.000 A 
ATOM      5  CA  UNL     1       7.961   1.989  -0.590  0.00  0.00    +0.000 A 
ATOM      6  N   UNL     1       7.262   2.856   0.199  0.00  0.00    +0.000 NA
ATOM      7  C   UNL     1       5.976   2.512   0.492  0.00  0.00    +0.000 A 
BRANCH   5   8
ATOM      8  C   UNL     1       9.373   2.405  -0.930  0.00  0.00    +0.000 C 
ATOM      9  O   UNL     1      10.090   1.740  -1.632  0.00  0.00    +0.000 OA
BRANCH   8  10
ATOM     10  OXT UNL     1       9.774   3.585  -0.394  0.00  0.00    +0.000 OA
ATOM     11  HXT UNL     1       9.115   4.034   0.175  0.00  0.00    +0.000 HD
ENDBRANCH   8  10
ENDBRANCH   5   8
ENDBRANCH   1   2
BRANCH   1  12
ATOM     12  C   UNL     1       3.382   0.034  -0.180  0.00  0.00    +0.000 C 
BRANCH  12  16
ATOM     13  C   UNL     1      -0.989  -0.017  -0.341  0.00  0.00    +0.000 C 
ATOM     14  C   UNL     1      -0.294   1.252   0.160  0.00  0.00    +0.000 C 
ATOM     15  C   UNL     1       1.185   1.266  -0.219  0.00  0.00    +0.000 C 
ATOM     16  C   UNL     1       1.915   0.005   0.267  0.00  0.00    +0.000 C 
ATOM     17  C   UNL     1       1.207  -1.263  -0.232  0.00  0.00    +0.000 C 
ATOM     18  C   UNL     1      -0.270  -1.274   0.160  0.00  0.00    +0.000 C 
BRANCH  13  19
ATOM     19  N   UNL     1      -2.387  -0.039   0.087  0.00  0.00    +0.000 NA
ATOM     20  H   UNL     1      -2.853   0.814  -0.222  0.00  0.00    +0.000 HD
ATOM     21  H   UNL     1      -2.440  -0.034   1.105  0.00  0.00    +0.000 HD
ENDBRANCH  13  19
ENDBRANCH  12  16
ENDBRANCH   1  12
TORSDOF 6
