REMARK  Name = 
REMARK  7 active torsions:
REMARK  status: ('A' for Active; 'I' for Inactive)
REMARK    1  A    between atoms: C_2  and  C_3
REMARK    2  A    between atoms: N_7  and  C_8
REMARK    3  A    between atoms: C_8  and  C_9
REMARK    4  A    between atoms: C_9  and  C_10
REMARK    5  A    between atoms: C_12  and  N_13
REMARK    6  A    between atoms: N_13  and  C_14
REMARK    7  A    between atoms: C_19  and  C_20
REMARK                            x       y       z     vdW  Elec       q    Type
REMARK                         _______ _______ _______ _____ _____    ______ ____
ROOT
ATOM      1  C   UNL     1      -6.547   2.458  -0.258  0.00  0.00    +0.000 A 
ATOM      2  C   UNL     1      -7.945   2.434  -0.135  0.00  0.00    +0.000 A 
ATOM      3  C   UNL     1      -8.680   3.615  -0.007  0.00  0.00    +0.000 A 
ATOM      4  C   UNL     1      -7.996   4.836  -0.003  0.00  0.00    +0.000 A 
ATOM      5  C   UNL     1      -6.602   4.892  -0.165  0.00  0.00    +0.000 A 
ATOM      6  C   UNL     1      -5.887   3.693  -0.308  0.00  0.00    +0.000 A 
ENDROOT
BRANCH   5   7
ATOM      7  C   UNL     1      -5.872   6.212  -0.167  0.00  0.00    +0.000 C 
ATOM      8  F   UNL     1      -6.677   7.285   0.073  0.00  0.00    +0.000 F 
ATOM      9  F   UNL     1      -4.895   6.263   0.781  0.00  0.00    +0.000 F 
ATOM     10  F   UNL     1      -5.253   6.467  -1.353  0.00  0.00    +0.000 F 
ENDBRANCH   5   7
BRANCH   3  11
ATOM     11  N   UNL     1     -10.082   3.633   0.142  0.00  0.00    +0.000 N 
ATOM     12  H   UNL     1     -10.335   4.031   1.047  0.00  0.00    +0.000 HD
BRANCH  11  13
ATOM     13  C   UNL     1     -10.995   2.619  -0.312  0.00  0.00    +0.000 C 
ATOM     14  C   UNL     1     -12.456   2.898   0.111  0.00  0.00    +0.000 C 
ATOM     15  N   UNL     1     -12.607   1.463   0.443  0.00  0.00    +0.000 NA
ATOM     16  C   UNL     1     -11.133   1.364   0.571  0.00  0.00    +0.000 C 
ATOM     17  H   UNL     1     -12.983   0.914  -0.331  0.00  0.00    +0.000 HD
ENDBRANCH  11  13
ENDBRANCH   3  11
BRANCH   1  18
ATOM     18  C   UNL     1      -5.768   1.166  -0.333  0.00  0.00    +0.000 C 
BRANCH  18  19
ATOM     19  C   UNL     1      -5.734   0.606  -1.755  0.00  0.00    +0.000 C 
BRANCH  19  24
ATOM     20  C   UNL     1      -4.651  -2.790  -5.329  0.00  0.00    +0.000 A 
ATOM     21  C   UNL     1      -4.703  -1.405  -5.417  0.00  0.00    +0.000 A 
ATOM     22  C   UNL     1      -4.804  -0.653  -4.247  0.00  0.00    +0.000 A 
ATOM     23  C   UNL     1      -4.876  -1.295  -3.015  0.00  0.00    +0.000 A 
ATOM     24  N   UNL     1      -4.933  -0.611  -1.810  0.00  0.00    +0.000 N 
ATOM     25  N   UNL     1      -4.836  -2.639  -2.919  0.00  0.00    +0.000 NA
ATOM     26  C   UNL     1      -4.719  -3.355  -4.068  0.00  0.00    +0.000 A 
ATOM     27  H   UNL     1      -5.124  -1.303  -1.087  0.00  0.00    +0.000 HD
BRANCH  20  29
ATOM     28  N   UNL     1      -4.423  -4.256  -7.446  0.00  0.00    +0.000 NA
ATOM     29  C   UNL     1      -4.525  -3.604  -6.496  0.00  0.00    +0.000 C 
ENDBRANCH  20  29
ENDBRANCH  19  24
ENDBRANCH  18  19
ENDBRANCH   1  18
TORSDOF 7
