REMARK  Name = 
REMARK  7 active torsions:
REMARK  status: ('A' for Active; 'I' for Inactive)
REMARK    1  A    between atoms: N_1  and  C_2
REMARK    2  A    between atoms: C_2  and  C_3
REMARK    3  A    between atoms: C_3  and  C_4
REMARK    4  A    between atoms: C_7  and  C_8
REMARK    5  A    between atoms: C_8  and  N_9
REMARK    6  A    between atoms: C_14  and  C_15
REMARK    7  A    between atoms: C_15  and  O_17
REMARK                            x       y       z     vdW  Elec       q    Type
REMARK                         _______ _______ _______ _____ _____    ______ ____
ROOT
ATOM      1  N   UNL     1       9.761   1.656   1.637  0.00  0.00    +0.000 N 
ATOM      2  C   UNL     1      10.303   1.188   2.805  0.00  0.00    +0.000 A 
ATOM      3  N   UNL     1      10.591   2.160   3.633  0.00  0.00    +0.000 NA
ATOM      4  C   UNL     1      10.183   3.298   2.990  0.00  0.00    +0.000 A 
ATOM      5  C   UNL     1      10.041   4.584   3.512  0.00  0.00    +0.000 A 
ATOM      6  C   UNL     1       9.456   5.556   2.691  0.00  0.00    +0.000 A 
ATOM      7  C   UNL     1       9.239   5.315   1.327  0.00  0.00    +0.000 A 
ATOM      8  C   UNL     1       9.434   4.041   0.778  0.00  0.00    +0.000 A 
ATOM      9  C   UNL     1       9.799   3.032   1.678  0.00  0.00    +0.000 A 
ENDROOT
BRANCH   6  10
ATOM     10  C   UNL     1       8.998   6.835   3.276  0.00  0.00    +0.000 C 
ATOM     11  O   UNL     1       9.020   7.890   2.663  0.00  0.00    +0.000 OA
BRANCH  10  12
ATOM     12  O   UNL     1       8.475   6.708   4.514  0.00  0.00    +0.000 OA
ATOM     13  H   UNL     1       8.351   5.787   4.825  0.00  0.00    +0.000 HD
ENDBRANCH  10  12
ENDBRANCH   6  10
BRANCH   1  14
ATOM     14  C   UNL     1       8.980   0.833   0.719  0.00  0.00    +0.000 C 
BRANCH  14  18
ATOM     15  C   UNL     1       4.770   1.468   1.604  0.00  0.00    +0.000 A 
ATOM     16  C   UNL     1       5.364   2.075   0.491  0.00  0.00    +0.000 A 
ATOM     17  C   UNL     1       6.711   1.843   0.183  0.00  0.00    +0.000 A 
ATOM     18  C   UNL     1       7.496   0.999   0.982  0.00  0.00    +0.000 A 
ATOM     19  C   UNL     1       6.888   0.369   2.079  0.00  0.00    +0.000 A 
ATOM     20  C   UNL     1       5.542   0.599   2.384  0.00  0.00    +0.000 A 
BRANCH  15  21
ATOM     21  C   UNL     1       3.329   1.751   1.971  0.00  0.00    +0.000 C 
BRANCH  21  22
ATOM     22  C   UNL     1       2.348   0.756   1.339  0.00  0.00    +0.000 C 
BRANCH  22  23
ATOM     23  N   UNL     1       0.967   1.039   1.732  0.00  0.00    +0.000 NA
ATOM     24  H   UNL     1       0.345   0.368   1.282  0.00  0.00    +0.000 HD
ATOM     25  H   UNL     1       0.689   1.957   1.385  0.00  0.00    +0.000 HD
ENDBRANCH  22  23
ENDBRANCH  21  22
ENDBRANCH  15  21
ENDBRANCH  14  18
ENDBRANCH   1  14
TORSDOF 7
