REMARK  Name = 
REMARK  3 active torsions:
REMARK  status: ('A' for Active; 'I' for Inactive)
REMARK    1  A    between atoms: C_2  and  C_4
REMARK    2  A    between atoms: N_8  and  C_9
REMARK    3  A    between atoms: C_9  and  C_10
REMARK                            x       y       z     vdW  Elec       q    Type
REMARK                         _______ _______ _______ _____ _____    ______ ____
ROOT
ATOM      1  C   UNL     1       3.552  -1.908  -2.821  0.00  0.00    +0.000 A 
ATOM      2  C   UNL     1       2.773  -1.014  -3.551  0.00  0.00    +0.000 A 
ATOM      3  C   UNL     1       3.371   0.129  -4.090  0.00  0.00    +0.000 A 
ATOM      4  C   UNL     1       4.725   0.362  -3.879  0.00  0.00    +0.000 A 
ATOM      5  N   UNL     1       5.380   1.526  -4.287  0.00  0.00    +0.000 N 
ATOM      6  N   UNL     1       5.487  -0.498  -3.171  0.00  0.00    +0.000 NA
ATOM      7  C   UNL     1       4.892  -1.605  -2.655  0.00  0.00    +0.000 A 
ATOM      8  H   UNL     1       6.360   1.380  -4.048  0.00  0.00    +0.000 HD
ENDROOT
BRANCH   1  10
ATOM      9  N   UNL     1       1.881  -3.673  -2.738  0.00  0.00    +0.000 N 
ATOM     10  C   UNL     1       3.010  -3.130  -2.192  0.00  0.00    +0.000 C 
ATOM     11  O   UNL     1       3.565  -3.655  -1.235  0.00  0.00    +0.000 OA
ATOM     12  H   UNL     1       1.582  -4.563  -2.357  0.00  0.00    +0.000 HD
ATOM     13  H   UNL     1       1.538  -3.419  -3.653  0.00  0.00    +0.000 HD
ENDBRANCH   1  10
BRANCH   5  14
ATOM     14  C   UNL     1       5.120   2.234  -5.550  0.00  0.00    +0.000 C 
ATOM     15  C   UNL     1       5.100   3.756  -5.435  0.00  0.00    +0.000 C 
ATOM     16  C   UNL     1       3.850   3.026  -5.796  0.00  0.00    +0.000 C 
BRANCH  14  17
ATOM     17  C   UNL     1       5.845   1.621  -6.742  0.00  0.00    +0.000 A 
ATOM     18  C   UNL     1       7.136   2.031  -7.110  0.00  0.00    +0.000 A 
ATOM     19  C   UNL     1       7.784   1.403  -8.163  0.00  0.00    +0.000 A 
ATOM     20  N   UNL     1       7.249   0.397  -8.877  0.00  0.00    +0.000 NA
ATOM     21  C   UNL     1       6.011   0.006  -8.517  0.00  0.00    +0.000 A 
ATOM     22  F   UNL     1       5.460  -1.009  -9.199  0.00  0.00    +0.000 F 
ATOM     23  C   UNL     1       5.283   0.577  -7.486  0.00  0.00    +0.000 A 
ENDBRANCH  14  17
ENDBRANCH   5  14
TORSDOF 3
