REMARK  Name = 
REMARK  7 active torsions:
REMARK  status: ('A' for Active; 'I' for Inactive)
REMARK    1  A    between atoms: C_2  and  C_3
REMARK    2  A    between atoms: C_8  and  C_9
REMARK    3  A    between atoms: N_11  and  C_12
REMARK    4  A    between atoms: C_12  and  C_13
REMARK    5  A    between atoms: C_16  and  C_17
REMARK    6  A    between atoms: C_17  and  N_18
REMARK    7  A    between atoms: C_19  and  C_21
REMARK                            x       y       z     vdW  Elec       q    Type
REMARK                         _______ _______ _______ _____ _____    ______ ____
ROOT
ATOM      1  C   UNL     1      -4.125   3.624  -0.361  0.00  0.00    +0.000 C 
ATOM      2  C   UNL     1      -4.972   4.672  -0.383  0.00  0.00    +0.000 C 
ATOM      3  C   UNL     1      -6.468   4.539  -0.387  0.00  0.00    +0.000 C 
ATOM      4  C   UNL     1      -6.959   3.153   0.073  0.00  0.00    +0.000 C 
ATOM      5  C   UNL     1      -6.134   2.079  -0.657  0.00  0.00    +0.000 C 
ATOM      6  C   UNL     1      -4.629   2.199  -0.370  0.00  0.00    +0.000 C 
ENDROOT
BRANCH   1   7
ATOM      7  C   UNL     1      -2.636   3.816  -0.244  0.00  0.00    +0.000 C 
BRANCH   7  10
ATOM      8  C   UNL     1      -0.711   4.144  -1.713  0.00  0.00    +0.000 C 
ATOM      9  O   UNL     1       0.037   4.300  -0.751  0.00  0.00    +0.000 OA
ATOM     10  N   UNL     1      -2.053   3.868  -1.566  0.00  0.00    +0.000 N 
ATOM     11  H   UNL     1      -2.661   3.674  -2.349  0.00  0.00    +0.000 HD
BRANCH   8  17
ATOM     12  C   UNL     1      -0.789   4.710  -4.224  0.00  0.00    +0.000 A 
ATOM     13  C   UNL     1      -0.106   4.778  -5.452  0.00  0.00    +0.000 A 
ATOM     14  C   UNL     1       1.221   4.363  -5.558  0.00  0.00    +0.000 A 
ATOM     15  C   UNL     1       1.883   3.878  -4.438  0.00  0.00    +0.000 A 
ATOM     16  C   UNL     1       1.214   3.809  -3.211  0.00  0.00    +0.000 A 
ATOM     17  C   UNL     1      -0.129   4.214  -3.088  0.00  0.00    +0.000 A 
BRANCH  12  19
ATOM     18  N   UNL     1      -3.253   5.509  -4.208  0.00  0.00    +0.000 NA
ATOM     19  C   UNL     1      -2.140   5.177  -4.200  0.00  0.00    +0.000 C 
ENDBRANCH  12  19
ENDBRANCH   8  17
ENDBRANCH   7  10
ENDBRANCH   1   7
BRANCH   4  20
ATOM     20  C   UNL     1      -6.879   2.971   1.602  0.00  0.00    +0.000 C 
BRANCH  20  21
ATOM     21  N   UNL     1      -7.710   3.917   2.320  0.00  0.00    +0.000 N 
ATOM     22  C   UNL     1      -7.333   4.424   3.543  0.00  0.00    +0.000 C 
ATOM     23  O   UNL     1      -6.272   4.120   4.081  0.00  0.00    +0.000 OA
ATOM     24  H   UNL     1      -8.685   3.988   2.045  0.00  0.00    +0.000 HD
BRANCH  22  25
ATOM     25  C   UNL     1      -8.233   5.408   4.154  0.00  0.00    +0.000 A 
ATOM     26  C   UNL     1      -7.720   6.342   5.044  0.00  0.00    +0.000 A 
ATOM     27  S   UNL     1      -8.887   7.426   5.649  0.00  0.00    +0.000 S 
ATOM     28  C   UNL     1     -10.129   6.657   4.777  0.00  0.00    +0.000 A 
ATOM     29  N   UNL     1     -11.418   7.079   4.878  0.00  0.00    +0.000 NA
ATOM     30  C   UNL     1     -12.262   6.381   4.195  0.00  0.00    +0.000 A 
ATOM     31  N   UNL     1     -11.932   5.307   3.408  0.00  0.00    +0.000 N 
ATOM     32  C   UNL     1     -10.637   4.878   3.234  0.00  0.00    +0.000 A 
ATOM     33  O   UNL     1     -10.364   3.969   2.456  0.00  0.00    +0.000 OA
ATOM     34  C   UNL     1      -9.654   5.606   4.011  0.00  0.00    +0.000 A 
ATOM     35  H   UNL     1     -12.641   4.817   2.883  0.00  0.00    +0.000 HD
ENDBRANCH  22  25
ENDBRANCH  20  21
ENDBRANCH   4  20
TORSDOF 7
