REMARK  Name = 
REMARK  8 active torsions:
REMARK  status: ('A' for Active; 'I' for Inactive)
REMARK    1  A    between atoms: N_1  and  C_2
REMARK    2  A    between atoms: C_2  and  C_3
REMARK    3  A    between atoms: C_3  and  C_4
REMARK    4  A    between atoms: C_4  and  C_5
REMARK    5  A    between atoms: C_5  and  C_6
REMARK    6  A    between atoms: C_5  and  C_13
REMARK    7  A    between atoms: C_6  and  C_7
REMARK    8  A    between atoms: C_17  and  C_18
REMARK                            x       y       z     vdW  Elec       q    Type
REMARK                         _______ _______ _______ _____ _____    ______ ____
ROOT
ATOM      1  C   UNL     1       4.952   2.726   1.030  0.00  0.00    +0.000 C 
ENDROOT
BRANCH   1   2
ATOM      2  C   UNL     1       6.487   2.825   0.958  0.00  0.00    +0.000 A 
ATOM      3  C   UNL     1       7.225   3.594   1.865  0.00  0.00    +0.000 A 
ATOM      4  C   UNL     1       8.611   3.602   1.802  0.00  0.00    +0.000 A 
ATOM      5  N   UNL     1       9.328   2.945   0.871  0.00  0.00    +0.000 NA
ATOM      6  C   UNL     1       8.630   2.242  -0.057  0.00  0.00    +0.000 A 
ATOM      7  C   UNL     1       7.228   2.181  -0.046  0.00  0.00    +0.000 A 
BRANCH   6   8
ATOM      8  C   UNL     1       9.372   1.474  -1.142  0.00  0.00    +0.000 C 
ATOM      9  F   UNL     1      10.731   1.545  -1.063  0.00  0.00    +0.000 F 
ATOM     10  F   UNL     1       9.070   0.141  -1.137  0.00  0.00    +0.000 F 
ATOM     11  F   UNL     1       9.051   1.908  -2.398  0.00  0.00    +0.000 F 
ENDBRANCH   6   8
ENDBRANCH   1   2
BRANCH   1  12
ATOM     12  C   UNL     1       4.414   1.392   0.437  0.00  0.00    +0.000 C 
BRANCH  12  13
ATOM     13  C   UNL     1       2.891   1.272   0.309  0.00  0.00    +0.000 C 
BRANCH  13  14
ATOM     14  C   UNL     1       2.522  -0.084  -0.304  0.00  0.00    +0.000 C 
BRANCH  14  15
ATOM     15  N   UNL     1       1.076  -0.227  -0.392  0.00  0.00    +0.000 NA
ATOM     16  H   UNL     1       0.856  -1.077  -0.911  0.00  0.00    +0.000 HD
ATOM     17  H   UNL     1       0.682   0.543  -0.933  0.00  0.00    +0.000 HD
ENDBRANCH  14  15
ENDBRANCH  13  14
ENDBRANCH  12  13
ENDBRANCH   1  12
BRANCH   1  18
ATOM     18  C   UNL     1       4.330   3.036   2.427  0.00  0.00    +0.000 C 
BRANCH  18  19
ATOM     19  C   UNL     1       4.699   2.107   3.566  0.00  0.00    +0.000 A 
ATOM     20  C   UNL     1       3.909   1.006   3.882  0.00  0.00    +0.000 A 
ATOM     21  C   UNL     1       4.250   0.217   4.980  0.00  0.00    +0.000 A 
ATOM     22  C   UNL     1       5.370   0.538   5.730  0.00  0.00    +0.000 A 
ATOM     23  C   UNL     1       6.107   1.642   5.350  0.00  0.00    +0.000 A 
ATOM     24  N   UNL     1       5.791   2.433   4.301  0.00  0.00    +0.000 NA
ENDBRANCH  18  19
ENDBRANCH   1  18
TORSDOF 8
