REMARK  Name = 
REMARK  4 active torsions:
REMARK  status: ('A' for Active; 'I' for Inactive)
REMARK    1  A    between atoms: C_2  and  C_4
REMARK    2  A    between atoms: N_8  and  C_9
REMARK    3  A    between atoms: C_9  and  C_10
REMARK    4  A    between atoms: C_10  and  C_11
REMARK                            x       y       z     vdW  Elec       q    Type
REMARK                         _______ _______ _______ _____ _____    ______ ____
ROOT
ATOM      1  C   UNL     1       2.676  -1.103   1.335  0.00  0.00    +0.000 A 
ATOM      2  C   UNL     1       4.003  -0.706   1.210  0.00  0.00    +0.000 A 
ATOM      3  C   UNL     1       5.013  -1.615   1.525  0.00  0.00    +0.000 A 
ATOM      4  C   UNL     1       4.691  -2.910   1.938  0.00  0.00    +0.000 A 
ATOM      5  N   UNL     1       5.760  -3.789   2.164  0.00  0.00    +0.000 N 
ATOM      6  N   UNL     1       3.408  -3.297   2.082  0.00  0.00    +0.000 NA
ATOM      7  C   UNL     1       2.433  -2.387   1.803  0.00  0.00    +0.000 A 
ATOM      8  H   UNL     1       6.376  -3.370   2.854  0.00  0.00    +0.000 HD
ENDROOT
BRANCH   1  10
ATOM      9  N   UNL     1       1.757   0.742   0.047  0.00  0.00    +0.000 N 
ATOM     10  C   UNL     1       1.539  -0.224   0.993  0.00  0.00    +0.000 C 
ATOM     11  O   UNL     1       0.434  -0.377   1.496  0.00  0.00    +0.000 OA
ATOM     12  H   UNL     1       0.944   1.262  -0.260  0.00  0.00    +0.000 HD
ATOM     13  H   UNL     1       2.563   0.734  -0.559  0.00  0.00    +0.000 HD
ENDBRANCH   1  10
BRANCH   5  14
ATOM     14  C   UNL     1       5.432  -5.186   2.439  0.00  0.00    +0.000 C 
BRANCH  14  15
ATOM     15  C   UNL     1       6.659  -5.914   3.029  0.00  0.00    +0.000 C 
BRANCH  15  16
ATOM     16  C   UNL     1       6.999  -5.463   4.462  0.00  0.00    +0.000 C 
ATOM     17  C   UNL     1       5.930  -5.863   5.487  0.00  0.00    +0.000 C 
ATOM     18  C   UNL     1       6.275  -5.211   6.821  0.00  0.00    +0.000 C 
ATOM     19  C   UNL     1       7.690  -5.574   7.270  0.00  0.00    +0.000 C 
ATOM     20  N   UNL     1       8.701  -5.362   6.230  0.00  0.00    +0.000 NA
ATOM     21  C   UNL     1       8.351  -6.002   4.957  0.00  0.00    +0.000 C 
ATOM     22  H   UNL     1       9.598  -5.719   6.557  0.00  0.00    +0.000 HD
ENDBRANCH  15  16
ENDBRANCH  14  15
ENDBRANCH   5  14
TORSDOF 4
