REMARK  Name = 
REMARK  10 active torsions:
REMARK  status: ('A' for Active; 'I' for Inactive)
REMARK    1  A    between atoms: C_1  and  O_2
REMARK    2  A    between atoms: O_2  and  C_3
REMARK    3  A    between atoms: N_7  and  C_8
REMARK    4  A    between atoms: C_8  and  C_9
REMARK    5  A    between atoms: C_9  and  C_10
REMARK    6  A    between atoms: C_10  and  O_11
REMARK    7  A    between atoms: C_16  and  C_17
REMARK    8  A    between atoms: C_17  and  C_18
REMARK    9  A    between atoms: C_18  and  N_19
REMARK   10  A    between atoms: C_22  and  O_23
REMARK                            x       y       z     vdW  Elec       q    Type
REMARK                         _______ _______ _______ _____ _____    ______ ____
ROOT
ATOM      1  C   UNL     1       2.965   0.426   1.219  0.00  0.00    +0.000 A 
ATOM      2  C   UNL     1       2.628   0.148   2.538  0.00  0.00    +0.000 A 
ATOM      3  C   UNL     1       3.379   0.706   3.574  0.00  0.00    +0.000 A 
ATOM      4  C   UNL     1       4.450   1.542   3.284  0.00  0.00    +0.000 A 
ATOM      5  N   UNL     1       5.105   2.161   4.340  0.00  0.00    +0.000 N 
ATOM      6  N   UNL     1       4.804   1.809   2.008  0.00  0.00    +0.000 NA
ATOM      7  C   UNL     1       4.072   1.254   0.993  0.00  0.00    +0.000 A 
ATOM      8  H   UNL     1       5.312   1.560   5.129  0.00  0.00    +0.000 HD
ENDROOT
BRANCH   1  10
ATOM      9  C   UNL     1       0.963  -0.503   0.351  0.00  0.00    +0.000 C 
ATOM     10  O   UNL     1       2.309  -0.089   0.134  0.00  0.00    +0.000 OA
ENDBRANCH   1  10
BRANCH   5  11
ATOM     11  C   UNL     1       6.023   3.260   4.086  0.00  0.00    +0.000 C 
BRANCH  11  12
ATOM     12  C   UNL     1       7.497   2.871   4.179  0.00  0.00    +0.000 C 
BRANCH  12  13
ATOM     13  C   UNL     1       7.950   1.909   3.083  0.00  0.00    +0.000 C 
ATOM     14  C   UNL     1       7.635   0.414   3.313  0.00  0.00    +0.000 C 
ATOM     15  O   UNL     1       9.032   0.047   3.235  0.00  0.00    +0.000 OA
ATOM     16  C   UNL     1       9.419   1.441   3.246  0.00  0.00    +0.000 C 
BRANCH  13  17
ATOM     17  O   UNL     1       7.626   2.447   1.776  0.00  0.00    +0.000 OA
ATOM     18  H   UNL     1       6.670   2.265   1.676  0.00  0.00    +0.000 HD
ENDBRANCH  13  17
ENDBRANCH  12  13
ENDBRANCH  11  12
ENDBRANCH   5  11
BRANCH   7  19
ATOM     19  C   UNL     1       4.558   1.568  -0.408  0.00  0.00    +0.000 C 
BRANCH  19  20
ATOM     20  C   UNL     1       3.578   2.424  -1.233  0.00  0.00    +0.000 C 
BRANCH  20  21
ATOM     21  N   UNL     1       4.030   2.849  -2.575  0.00  0.00    +0.000 NA
ATOM     22  C   UNL     1       4.387   1.717  -3.437  0.00  0.00    +0.000 C 
ATOM     23  C   UNL     1       4.694   2.177  -4.863  0.00  0.00    +0.000 C 
ATOM     24  C   UNL     1       5.761   3.267  -4.890  0.00  0.00    +0.000 C 
ATOM     25  C   UNL     1       5.425   4.392  -3.916  0.00  0.00    +0.000 C 
ATOM     26  C   UNL     1       5.089   3.862  -2.519  0.00  0.00    +0.000 C 
BRANCH  24  27
ATOM     27  O   UNL     1       7.046   2.715  -4.597  0.00  0.00    +0.000 OA
ATOM     28  H   UNL     1       7.046   2.388  -3.682  0.00  0.00    +0.000 HD
ENDBRANCH  24  27
ENDBRANCH  20  21
ENDBRANCH  19  20
ENDBRANCH   7  19
TORSDOF 9
