REMARK  Name = 
REMARK  7 active torsions:
REMARK  status: ('A' for Active; 'I' for Inactive)
REMARK    1  A    between atoms: C_1  and  C_2
REMARK    2  A    between atoms: N_4  and  C_5
REMARK    3  A    between atoms: C_9  and  C_10
REMARK    4  A    between atoms: C_10  and  C_11
REMARK    5  A    between atoms: C_11  and  N_12
REMARK    6  A    between atoms: C_16  and  C_17
REMARK    7  A    between atoms: C_24  and  C_25
REMARK                            x       y       z     vdW  Elec       q    Type
REMARK                         _______ _______ _______ _____ _____    ______ ____
ROOT
ATOM      1  C   UNL     1       1.825   1.372  -3.352  0.00  0.00    +0.000 A 
ATOM      2  C   UNL     1       2.218   2.667  -3.712  0.00  0.00    +0.000 A 
ATOM      3  C   UNL     1       1.445   3.459  -4.565  0.00  0.00    +0.000 A 
ATOM      4  C   UNL     1       0.255   2.962  -5.095  0.00  0.00    +0.000 A 
ATOM      5  C   UNL     1      -0.176   1.678  -4.765  0.00  0.00    +0.000 A 
ATOM      6  C   UNL     1       0.609   0.910  -3.884  0.00  0.00    +0.000 A 
ENDROOT
BRANCH   1  10
ATOM      7  C   UNL     1       1.935  -2.389  -3.254  0.00  0.00    +0.000 C 
ATOM      8  C   UNL     1       2.579  -1.835  -1.979  0.00  0.00    +0.000 C 
ATOM      9  C   UNL     1       2.043  -0.423  -1.626  0.00  0.00    +0.000 C 
ATOM     10  N   UNL     1       2.606   0.606  -2.507  0.00  0.00    +0.000 N 
ATOM     11  C   UNL     1       4.071   0.579  -2.661  0.00  0.00    +0.000 C 
ATOM     12  C   UNL     1       4.568  -0.856  -2.996  0.00  0.00    +0.000 C 
ATOM     13  C   UNL     1       6.097  -0.898  -2.991  0.00  0.00    +0.000 C 
ATOM     14  N   UNL     1       4.061  -1.889  -2.059  0.00  0.00    +0.000 NA
ATOM     15  H   UNL     1       4.425  -1.666  -1.131  0.00  0.00    +0.000 HD
ENDBRANCH   1  10
BRANCH   5  16
ATOM     16  C   UNL     1      -1.428   1.084  -5.382  0.00  0.00    +0.000 C 
BRANCH  16  17
ATOM     17  C   UNL     1      -1.109   0.340  -6.687  0.00  0.00    +0.000 C 
BRANCH  17  18
ATOM     18  N   UNL     1      -2.295  -0.260  -7.290  0.00  0.00    +0.000 N 
ATOM     19  C   UNL     1      -2.141  -0.983  -8.472  0.00  0.00    +0.000 A 
ATOM     20  C   UNL     1      -0.990  -1.716  -8.796  0.00  0.00    +0.000 A 
ATOM     21  N   UNL     1      -0.829  -2.455  -9.925  0.00  0.00    +0.000 NA
ATOM     22  C   UNL     1      -1.913  -2.466 -10.740  0.00  0.00    +0.000 A 
ATOM     23  C   UNL     1      -3.071  -1.764 -10.437  0.00  0.00    +0.000 A 
ATOM     24  N   UNL     1      -3.201  -1.007  -9.307  0.00  0.00    +0.000 NA
ATOM     25  H   UNL     1      -3.118   0.336  -7.391  0.00  0.00    +0.000 HD
BRANCH  22  26
ATOM     26  C   UNL     1      -1.821  -3.276 -11.987  0.00  0.00    +0.000 C 
ATOM     27  N   UNL     1      -0.637  -3.932 -12.205  0.00  0.00    +0.000 N 
ATOM     28  O   UNL     1      -2.755  -3.357 -12.780  0.00  0.00    +0.000 OA
ATOM     29  H   UNL     1       0.126  -3.858 -11.542  0.00  0.00    +0.000 HD
ATOM     30  H   UNL     1      -0.533  -4.499 -13.034  0.00  0.00    +0.000 HD
ENDBRANCH  22  26
ENDBRANCH  17  18
ENDBRANCH  16  17
ENDBRANCH   5  16
TORSDOF 5
