REMARK  Name = 
REMARK  4 active torsions:
REMARK  status: ('A' for Active; 'I' for Inactive)
REMARK    1  A    between atoms: C_2  and  C_4
REMARK    2  A    between atoms: C_7  and  O_8
REMARK    3  A    between atoms: O_8  and  C_9
REMARK    4  A    between atoms: C_9  and  C_10
REMARK                            x       y       z     vdW  Elec       q    Type
REMARK                         _______ _______ _______ _____ _____    ______ ____
ROOT
ATOM      1  C   UNL     1       3.390  -0.904  -0.852  0.00  0.00    +0.000 A 
ATOM      2  C   UNL     1       4.748  -1.117  -0.919  0.00  0.00    +0.000 A 
ATOM      3  N   UNL     1       5.355  -1.734  -1.953  0.00  0.00    +0.000 NA
ATOM      4  C   UNL     1       4.550  -2.154  -2.947  0.00  0.00    +0.000 A 
ATOM      5  N   UNL     1       3.218  -2.000  -2.985  0.00  0.00    +0.000 NA
ATOM      6  C   UNL     1       2.661  -1.386  -1.917  0.00  0.00    +0.000 A 
ENDROOT
BRANCH   1   8
ATOM      7  N   UNL     1       3.468   0.641   1.017  0.00  0.00    +0.000 N 
ATOM      8  C   UNL     1       2.734  -0.253   0.289  0.00  0.00    +0.000 C 
ATOM      9  O   UNL     1       1.565  -0.490   0.561  0.00  0.00    +0.000 OA
ATOM     10  H   UNL     1       2.973   1.137   1.751  0.00  0.00    +0.000 HD
ATOM     11  H   UNL     1       4.333   1.052   0.694  0.00  0.00    +0.000 HD
ENDBRANCH   1   8
BRANCH   4  12
ATOM     12  O   UNL     1       5.108  -2.767  -4.044  0.00  0.00    +0.000 OA
BRANCH  12  13
ATOM     13  C   UNL     1       6.324  -3.427  -3.702  0.00  0.00    +0.000 C 
BRANCH  13  14
ATOM     14  C   UNL     1       6.899  -4.067  -4.934  0.00  0.00    +0.000 A 
ATOM     15  C   UNL     1       6.172  -4.991  -5.689  0.00  0.00    +0.000 A 
ATOM     16  C   UNL     1       6.753  -5.571  -6.812  0.00  0.00    +0.000 A 
ATOM     17  C   UNL     1       8.050  -5.211  -7.140  0.00  0.00    +0.000 A 
ATOM     18  N   UNL     1       8.788  -4.330  -6.432  0.00  0.00    +0.000 NA
ATOM     19  C   UNL     1       8.196  -3.779  -5.350  0.00  0.00    +0.000 A 
ENDBRANCH  13  14
ENDBRANCH  12  13
ENDBRANCH   4  12
TORSDOF 4
