REMARK  Name = 
REMARK  5 active torsions:
REMARK  status: ('A' for Active; 'I' for Inactive)
REMARK    1  A    between atoms: C_2  and  C_4
REMARK    2  A    between atoms: C_7  and  N_8
REMARK    3  A    between atoms: N_8  and  C_9
REMARK    4  A    between atoms: C_9  and  C_10
REMARK    5  A    between atoms: C_14  and  N_15
REMARK                            x       y       z     vdW  Elec       q    Type
REMARK                         _______ _______ _______ _____ _____    ______ ____
ROOT
ATOM      1  N   UNL     1       3.903   5.098  -3.887  0.00  0.00    +0.000 N 
ATOM      2  H   UNL     1       3.914   4.898  -4.883  0.00  0.00    +0.000 HD
ENDROOT
BRANCH   1   6
ATOM      3  C   UNL     1       0.636   3.268  -2.173  0.00  0.00    +0.000 A 
ATOM      4  C   UNL     1       1.901   3.102  -1.631  0.00  0.00    +0.000 A 
ATOM      5  N   UNL     1       3.014   3.682  -2.165  0.00  0.00    +0.000 NA
ATOM      6  C   UNL     1       2.831   4.438  -3.269  0.00  0.00    +0.000 A 
ATOM      7  C   UNL     1       1.536   4.613  -3.783  0.00  0.00    +0.000 A 
ATOM      8  N   UNL     1       0.415   4.036  -3.273  0.00  0.00    +0.000 NA
BRANCH   3  10
ATOM      9  N   UNL     1      -1.735   2.765  -2.207  0.00  0.00    +0.000 N 
ATOM     10  C   UNL     1      -0.537   2.583  -1.563  0.00  0.00    +0.000 C 
ATOM     11  O   UNL     1      -0.445   1.892  -0.559  0.00  0.00    +0.000 OA
ATOM     12  H   UNL     1      -2.569   2.322  -1.847  0.00  0.00    +0.000 HD
ATOM     13  H   UNL     1      -1.780   3.337  -3.042  0.00  0.00    +0.000 HD
ENDBRANCH   3  10
ENDBRANCH   1   6
BRANCH   1  14
ATOM     14  C   UNL     1       5.220   4.864  -3.295  0.00  0.00    +0.000 C 
BRANCH  14  15
ATOM     15  C   UNL     1       6.263   5.686  -4.033  0.00  0.00    +0.000 A 
ATOM     16  C   UNL     1       6.103   7.075  -4.140  0.00  0.00    +0.000 A 
ATOM     17  C   UNL     1       7.080   7.849  -4.754  0.00  0.00    +0.000 A 
ATOM     18  C   UNL     1       8.239   7.243  -5.240  0.00  0.00    +0.000 A 
ATOM     19  C   UNL     1       8.458   5.859  -5.135  0.00  0.00    +0.000 A 
ATOM     20  C   UNL     1       7.435   5.092  -4.552  0.00  0.00    +0.000 A 
BRANCH  19  21
ATOM     21  N   UNL     1       9.655   5.322  -5.590  0.00  0.00    +0.000 N 
ATOM     22  C   UNL     1       9.763   3.975  -6.149  0.00  0.00    +0.000 C 
ATOM     23  C   UNL     1      10.485   3.030  -5.189  0.00  0.00    +0.000 C 
ATOM     24  C   UNL     1      11.808   3.620  -4.703  0.00  0.00    +0.000 C 
ATOM     25  C   UNL     1      11.590   5.009  -4.112  0.00  0.00    +0.000 C 
ATOM     26  C   UNL     1      10.907   5.931  -5.121  0.00  0.00    +0.000 C 
ENDBRANCH  19  21
ENDBRANCH  14  15
ENDBRANCH   1  14
TORSDOF 5
