REMARK  Name = 
REMARK  9 active torsions:
REMARK  status: ('A' for Active; 'I' for Inactive)
REMARK    1  A    between atoms: C_1  and  O_2
REMARK    2  A    between atoms: O_2  and  C_3
REMARK    3  A    between atoms: C_10  and  C_11
REMARK    4  A    between atoms: N_13  and  C_14
REMARK    5  A    between atoms: C_14  and  C_15
REMARK    6  A    between atoms: C_18  and  N_19
REMARK    7  A    between atoms: N_19  and  C_20
REMARK    8  A    between atoms: C_20  and  C_21
REMARK    9  A    between atoms: C_21  and  N_22
REMARK                            x       y       z     vdW  Elec       q    Type
REMARK                         _______ _______ _______ _____ _____    ______ ____
ROOT
ATOM      1  C   UNL     1       2.887   1.012  -3.241  0.00  0.00    +0.000 C 
ENDROOT
BRANCH   1   2
ATOM      2  C   UNL     1       1.714   0.066  -3.233  0.00  0.00    +0.000 A 
ATOM      3  C   UNL     1       1.910  -1.319  -3.275  0.00  0.00    +0.000 A 
ATOM      4  C   UNL     1       0.822  -2.198  -3.192  0.00  0.00    +0.000 A 
ATOM      5  C   UNL     1      -0.484  -1.721  -3.044  0.00  0.00    +0.000 A 
ATOM      6  C   UNL     1      -0.682  -0.339  -3.128  0.00  0.00    +0.000 A 
ATOM      7  C   UNL     1       0.400   0.548  -3.206  0.00  0.00    +0.000 A 
BRANCH   5   8
ATOM      8  N   UNL     1      -1.608  -2.544  -2.907  0.00  0.00    +0.000 N 
ATOM      9  H   UNL     1      -2.064  -2.724  -3.804  0.00  0.00    +0.000 HD
BRANCH   8  10
ATOM     10  C   UNL     1      -1.450  -3.794  -2.154  0.00  0.00    +0.000 C 
BRANCH  10  11
ATOM     11  C   UNL     1      -2.760  -4.620  -2.187  0.00  0.00    +0.000 C 
BRANCH  11  12
ATOM     12  N   UNL     1      -3.218  -4.959  -3.553  0.00  0.00    +0.000 NA
ATOM     13  C   UNL     1      -2.261  -5.819  -4.264  0.00  0.00    +0.000 C 
ATOM     14  C   UNL     1      -2.703  -6.012  -5.713  0.00  0.00    +0.000 C 
ATOM     15  C   UNL     1      -4.101  -6.610  -5.791  0.00  0.00    +0.000 C 
ATOM     16  C   UNL     1      -5.078  -5.816  -4.929  0.00  0.00    +0.000 C 
ATOM     17  C   UNL     1      -4.541  -5.607  -3.510  0.00  0.00    +0.000 C 
ENDBRANCH  11  12
ENDBRANCH  10  11
ENDBRANCH   8  10
ENDBRANCH   5   8
ENDBRANCH   1   2
BRANCH   1  20
ATOM     18  C   UNL     1       4.392   2.105  -4.856  0.00  0.00    +0.000 C 
ATOM     19  O   UNL     1       5.082   2.576  -3.957  0.00  0.00    +0.000 OA
ATOM     20  N   UNL     1       3.297   1.328  -4.583  0.00  0.00    +0.000 N 
ATOM     21  H   UNL     1       2.691   1.031  -5.334  0.00  0.00    +0.000 HD
BRANCH  18  29
ATOM     22  C   UNL     1       3.011   0.989  -7.804  0.00  0.00    +0.000 A 
ATOM     23  N   UNL     1       2.700   0.682  -9.077  0.00  0.00    +0.000 NA
ATOM     24  C   UNL     1       3.452   1.197 -10.050  0.00  0.00    +0.000 A 
ATOM     25  N   UNL     1       4.502   2.004  -9.911  0.00  0.00    +0.000 NA
ATOM     26  C   UNL     1       4.778   2.287  -8.627  0.00  0.00    +0.000 A 
ATOM     27  S   UNL     1       6.080   3.312  -8.254  0.00  0.00    +0.000 S 
ATOM     28  C   UNL     1       5.789   3.161  -6.587  0.00  0.00    +0.000 A 
ATOM     29  C   UNL     1       4.710   2.340  -6.276  0.00  0.00    +0.000 A 
ATOM     30  C   UNL     1       4.098   1.832  -7.501  0.00  0.00    +0.000 A 
BRANCH  22  32
ATOM     31  C   UNL     1       1.484  -0.667  -7.155  0.00  0.00    +0.000 C 
ATOM     32  O   UNL     1       2.193   0.517  -6.800  0.00  0.00    +0.000 OA
ENDBRANCH  22  32
ENDBRANCH  18  29
ENDBRANCH   1  20
TORSDOF 8
