REMARK  Name = 
REMARK  3 active torsions:
REMARK  status: ('A' for Active; 'I' for Inactive)
REMARK    1  A    between atoms: C_4  and  C_5
REMARK    2  A    between atoms: C_5  and  N_6
REMARK    3  A    between atoms: N_6  and  C_7
REMARK                            x       y       z     vdW  Elec       q    Type
REMARK                         _______ _______ _______ _____ _____    ______ ____
ROOT
ATOM      1  N   UNL     1      -3.631  -0.762  -0.050  0.00  0.00    +0.000 N 
ATOM      2  H   UNL     1      -3.189  -1.573  -0.476  0.00  0.00    +0.000 HD
ENDROOT
BRANCH   1   3
ATOM      3  C   UNL     1      -5.009  -0.728  -0.297  0.00  0.00    +0.000 A 
ATOM      4  C   UNL     1      -5.753   0.453  -0.408  0.00  0.00    +0.000 A 
ATOM      5  C   UNL     1      -7.139   0.425  -0.604  0.00  0.00    +0.000 A 
ATOM      6  C   UNL     1      -7.814  -0.789  -0.645  0.00  0.00    +0.000 A 
ATOM      7  C   UNL     1      -7.103  -1.974  -0.484  0.00  0.00    +0.000 A 
ATOM      8  C   UNL     1      -5.716  -1.940  -0.303  0.00  0.00    +0.000 A 
ENDBRANCH   1   3
BRANCH   1   9
ATOM      9  C   UNL     1      -2.845   0.454  -0.201  0.00  0.00    +0.000 C 
BRANCH   9  13
ATOM     10  C   UNL     1       1.376  -0.220   0.414  0.00  0.00    +0.000 A 
ATOM     11  C   UNL     1       0.917   0.263  -0.810  0.00  0.00    +0.000 A 
ATOM     12  C   UNL     1      -0.450   0.456  -1.017  0.00  0.00    +0.000 A 
ATOM     13  C   UNL     1      -1.374   0.171  -0.001  0.00  0.00    +0.000 A 
ATOM     14  C   UNL     1      -0.899  -0.326   1.223  0.00  0.00    +0.000 A 
ATOM     15  C   UNL     1       0.468  -0.519   1.428  0.00  0.00    +0.000 A 
ENDBRANCH   9  13
ENDBRANCH   1   9
TORSDOF 3
