REMARK  Name = 
REMARK  9 active torsions:
REMARK  status: ('A' for Active; 'I' for Inactive)
REMARK    1  A    between atoms: C_1  and  C_2
REMARK    2  A    between atoms: C_2  and  C_3
REMARK    3  A    between atoms: C_5  and  N_6
REMARK    4  A    between atoms: C_9  and  C_10
REMARK    5  A    between atoms: C_10  and  C_11
REMARK    6  A    between atoms: C_10  and  C_12
REMARK    7  A    between atoms: C_10  and  C_13
REMARK    8  A    between atoms: C_13  and  N_14
REMARK    9  A    between atoms: C_19  and  C_20
REMARK                            x       y       z     vdW  Elec       q    Type
REMARK                         _______ _______ _______ _____ _____    ______ ____
ROOT
ATOM      1  C   UNL     1      -4.452   0.567   4.723  0.00  0.00    +0.000 C 
ATOM      2  C   UNL     1      -3.463  -0.577   5.059  0.00  0.00    +0.000 C 
ATOM      3  C   UNL     1      -3.803   1.904   5.156  0.00  0.00    +0.000 C 
ENDROOT
BRANCH   1   7
ATOM      4  N   UNL     1      -2.799   0.914   0.046  0.00  0.00    +0.000 N 
ATOM      5  C   UNL     1      -3.897   0.791   0.922  0.00  0.00    +0.000 A 
ATOM      6  C   UNL     1      -3.664   0.822   2.297  0.00  0.00    +0.000 A 
ATOM      7  C   UNL     1      -4.712   0.573   3.203  0.00  0.00    +0.000 A 
ATOM      8  C   UNL     1      -5.966   0.310   2.640  0.00  0.00    +0.000 A 
ATOM      9  C   UNL     1      -6.127   0.372   1.266  0.00  0.00    +0.000 A 
ATOM     10  N   UNL     1      -5.121   0.596   0.404  0.00  0.00    +0.000 NA
ATOM     11  H   UNL     1      -2.473   1.876   0.087  0.00  0.00    +0.000 HD
BRANCH   4  16
ATOM     12  C   UNL     1      -2.527  -1.195  -3.856  0.00  0.00    +0.000 C 
ATOM     13  C   UNL     1      -1.964  -1.179  -2.436  0.00  0.00    +0.000 C 
ATOM     14  C   UNL     1      -0.934  -2.284  -2.225  0.00  0.00    +0.000 C 
ATOM     15  C   UNL     1      -3.058  -1.126  -1.337  0.00  0.00    +0.000 C 
ATOM     16  C   UNL     1      -2.887   0.415  -1.297  0.00  0.00    +0.000 C 
ATOM     17  C   UNL     1      -1.497   0.222  -1.940  0.00  0.00    +0.000 C 
ENDBRANCH   4  16
ENDBRANCH   1   7
BRANCH   1  18
ATOM     18  C   UNL     1      -5.723   0.332   5.606  0.00  0.00    +0.000 C 
BRANCH  18  19
ATOM     19  N   UNL     1      -6.691   1.420   5.494  0.00  0.00    +0.000 N 
ATOM     20  C   UNL     1      -7.888   1.204   6.151  0.00  0.00    +0.000 A 
ATOM     21  N   UNL     1      -8.988   1.640   5.524  0.00  0.00    +0.000 NA
ATOM     22  C   UNL     1     -10.167   1.500   6.164  0.00  0.00    +0.000 A 
ATOM     23  C   UNL     1     -10.284   0.939   7.406  0.00  0.00    +0.000 A 
ATOM     24  C   UNL     1      -9.099   0.511   7.951  0.00  0.00    +0.000 A 
ATOM     25  N   UNL     1      -7.892   0.616   7.346  0.00  0.00    +0.000 NA
ATOM     26  H   UNL     1      -6.930   1.721   4.556  0.00  0.00    +0.000 HD
BRANCH  24  27
ATOM     27  C   UNL     1      -9.089  -0.110   9.313  0.00  0.00    +0.000 C 
ATOM     28  N   UNL     1      -7.856  -0.502   9.763  0.00  0.00    +0.000 N 
ATOM     29  O   UNL     1     -10.100  -0.249   9.978  0.00  0.00    +0.000 OA
ATOM     30  H   UNL     1      -7.033  -0.313   9.199  0.00  0.00    +0.000 HD
ATOM     31  H   UNL     1      -7.766  -0.880  10.695  0.00  0.00    +0.000 HD
ENDBRANCH  24  27
ENDBRANCH  18  19
ENDBRANCH   1  18
TORSDOF 5
