REMARK  Name = 
REMARK  6 active torsions:
REMARK  status: ('A' for Active; 'I' for Inactive)
REMARK    1  A    between atoms: O_1  and  C_2
REMARK    2  A    between atoms: C_2  and  C_3
REMARK    3  A    between atoms: C_3  and  O_4
REMARK    4  A    between atoms: O_4  and  C_5
REMARK    5  A    between atoms: C_9  and  C_10
REMARK    6  A    between atoms: C_10  and  N_11
REMARK                            x       y       z     vdW  Elec       q    Type
REMARK                         _______ _______ _______ _____ _____    ______ ____
ROOT
ATOM      1  C   UNL     1       4.997   0.769  -2.450  0.00  0.00    +0.000 A 
ATOM      2  C   UNL     1       4.500   1.814  -3.226  0.00  0.00    +0.000 A 
ATOM      3  C   UNL     1       5.168   2.212  -4.383  0.00  0.00    +0.000 A 
ATOM      4  C   UNL     1       6.359   1.592  -4.753  0.00  0.00    +0.000 A 
ATOM      5  C   UNL     1       6.908   0.578  -3.957  0.00  0.00    +0.000 A 
ATOM      6  C   UNL     1       6.198   0.152  -2.821  0.00  0.00    +0.000 A 
ENDROOT
BRANCH   1   7
ATOM      7  O   UNL     1       4.410   0.273  -1.313  0.00  0.00    +0.000 OA
BRANCH   7   8
ATOM      8  C   UNL     1       3.230   0.954  -0.880  0.00  0.00    +0.000 C 
BRANCH   8   9
ATOM      9  C   UNL     1       2.698   0.311   0.394  0.00  0.00    +0.000 C 
BRANCH   9  10
ATOM     10  O   UNL     1       1.529   1.002   0.821  0.00  0.00    +0.000 OA
ATOM     11  H   UNL     1       1.229   0.576   1.642  0.00  0.00    +0.000 HD
ENDBRANCH   9  10
ENDBRANCH   8   9
ENDBRANCH   7   8
ENDBRANCH   1   7
BRANCH   5  12
ATOM     12  C   UNL     1       8.259  -0.008  -4.286  0.00  0.00    +0.000 C 
BRANCH  12  13
ATOM     13  N   UNL     1       9.340   0.709  -3.611  0.00  0.00    +0.000 N 
ATOM     14  C   UNL     1       9.822   0.372  -2.366  0.00  0.00    +0.000 A 
ATOM     15  C   UNL     1      10.894   1.192  -2.082  0.00  0.00    +0.000 A 
ATOM     16  C   UNL     1      11.079   2.042  -3.194  0.00  0.00    +0.000 A 
ATOM     17  N   UNL     1      12.026   2.994  -3.374  0.00  0.00    +0.000 NA
ATOM     18  C   UNL     1      11.964   3.640  -4.559  0.00  0.00    +0.000 A 
ATOM     19  C   UNL     1      11.025   3.405  -5.553  0.00  0.00    +0.000 A 
ATOM     20  C   UNL     1      10.051   2.427  -5.358  0.00  0.00    +0.000 A 
ATOM     21  C   UNL     1      10.100   1.734  -4.140  0.00  0.00    +0.000 A 
ENDBRANCH  12  13
ENDBRANCH   5  12
TORSDOF 6
