REMARK  Name = 
REMARK  13 active torsions:
REMARK  status: ('A' for Active; 'I' for Inactive)
REMARK    1  A    between atoms: C_1  and  N_2
REMARK    2  A    between atoms: N_2  and  C_3
REMARK    3  A    between atoms: C_3  and  C_4
REMARK    4  A    between atoms: C_3  and  C_25
REMARK    5  A    between atoms: C_4  and  N_5
REMARK    6  A    between atoms: C_8  and  C_9
REMARK    7  A    between atoms: C_9  and  O_10
REMARK    8  A    between atoms: O_10  and  C_11
REMARK    9  A    between atoms: C_11  and  C_12
REMARK   10  A    between atoms: C_15  and  C_16
REMARK   11  A    between atoms: C_16  and  N_17
REMARK   12  A    between atoms: N_17  and  C_18
REMARK   13  A    between atoms: C_18  and  C_19
REMARK                            x       y       z     vdW  Elec       q    Type
REMARK                         _______ _______ _______ _____ _____    ______ ____
ROOT
ATOM      1  N   UNL     1       0.827  -1.532   2.187  0.00  0.00    +0.000 NA
ATOM      2  C   UNL     1       0.162  -0.260   1.839  0.00  0.00    +0.000 C 
ATOM      3  C   UNL     1      -1.362  -0.318   1.698  0.00  0.00    +0.000 C 
ATOM      4  C   UNL     1      -1.860  -1.532   0.918  0.00  0.00    +0.000 C 
ATOM      5  C   UNL     1      -1.204  -2.785   1.497  0.00  0.00    +0.000 C 
ATOM      6  C   UNL     1       0.316  -2.679   1.432  0.00  0.00    +0.000 C 
ENDROOT
BRANCH   1   7
ATOM      7  C   UNL     1       2.298  -1.374   1.998  0.00  0.00    +0.000 C 
BRANCH   7   8
ATOM      8  C   UNL     1       3.302  -2.527   2.377  0.00  0.00    +0.000 C 
BRANCH   8   9
ATOM      9  C   UNL     1       3.162  -2.953   3.832  0.00  0.00    +0.000 A 
ATOM     10  C   UNL     1       2.170  -3.799   4.306  0.00  0.00    +0.000 A 
ATOM     11  S   UNL     1       2.300  -4.153   5.967  0.00  0.00    +0.000 S 
ATOM     12  C   UNL     1       3.706  -3.215   6.104  0.00  0.00    +0.000 A 
ATOM     13  N   UNL     1       4.368  -3.126   7.290  0.00  0.00    +0.000 NA
ATOM     14  C   UNL     1       5.443  -2.413   7.242  0.00  0.00    +0.000 A 
ATOM     15  N   UNL     1       5.905  -1.757   6.127  0.00  0.00    +0.000 N 
ATOM     16  C   UNL     1       5.249  -1.780   4.916  0.00  0.00    +0.000 A 
ATOM     17  O   UNL     1       5.661  -1.141   3.952  0.00  0.00    +0.000 OA
ATOM     18  C   UNL     1       4.052  -2.599   4.916  0.00  0.00    +0.000 A 
ATOM     19  H   UNL     1       6.751  -1.206   6.168  0.00  0.00    +0.000 HD
ENDBRANCH   8   9
BRANCH   8  21
ATOM     20  C   UNL     1       3.547  -3.639   0.175  0.00  0.00    +0.000 C 
ATOM     21  N   UNL     1       3.290  -3.783   1.596  0.00  0.00    +0.000 NA
ATOM     22  H   UNL     1       4.016  -4.385   1.988  0.00  0.00    +0.000 HD
ENDBRANCH   8  21
ENDBRANCH   7   8
ENDBRANCH   1   7
BRANCH   4  23
ATOM     23  C   UNL     1      -1.631  -1.427  -0.603  0.00  0.00    +0.000 C 
BRANCH  23  24
ATOM     24  O   UNL     1      -2.042  -2.615  -1.290  0.00  0.00    +0.000 OA
BRANCH  24  25
ATOM     25  C   UNL     1      -3.446  -2.857  -1.204  0.00  0.00    +0.000 C 
BRANCH  25  26
ATOM     26  C   UNL     1      -3.810  -4.120  -1.937  0.00  0.00    +0.000 A 
ATOM     27  C   UNL     1      -3.238  -5.348  -1.572  0.00  0.00    +0.000 A 
ATOM     28  C   UNL     1      -3.626  -6.526  -2.214  0.00  0.00    +0.000 A 
ATOM     29  C   UNL     1      -4.593  -6.500  -3.227  0.00  0.00    +0.000 A 
ATOM     30  C   UNL     1      -5.170  -5.274  -3.581  0.00  0.00    +0.000 A 
ATOM     31  C   UNL     1      -4.783  -4.096  -2.939  0.00  0.00    +0.000 A 
BRANCH  29  32
ATOM     32  C   UNL     1      -4.987  -7.766  -3.951  0.00  0.00    +0.000 C 
BRANCH  32  33
ATOM     33  N   UNL     1      -5.559  -8.749  -3.031  0.00  0.00    +0.000 NA
ATOM     34  H   UNL     1      -6.366  -8.326  -2.572  0.00  0.00    +0.000 HD
BRANCH  33  35
ATOM     35  C   UNL     1      -5.966  -9.959  -3.751  0.00  0.00    +0.000 C 
BRANCH  35  36
ATOM     36  C   UNL     1      -6.549 -11.007  -2.809  0.00  0.00    +0.000 C 
ATOM     37  F   UNL     1      -6.916 -12.097  -3.537  0.00  0.00    +0.000 F 
ENDBRANCH  35  36
ENDBRANCH  33  35
ENDBRANCH  32  33
ENDBRANCH  29  32
ENDBRANCH  25  26
ENDBRANCH  24  25
ENDBRANCH  23  24
ENDBRANCH   4  23
TORSDOF 12
