REMARK  Name = 
REMARK  5 active torsions:
REMARK  status: ('A' for Active; 'I' for Inactive)
REMARK    1  A    between atoms: C_2  and  C_4
REMARK    2  A    between atoms: C_7  and  C_8
REMARK    3  A    between atoms: C_8  and  C_9
REMARK    4  A    between atoms: C_9  and  C_10
REMARK    5  A    between atoms: C_18  and  C_19
REMARK                            x       y       z     vdW  Elec       q    Type
REMARK                         _______ _______ _______ _____ _____    ______ ____
ROOT
ATOM      1  C   UNL     1       5.442   7.033   2.064  0.00  0.00    +0.000 A 
ATOM      2  C   UNL     1       6.786   7.279   2.260  0.00  0.00    +0.000 A 
ATOM      3  C   UNL     1       7.259   8.484   1.813  0.00  0.00    +0.000 A 
ATOM      4  N   UNL     1       6.492   9.392   1.189  0.00  0.00    +0.000 NA
ATOM      5  C   UNL     1       5.198   9.096   1.017  0.00  0.00    +0.000 A 
ATOM      6  N   UNL     1       4.402   9.954   0.292  0.00  0.00    +0.000 N 
ATOM      7  C   UNL     1       2.979   9.701   0.157  0.00  0.00    +0.000 C 
ATOM      8  C   UNL     1       2.612   9.778  -1.326  0.00  0.00    +0.000 C 
ATOM      9  C   UNL     1       3.092  11.083  -1.982  0.00  0.00    +0.000 C 
ATOM     10  C   UNL     1       4.593  11.291  -1.714  0.00  0.00    +0.000 C 
ATOM     11  C   UNL     1       4.937  11.198  -0.224  0.00  0.00    +0.000 C 
ATOM     12  N   UNL     1       4.659   7.951   1.460  0.00  0.00    +0.000 NA
ENDROOT
BRANCH   9  13
ATOM     13  C   UNL     1       2.256  12.291  -1.560  0.00  0.00    +0.000 C 
ATOM     14  F   UNL     1       1.224  11.953  -0.758  0.00  0.00    +0.000 F 
ATOM     15  F   UNL     1       2.979  13.232  -0.916  0.00  0.00    +0.000 F 
ATOM     16  F   UNL     1       1.725  12.887  -2.655  0.00  0.00    +0.000 F 
ENDBRANCH   9  13
BRANCH   1  17
ATOM     17  C   UNL     1       4.818   5.677   2.399  0.00  0.00    +0.000 C 
ATOM     18  C   UNL     1       3.546   5.231   1.683  0.00  0.00    +0.000 C 
ATOM     19  C   UNL     1       4.861   4.670   1.249  0.00  0.00    +0.000 C 
BRANCH  17  20
ATOM     20  C   UNL     1       5.042   5.150   3.806  0.00  0.00    +0.000 C 
BRANCH  20  24
ATOM     21  C   UNL     1       3.337   7.289   7.164  0.00  0.00    +0.000 A 
ATOM     22  C   UNL     1       2.693   7.331   5.924  0.00  0.00    +0.000 A 
ATOM     23  C   UNL     1       3.258   6.690   4.815  0.00  0.00    +0.000 A 
ATOM     24  C   UNL     1       4.477   6.005   4.925  0.00  0.00    +0.000 A 
ATOM     25  C   UNL     1       5.137   6.013   6.166  0.00  0.00    +0.000 A 
ATOM     26  C   UNL     1       4.578   6.657   7.275  0.00  0.00    +0.000 A 
BRANCH  21  28
ATOM     27  N   UNL     1       1.366   7.946   8.432  0.00  0.00    +0.000 N 
ATOM     28  C   UNL     1       2.732   7.888   8.383  0.00  0.00    +0.000 C 
ATOM     29  O   UNL     1       3.414   8.263   9.328  0.00  0.00    +0.000 OA
ATOM     30  H   UNL     1       0.959   8.247   9.309  0.00  0.00    +0.000 HD
ATOM     31  H   UNL     1       0.781   7.417   7.801  0.00  0.00    +0.000 HD
ENDBRANCH  21  28
ENDBRANCH  20  24
ENDBRANCH  17  20
ENDBRANCH   1  17
TORSDOF 5
