REMARK  Name = 
REMARK  4 active torsions:
REMARK  status: ('A' for Active; 'I' for Inactive)
REMARK    1  A    between atoms: C_2  and  C_4
REMARK    2  A    between atoms: C_7  and  N_8
REMARK    3  A    between atoms: N_8  and  C_9
REMARK    4  A    between atoms: C_9  and  C_10
REMARK                            x       y       z     vdW  Elec       q    Type
REMARK                         _______ _______ _______ _____ _____    ______ ____
ROOT
ATOM      1  N   UNL     1       5.144   4.553  -0.545  0.00  0.00    +0.000 N 
ATOM      2  H   UNL     1       4.313   3.983  -0.429  0.00  0.00    +0.000 HD
ENDROOT
BRANCH   1   6
ATOM      3  C   UNL     1       8.500   2.249   0.187  0.00  0.00    +0.000 A 
ATOM      4  C   UNL     1       8.540   3.624   0.356  0.00  0.00    +0.000 A 
ATOM      5  N   UNL     1       7.450   4.419   0.159  0.00  0.00    +0.000 NA
ATOM      6  C   UNL     1       6.310   3.807  -0.235  0.00  0.00    +0.000 A 
ATOM      7  C   UNL     1       6.303   2.414  -0.418  0.00  0.00    +0.000 A 
ATOM      8  N   UNL     1       7.369   1.599  -0.199  0.00  0.00    +0.000 NA
BRANCH   3  10
ATOM      9  N   UNL     1       9.589   0.084   0.212  0.00  0.00    +0.000 N 
ATOM     10  C   UNL     1       9.723   1.433   0.425  0.00  0.00    +0.000 C 
ATOM     11  O   UNL     1      10.781   1.927   0.789  0.00  0.00    +0.000 OA
ATOM     12  H   UNL     1      10.384  -0.523   0.342  0.00  0.00    +0.000 HD
ATOM     13  H   UNL     1       8.703  -0.293  -0.104  0.00  0.00    +0.000 HD
ENDBRANCH   3  10
ENDBRANCH   1   6
BRANCH   1  14
ATOM     14  C   UNL     1       4.998   5.927  -0.002  0.00  0.00    +0.000 C 
ATOM     15  C   UNL     1       4.985   6.123   1.506  0.00  0.00    +0.000 C 
ATOM     16  C   UNL     1       3.708   6.264   0.747  0.00  0.00    +0.000 C 
BRANCH  14  17
ATOM     17  C   UNL     1       5.537   7.035  -0.902  0.00  0.00    +0.000 A 
ATOM     18  C   UNL     1       4.790   7.517  -1.996  0.00  0.00    +0.000 A 
ATOM     19  C   UNL     1       5.247   8.581  -2.779  0.00  0.00    +0.000 A 
ATOM     20  C   UNL     1       6.466   9.172  -2.481  0.00  0.00    +0.000 A 
ATOM     21  F   UNL     1       6.898  10.205  -3.216  0.00  0.00    +0.000 F 
ATOM     22  C   UNL     1       7.242   8.708  -1.428  0.00  0.00    +0.000 A 
ATOM     23  C   UNL     1       6.781   7.643  -0.652  0.00  0.00    +0.000 A 
ENDBRANCH  14  17
ENDBRANCH   1  14
TORSDOF 4
