REMARK  Name = 
REMARK  10 active torsions:
REMARK  status: ('A' for Active; 'I' for Inactive)
REMARK    1  A    between atoms: N_1  and  C_2
REMARK    2  A    between atoms: C_2  and  C_3
REMARK    3  A    between atoms: C_3  and  N_4
REMARK    4  A    between atoms: N_4  and  C_5
REMARK    5  A    between atoms: C_5  and  C_6
REMARK    6  A    between atoms: C_9  and  C_10
REMARK    7  A    between atoms: C_10  and  C_11
REMARK    8  A    between atoms: C_14  and  C_15
REMARK    9  A    between atoms: C_15  and  N_16
REMARK   10  A    between atoms: C_17  and  C_19
REMARK                            x       y       z     vdW  Elec       q    Type
REMARK                         _______ _______ _______ _____ _____    ______ ____
ROOT
ATOM      1  C   UNL     1      11.196  -2.239   1.870  0.00  0.00    +0.000 C 
ATOM      2  C   UNL     1      10.561  -3.082   2.988  0.00  0.00    +0.000 C 
ATOM      3  C   UNL     1      10.906  -2.569   4.386  0.00  0.00    +0.000 C 
ATOM      4  C   UNL     1      10.488  -1.102   4.573  0.00  0.00    +0.000 C 
ATOM      5  C   UNL     1      11.063  -0.221   3.449  0.00  0.00    +0.000 C 
ATOM      6  C   UNL     1      10.763  -0.772   2.052  0.00  0.00    +0.000 C 
ENDROOT
BRANCH   1   7
ATOM      7  C   UNL     1      12.734  -2.342   1.793  0.00  0.00    +0.000 C 
BRANCH   7  11
ATOM      8  C   UNL     1      14.369  -6.180   0.934  0.00  0.00    +0.000 A 
ATOM      9  C   UNL     1      14.188  -5.799   2.261  0.00  0.00    +0.000 A 
ATOM     10  C   UNL     1      13.620  -4.567   2.553  0.00  0.00    +0.000 A 
ATOM     11  C   UNL     1      13.268  -3.722   1.504  0.00  0.00    +0.000 A 
ATOM     12  N   UNL     1      13.433  -4.067   0.205  0.00  0.00    +0.000 NA
ATOM     13  C   UNL     1      13.970  -5.284  -0.052  0.00  0.00    +0.000 A 
BRANCH   8  14
ATOM     14  C   UNL     1      15.009  -7.495   0.588  0.00  0.00    +0.000 C 
BRANCH  14  15
ATOM     15  N   UNL     1      14.206  -8.616   1.082  0.00  0.00    +0.000 NA
ATOM     16  H   UNL     1      14.170  -8.542   2.101  0.00  0.00    +0.000 HD
BRANCH  15  17
ATOM     17  C   UNL     1      14.832  -9.910   0.786  0.00  0.00    +0.000 C 
BRANCH  17  18
ATOM     18  C   UNL     1      16.191 -10.120   1.486  0.00  0.00    +0.000 C 
BRANCH  18  19
ATOM     19  N   UNL     1      16.096  -9.885   2.932  0.00  0.00    +0.000 NA
ATOM     20  H   UNL     1      17.014 -10.028   3.351  0.00  0.00    +0.000 HD
ATOM     21  H   UNL     1      15.487 -10.596   3.340  0.00  0.00    +0.000 HD
ENDBRANCH  18  19
ENDBRANCH  17  18
ENDBRANCH  15  17
ENDBRANCH  14  15
ENDBRANCH   8  14
ENDBRANCH   7  11
ENDBRANCH   1   7
BRANCH   4  22
ATOM     22  C   UNL     1      10.930  -0.557   5.945  0.00  0.00    +0.000 C 
BRANCH  22  23
ATOM     23  N   UNL     1      10.363  -1.287   7.060  0.00  0.00    +0.000 N 
ATOM     24  C   UNL     1       9.103  -1.036   7.543  0.00  0.00    +0.000 C 
ATOM     25  O   UNL     1       8.382  -0.165   7.062  0.00  0.00    +0.000 OA
ATOM     26  H   UNL     1      10.978  -1.910   7.575  0.00  0.00    +0.000 HD
BRANCH  24  27
ATOM     27  C   UNL     1       8.628  -1.903   8.629  0.00  0.00    +0.000 A 
ATOM     28  C   UNL     1       7.262  -2.060   8.826  0.00  0.00    +0.000 A 
ATOM     29  S   UNL     1       6.869  -3.109  10.110  0.00  0.00    +0.000 S 
ATOM     30  C   UNL     1       8.512  -3.364  10.476  0.00  0.00    +0.000 A 
ATOM     31  N   UNL     1       8.877  -4.162  11.514  0.00  0.00    +0.000 NA
ATOM     32  C   UNL     1      10.155  -4.243  11.701  0.00  0.00    +0.000 A 
ATOM     33  N   UNL     1      11.096  -3.603  10.935  0.00  0.00    +0.000 N 
ATOM     34  C   UNL     1      10.772  -2.826   9.848  0.00  0.00    +0.000 A 
ATOM     35  O   UNL     1      11.643  -2.336   9.134  0.00  0.00    +0.000 OA
ATOM     36  C   UNL     1       9.349  -2.676   9.614  0.00  0.00    +0.000 A 
ATOM     37  H   UNL     1      12.077  -3.725  11.123  0.00  0.00    +0.000 HD
ENDBRANCH  24  27
ENDBRANCH  22  23
ENDBRANCH   4  22
TORSDOF 10
