REMARK  Name = 
REMARK  7 active torsions:
REMARK  status: ('A' for Active; 'I' for Inactive)
REMARK    1  A    between atoms: C_2  and  C_20
REMARK    2  A    between atoms: N_3  and  C_4
REMARK    3  A    between atoms: C_4  and  C_5
REMARK    4  A    between atoms: C_8  and  C_9
REMARK    5  A    between atoms: C_9  and  N_10
REMARK    6  A    between atoms: N_10  and  C_11
REMARK    7  A    between atoms: C_11  and  C_12
REMARK                            x       y       z     vdW  Elec       q    Type
REMARK                         _______ _______ _______ _____ _____    ______ ____
ROOT
ATOM      1  C   UNL     1       2.293  -1.813  -1.592  0.00  0.00    +0.000 C 
ENDROOT
BRANCH   1   2
ATOM      2  C   UNL     1       3.215  -2.763  -2.375  0.00  0.00    +0.000 C 
ATOM      3  C   UNL     1       2.975  -4.231  -1.981  0.00  0.00    +0.000 C 
ATOM      4  C   UNL     1       3.954  -5.186  -2.667  0.00  0.00    +0.000 C 
ATOM      5  C   UNL     1       5.415  -4.781  -2.416  0.00  0.00    +0.000 C 
ATOM      6  C   UNL     1       5.638  -3.322  -2.847  0.00  0.00    +0.000 C 
ATOM      7  C   UNL     1       4.676  -2.371  -2.146  0.00  0.00    +0.000 C 
BRANCH   5   8
ATOM      8  C   UNL     1       6.391  -5.731  -3.138  0.00  0.00    +0.000 C 
BRANCH   8   9
ATOM      9  N   UNL     1       7.771  -5.337  -2.845  0.00  0.00    +0.000 NA
ATOM     10  H   UNL     1       7.937  -5.405  -1.840  0.00  0.00    +0.000 HD
BRANCH   9  11
ATOM     11  C   UNL     1       8.744  -6.186  -3.537  0.00  0.00    +0.000 C 
BRANCH  11  12
ATOM     12  C   UNL     1      10.170  -5.770  -3.250  0.00  0.00    +0.000 A 
ATOM     13  C   UNL     1      10.627  -4.497  -3.588  0.00  0.00    +0.000 A 
ATOM     14  N   UNL     1      11.898  -4.084  -3.364  0.00  0.00    +0.000 NA
ATOM     15  C   UNL     1      12.703  -4.998  -2.778  0.00  0.00    +0.000 A 
ATOM     16  C   UNL     1      12.260  -6.263  -2.433  0.00  0.00    +0.000 A 
ATOM     17  N   UNL     1      10.992  -6.677  -2.659  0.00  0.00    +0.000 NA
ENDBRANCH  11  12
ENDBRANCH   9  11
ENDBRANCH   8   9
ENDBRANCH   5   8
ENDBRANCH   1   2
BRANCH   1  20
ATOM     18  O   UNL     1       0.065  -1.442   0.140  0.00  0.00    +0.000 OA
ATOM     19  C   UNL     1      -0.119  -1.823  -1.011  0.00  0.00    +0.000 C 
ATOM     20  N   UNL     1       0.908  -2.081  -1.887  0.00  0.00    +0.000 N 
ATOM     21  H   UNL     1       0.683  -2.150  -2.872  0.00  0.00    +0.000 HD
BRANCH  19  22
ATOM     22  C   UNL     1      -1.463  -2.090  -1.534  0.00  0.00    +0.000 A 
ATOM     23  C   UNL     1      -2.501  -2.423  -0.673  0.00  0.00    +0.000 A 
ATOM     24  S   UNL     1      -3.981  -2.712  -1.474  0.00  0.00    +0.000 S 
ATOM     25  C   UNL     1      -3.293  -2.368  -2.995  0.00  0.00    +0.000 A 
ATOM     26  N   UNL     1      -4.037  -2.407  -4.129  0.00  0.00    +0.000 NA
ATOM     27  C   UNL     1      -3.391  -2.096  -5.205  0.00  0.00    +0.000 A 
ATOM     28  N   UNL     1      -2.066  -1.754  -5.247  0.00  0.00    +0.000 N 
ATOM     29  C   UNL     1      -1.265  -1.750  -4.134  0.00  0.00    +0.000 A 
ATOM     30  O   UNL     1      -0.059  -1.529  -4.228  0.00  0.00    +0.000 OA
ATOM     31  C   UNL     1      -1.948  -2.062  -2.894  0.00  0.00    +0.000 A 
ATOM     32  H   UNL     1      -1.608  -1.545  -6.121  0.00  0.00    +0.000 HD
ENDBRANCH  19  22
ENDBRANCH   1  20
TORSDOF 7
