REMARK  Name = 
REMARK  7 active torsions:
REMARK  status: ('A' for Active; 'I' for Inactive)
REMARK    1  A    between atoms: N_1  and  S_2
REMARK    2  A    between atoms: S_2  and  C_5
REMARK    3  A    between atoms: C_8  and  C_9
REMARK    4  A    between atoms: C_9  and  C_10
REMARK    5  A    between atoms: C_10  and  N_11
REMARK    6  A    between atoms: CA_16  and  C_17
REMARK    7  A    between atoms: C_17  and  OXT_19
REMARK                            x       y       z     vdW  Elec       q    Type
REMARK                         _______ _______ _______ _____ _____    ______ ____
ROOT
ATOM      1  C   UNL     1       4.169   1.822   5.641  0.00  0.00    +0.000 C 
ENDROOT
BRANCH   1   5
ATOM      2  C   UNL     1       3.160   0.631   1.621  0.00  0.00    +0.000 A 
ATOM      3  C   UNL     1       4.493   0.876   1.954  0.00  0.00    +0.000 A 
ATOM      4  C   UNL     1       4.817   1.264   3.257  0.00  0.00    +0.000 A 
ATOM      5  C   UNL     1       3.816   1.403   4.231  0.00  0.00    +0.000 A 
ATOM      6  C   UNL     1       2.480   1.158   3.878  0.00  0.00    +0.000 A 
ATOM      7  C   UNL     1       2.151   0.769   2.577  0.00  0.00    +0.000 A 
BRANCH   2   8
ATOM      8  S   UNL     1       2.755   0.099  -0.012  0.00  0.00    +0.000 S 
ATOM      9  O   UNL     1       3.324   1.025  -0.962  0.00  0.00    +0.000 OA
ATOM     10  O   UNL     1       1.368  -0.309  -0.056  0.00  0.00    +0.000 OA
BRANCH   8  11
ATOM     11  N   UNL     1       3.633  -1.331  -0.140  0.00  0.00    +0.000 NA
ATOM     12  H   UNL     1       3.985  -1.424  -1.097  0.00  0.00    +0.000 HD
ATOM     13  H   UNL     1       3.070  -2.124   0.163  0.00  0.00    +0.000 HD
ENDBRANCH   8  11
ENDBRANCH   2   8
ENDBRANCH   1   5
BRANCH   1  14
ATOM     14  C   UNL     1       4.149   3.342   5.816  0.00  0.00    +0.000 C 
BRANCH  14  15
ATOM     15  N   UNL     1       4.472   3.703   7.191  0.00  0.00    +0.000 N 
ATOM     16  C   UNL     1       4.450   5.065   7.442  0.00  0.00    +0.000 A 
ATOM     17  N   UNL     1       5.307   5.506   8.375  0.00  0.00    +0.000 NA
ATOM     18  C   UNL     1       5.318   6.825   8.643  0.00  0.00    +0.000 A 
ATOM     19  C   UNL     1       4.511   7.727   8.004  0.00  0.00    +0.000 A 
ATOM     20  CA  UNL     1       3.672   7.175   7.063  0.00  0.00    +0.000 A 
ATOM     21  N   UNL     1       3.616   5.858   6.759  0.00  0.00    +0.000 NA
ATOM     22  H   UNL     1       5.361   3.363   7.547  0.00  0.00    +0.000 HD
BRANCH  20  23
ATOM     23  C   UNL     1       2.752   8.056   6.283  0.00  0.00    +0.000 C 
ATOM     24  O   UNL     1       2.679   9.258   6.429  0.00  0.00    +0.000 OA
BRANCH  23  25
ATOM     25  OXT UNL     1       2.024   7.350   5.383  0.00  0.00    +0.000 OA
ATOM     26  HXT UNL     1       2.245   6.394   5.441  0.00  0.00    +0.000 HD
ENDBRANCH  23  25
ENDBRANCH  20  23
ENDBRANCH  14  15
ENDBRANCH   1  14
TORSDOF 7
