REMARK  Name = 
REMARK  5 active torsions:
REMARK  status: ('A' for Active; 'I' for Inactive)
REMARK    1  A    between atoms: N_1  and  C_2
REMARK    2  A    between atoms: C_2  and  C_3
REMARK    3  A    between atoms: C_3  and  C_4
REMARK    4  A    between atoms: C_7  and  C_8
REMARK    5  A    between atoms: C_8  and  N_9
REMARK                            x       y       z     vdW  Elec       q    Type
REMARK                         _______ _______ _______ _____ _____    ______ ____
ROOT
ATOM      1  C   UNL     1       4.528  -0.703   1.232  0.00  0.00    +0.000 A 
ATOM      2  C   UNL     1       5.207   0.427   1.681  0.00  0.00    +0.000 A 
ATOM      3  C   UNL     1       6.599   0.438   1.683  0.00  0.00    +0.000 A 
ATOM      4  C   UNL     1       7.288  -0.696   1.254  0.00  0.00    +0.000 A 
ATOM      5  N   UNL     1       6.642  -1.799   0.790  0.00  0.00    +0.000 NA
ATOM      6  C   UNL     1       5.290  -1.777   0.784  0.00  0.00    +0.000 A 
ENDROOT
BRANCH   1   7
ATOM      7  C   UNL     1       3.025  -0.746   1.190  0.00  0.00    +0.000 C 
BRANCH   7   8
ATOM      8  C   UNL     1       2.484  -0.239  -0.152  0.00  0.00    +0.000 C 
BRANCH   8   9
ATOM      9  N   UNL     1       1.025  -0.276  -0.186  0.00  0.00    +0.000 NA
ATOM     10  H   UNL     1       0.700   0.077  -1.085  0.00  0.00    +0.000 HD
ATOM     11  H   UNL     1       0.647   0.357   0.518  0.00  0.00    +0.000 HD
ENDBRANCH   8   9
ENDBRANCH   7   8
ENDBRANCH   1   7
BRANCH   4  12
ATOM     12  C   UNL     1       8.796  -0.756   1.275  0.00  0.00    +0.000 C 
BRANCH  12  13
ATOM     13  N   UNL     1       9.304  -0.614   2.626  0.00  0.00    +0.000 N 
ATOM     14  N   UNL     1       9.694   0.598   3.075  0.00  0.00    +0.000 NA
ATOM     15  N   UNL     1       9.943   0.479   4.372  0.00  0.00    +0.000 NA
ATOM     16  C   UNL     1       9.737  -0.827   4.728  0.00  0.00    +0.000 A 
ATOM     17  C   UNL     1       9.826  -1.461   5.975  0.00  0.00    +0.000 A 
ATOM     18  C   UNL     1       9.551  -2.833   6.048  0.00  0.00    +0.000 A 
ATOM     19  C   UNL     1       9.218  -3.560   4.902  0.00  0.00    +0.000 A 
ATOM     20  C   UNL     1       9.120  -2.942   3.649  0.00  0.00    +0.000 A 
ATOM     21  C   UNL     1       9.372  -1.566   3.610  0.00  0.00    +0.000 A 
ENDBRANCH  12  13
ENDBRANCH   4  12
TORSDOF 5
