REMARK  Name = 
REMARK  4 active torsions:
REMARK  status: ('A' for Active; 'I' for Inactive)
REMARK    1  A    between atoms: C_2  and  C_4
REMARK    2  A    between atoms: C_7  and  N_8
REMARK    3  A    between atoms: N_8  and  C_9
REMARK    4  A    between atoms: C_9  and  C_10
REMARK                            x       y       z     vdW  Elec       q    Type
REMARK                         _______ _______ _______ _____ _____    ______ ____
ROOT
ATOM      1  C   UNL     1       8.821   0.951  -2.594  0.00  0.00    +0.000 A 
ATOM      2  C   UNL     1       8.743   1.285  -3.940  0.00  0.00    +0.000 A 
ATOM      3  N   UNL     1       7.594   1.155  -4.658  0.00  0.00    +0.000 NA
ATOM      4  C   UNL     1       6.517   0.660  -4.006  0.00  0.00    +0.000 A 
ATOM      5  C   UNL     1       6.631   0.308  -2.651  0.00  0.00    +0.000 A 
ATOM      6  N   UNL     1       7.758   0.457  -1.906  0.00  0.00    +0.000 NA
ENDROOT
BRANCH   1   8
ATOM      7  N   UNL     1      10.079   0.776  -0.535  0.00  0.00    +0.000 N 
ATOM      8  C   UNL     1      10.101   1.131  -1.857  0.00  0.00    +0.000 C 
ATOM      9  O   UNL     1      11.112   1.569  -2.391  0.00  0.00    +0.000 OA
ATOM     10  H   UNL     1      10.919   0.861   0.017  0.00  0.00    +0.000 HD
ATOM     11  H   UNL     1       9.230   0.406  -0.122  0.00  0.00    +0.000 HD
ENDBRANCH   1   8
BRANCH   4  12
ATOM     12  N   UNL     1       5.294   0.421  -4.684  0.00  0.00    +0.000 N 
ATOM     13  H   UNL     1       4.519   0.519  -4.037  0.00  0.00    +0.000 HD
BRANCH  12  14
ATOM     14  C   UNL     1       5.050   1.099  -5.984  0.00  0.00    +0.000 C 
ATOM     15  C   UNL     1       4.989   2.618  -6.022  0.00  0.00    +0.000 C 
ATOM     16  C   UNL     1       3.723   1.839  -6.146  0.00  0.00    +0.000 C 
BRANCH  14  17
ATOM     17  C   UNL     1       5.530   0.340  -7.220  0.00  0.00    +0.000 A 
ATOM     18  C   UNL     1       4.777  -0.714  -7.770  0.00  0.00    +0.000 A 
ATOM     19  C   UNL     1       5.160  -1.346  -8.957  0.00  0.00    +0.000 A 
ATOM     20  C   UNL     1       6.316  -0.942  -9.619  0.00  0.00    +0.000 A 
ATOM     21  C   UNL     1       7.098   0.075  -9.081  0.00  0.00    +0.000 A 
ATOM     22  C   UNL     1       6.712   0.699  -7.892  0.00  0.00    +0.000 A 
ENDBRANCH  14  17
ENDBRANCH  12  14
ENDBRANCH   4  12
TORSDOF 4
