REMARK  Name = 
REMARK  6 active torsions:
REMARK  status: ('A' for Active; 'I' for Inactive)
REMARK    1  A    between atoms: C_2  and  C_18
REMARK    2  A    between atoms: N_3  and  C_4
REMARK    3  A    between atoms: C_4  and  C_5
REMARK    4  A    between atoms: C_8  and  O_9
REMARK    5  A    between atoms: O_9  and  C_10
REMARK    6  A    between atoms: C_10  and  C_11
REMARK                            x       y       z     vdW  Elec       q    Type
REMARK                         _______ _______ _______ _____ _____    ______ ____
ROOT
ATOM      1  O   UNL     1       1.447   3.233  -0.533  0.00  0.00    +0.000 OA
ATOM      2  C   UNL     1       2.247   2.316  -0.713  0.00  0.00    +0.000 C 
ATOM      3  N   UNL     1       2.701   1.526   0.311  0.00  0.00    +0.000 N 
ATOM      4  H   UNL     1       3.484   0.897   0.149  0.00  0.00    +0.000 HD
ENDROOT
BRANCH   2   5
ATOM      5  C   UNL     1       2.721   1.977  -2.057  0.00  0.00    +0.000 A 
ATOM      6  C   UNL     1       1.937   2.240  -3.171  0.00  0.00    +0.000 A 
ATOM      7  S   UNL     1       2.680   1.797  -4.644  0.00  0.00    +0.000 S 
ATOM      8  C   UNL     1       4.082   1.264  -3.841  0.00  0.00    +0.000 A 
ATOM      9  N   UNL     1       5.148   0.777  -4.530  0.00  0.00    +0.000 NA
ATOM     10  C   UNL     1       6.156   0.451  -3.789  0.00  0.00    +0.000 A 
ATOM     11  N   UNL     1       6.193   0.554  -2.423  0.00  0.00    +0.000 N 
ATOM     12  C   UNL     1       5.111   0.968  -1.681  0.00  0.00    +0.000 A 
ATOM     13  O   UNL     1       5.123   0.913  -0.456  0.00  0.00    +0.000 OA
ATOM     14  C   UNL     1       3.973   1.395  -2.468  0.00  0.00    +0.000 A 
ATOM     15  H   UNL     1       6.996   0.250  -1.899  0.00  0.00    +0.000 HD
ENDBRANCH   2   5
BRANCH   3  16
ATOM     16  C   UNL     1       2.295   1.738   1.676  0.00  0.00    +0.000 C 
BRANCH  16  17
ATOM     17  C   UNL     1       3.221   2.645   2.432  0.00  0.00    +0.000 A 
ATOM     18  C   UNL     1       3.067   4.034   2.424  0.00  0.00    +0.000 A 
ATOM     19  C   UNL     1       3.913   4.836   3.193  0.00  0.00    +0.000 A 
ATOM     20  C   UNL     1       4.906   4.216   3.940  0.00  0.00    +0.000 A 
ATOM     21  N   UNL     1       5.092   2.882   3.950  0.00  0.00    +0.000 NA
ATOM     22  C   UNL     1       4.258   2.132   3.198  0.00  0.00    +0.000 A 
BRANCH  20  23
ATOM     23  O   UNL     1       5.731   5.009   4.716  0.00  0.00    +0.000 OA
BRANCH  23  24
ATOM     24  C   UNL     1       6.717   4.233   5.423  0.00  0.00    +0.000 C 
BRANCH  24  25
ATOM     25  C   UNL     1       7.631   5.144   6.253  0.00  0.00    +0.000 C 
ATOM     26  C   UNL     1       8.396   6.151   5.408  0.00  0.00    +0.000 C 
ATOM     27  C   UNL     1       9.528   6.569   6.326  0.00  0.00    +0.000 C 
ATOM     28  C   UNL     1       9.804   5.341   7.181  0.00  0.00    +0.000 C 
ATOM     29  N   UNL     1       8.710   4.401   6.928  0.00  0.00    +0.000 NA
ATOM     30  H   UNL     1       8.378   3.986   7.797  0.00  0.00    +0.000 HD
ENDBRANCH  24  25
ENDBRANCH  23  24
ENDBRANCH  20  23
ENDBRANCH  16  17
ENDBRANCH   3  16
TORSDOF 6
