REMARK  Name = 
REMARK  8 active torsions:
REMARK  status: ('A' for Active; 'I' for Inactive)
REMARK    1  A    between atoms: C_1  and  O_2
REMARK    2  A    between atoms: O_2  and  C_3
REMARK    3  A    between atoms: C_7  and  N_8
REMARK    4  A    between atoms: N_8  and  C_9
REMARK    5  A    between atoms: C_9  and  C_10
REMARK    6  A    between atoms: C_13  and  C_14
REMARK    7  A    between atoms: C_15  and  C_16
REMARK    8  A    between atoms: C_20  and  C_21
REMARK                            x       y       z     vdW  Elec       q    Type
REMARK                         _______ _______ _______ _____ _____    ______ ____
ROOT
ATOM      1  C   UNL     1       1.000  -3.838   2.073  0.00  0.00    +0.000 A 
ATOM      2  C   UNL     1       1.053  -2.543   2.585  0.00  0.00    +0.000 A 
ATOM      3  C   UNL     1       0.061  -1.621   2.254  0.00  0.00    +0.000 A 
ATOM      4  C   UNL     1      -1.023  -1.976   1.426  0.00  0.00    +0.000 A 
ATOM      5  C   UNL     1      -1.885  -0.849   0.910  0.00  0.00    +0.000 C 
ATOM      6  C   UNL     1      -1.217  -3.335   1.074  0.00  0.00    +0.000 A 
ATOM      7  C   UNL     1      -0.164  -4.234   1.393  0.00  0.00    +0.000 A 
ENDROOT
BRANCH   6   8
ATOM      8  C   UNL     1      -2.452  -3.862   0.418  0.00  0.00    +0.000 A 
ATOM      9  C   UNL     1      -3.734  -3.372   0.738  0.00  0.00    +0.000 A 
ATOM     10  C   UNL     1      -4.900  -3.911   0.184  0.00  0.00    +0.000 A 
ATOM     11  C   UNL     1      -4.823  -5.004  -0.669  0.00  0.00    +0.000 A 
ATOM     12  C   UNL     1      -3.574  -5.533  -0.991  0.00  0.00    +0.000 A 
ATOM     13  C   UNL     1      -2.405  -4.950  -0.475  0.00  0.00    +0.000 A 
BRANCH  12  14
ATOM     14  C   UNL     1      -3.483  -6.696  -1.819  0.00  0.00    +0.000 C 
ATOM     15  N   UNL     1      -3.407  -7.651  -2.481  0.00  0.00    +0.000 NA
ENDBRANCH  12  14
ENDBRANCH   6   8
BRANCH   1  16
ATOM     16  C   UNL     1       2.198  -4.760   2.172  0.00  0.00    +0.000 C 
BRANCH  16  17
ATOM     17  N   UNL     1       2.047  -5.748   3.227  0.00  0.00    +0.000 N 
ATOM     18  H   UNL     1       1.407  -5.465   3.964  0.00  0.00    +0.000 HD
BRANCH  17  23
ATOM     19  C   UNL     1       5.448  -7.290   3.558  0.00  0.00    +0.000 A 
ATOM     20  C   UNL     1       5.214  -8.000   4.725  0.00  0.00    +0.000 A 
ATOM     21  N   UNL     1       4.030  -8.010   5.382  0.00  0.00    +0.000 NA
ATOM     22  C   UNL     1       3.046  -7.255   4.843  0.00  0.00    +0.000 A 
ATOM     23  C   UNL     1       3.164  -6.453   3.700  0.00  0.00    +0.000 A 
ATOM     24  C   UNL     1       4.396  -6.530   3.037  0.00  0.00    +0.000 A 
BRANCH  19  26
ATOM     25  C   UNL     1       6.993  -6.661   1.862  0.00  0.00    +0.000 C 
ATOM     26  O   UNL     1       6.707  -7.413   3.033  0.00  0.00    +0.000 OA
ENDBRANCH  19  26
ENDBRANCH  17  23
ENDBRANCH  16  17
ENDBRANCH   1  16
TORSDOF 6
