REMARK  Name = 
REMARK  4 active torsions:
REMARK  status: ('A' for Active; 'I' for Inactive)
REMARK    1  A    between atoms: C_2  and  C_5
REMARK    2  A    between atoms: C_7  and  N_8
REMARK    3  A    between atoms: N_8  and  C_9
REMARK    4  A    between atoms: C_9  and  C_10
REMARK                            x       y       z     vdW  Elec       q    Type
REMARK                         _______ _______ _______ _____ _____    ______ ____
ROOT
ATOM      1  C   UNL     1       2.673   1.228  -0.623  0.00  0.00    +0.000 A 
ATOM      2  C   UNL     1       3.507   1.290  -1.735  0.00  0.00    +0.000 A 
ATOM      3  C   UNL     1       3.870   2.528  -2.250  0.00  0.00    +0.000 A 
ATOM      4  N   UNL     1       3.406   3.677  -1.715  0.00  0.00    +0.000 NA
ATOM      5  C   UNL     1       2.568   3.642  -0.651  0.00  0.00    +0.000 A 
ATOM      6  N   UNL     1       2.067   4.824  -0.153  0.00  0.00    +0.000 N 
ATOM      7  C   UNL     1       1.896   5.981  -1.037  0.00  0.00    +0.000 C 
ATOM      8  C   UNL     1       2.583   7.232  -0.452  0.00  0.00    +0.000 C 
ATOM      9  N   UNL     1       2.212   7.518   0.953  0.00  0.00    +0.000 NA
ATOM     10  C   UNL     1       2.516   6.322   1.765  0.00  0.00    +0.000 C 
ATOM     11  C   UNL     1       1.811   5.038   1.272  0.00  0.00    +0.000 C 
ATOM     12  C   UNL     1       2.201   2.426  -0.087  0.00  0.00    +0.000 A 
ATOM     13  H   UNL     1       1.205   7.674   0.986  0.00  0.00    +0.000 HD
ENDROOT
BRANCH   1  15
ATOM     14  F   UNL     1       2.833  -1.164  -0.599  0.00  0.00    +0.000 F 
ATOM     15  C   UNL     1       2.284  -0.075   0.008  0.00  0.00    +0.000 C 
ATOM     16  F   UNL     1       0.938  -0.279  -0.007  0.00  0.00    +0.000 F 
ATOM     17  F   UNL     1       2.656  -0.150   1.316  0.00  0.00    +0.000 F 
ENDBRANCH   1  15
BRANCH   3  18
ATOM     18  N   UNL     1       4.778   2.535  -3.307  0.00  0.00    +0.000 N 
ATOM     19  H   UNL     1       4.458   2.022  -4.116  0.00  0.00    +0.000 HD
BRANCH  18  20
ATOM     20  C   UNL     1       5.545   3.736  -3.576  0.00  0.00    +0.000 C 
BRANCH  20  21
ATOM     21  C   UNL     1       4.871   4.810  -4.395  0.00  0.00    +0.000 A 
ATOM     22  C   UNL     1       5.317   6.131  -4.245  0.00  0.00    +0.000 A 
ATOM     23  C   UNL     1       4.776   7.126  -5.045  0.00  0.00    +0.000 A 
ATOM     24  N   UNL     1       3.835   6.899  -5.981  0.00  0.00    +0.000 NA
ATOM     25  C   UNL     1       3.421   5.620  -6.122  0.00  0.00    +0.000 A 
ATOM     26  C   UNL     1       3.905   4.557  -5.370  0.00  0.00    +0.000 A 
ENDBRANCH  20  21
ENDBRANCH  18  20
ENDBRANCH   3  18
TORSDOF 4
