REMARK  Name = 
REMARK  6 active torsions:
REMARK  status: ('A' for Active; 'I' for Inactive)
REMARK    1  A    between atoms: C_1  and  C_2
REMARK    2  A    between atoms: C_2  and  O_3
REMARK    3  A    between atoms: C_2  and  C_12
REMARK    4  A    between atoms: O_3  and  C_4
REMARK    5  A    between atoms: C_7  and  C_8
REMARK    6  A    between atoms: C_15  and  C_16
REMARK                            x       y       z     vdW  Elec       q    Type
REMARK                         _______ _______ _______ _____ _____    ______ ____
ROOT
ATOM      1  C   UNL     1       2.959  -1.266  -0.330  0.00  0.00    +0.000 C 
ATOM      2  C   UNL     1       2.498   0.129   0.107  0.00  0.00    +0.000 C 
ENDROOT
BRANCH   2   3
ATOM      3  C   UNL     1       2.876   1.180  -0.937  0.00  0.00    +0.000 A 
ATOM      4  C   UNL     1       1.909   1.917  -1.637  0.00  0.00    +0.000 A 
ATOM      5  C   UNL     1       2.281   2.938  -2.519  0.00  0.00    +0.000 A 
ATOM      6  C   UNL     1       3.628   3.230  -2.738  0.00  0.00    +0.000 A 
ATOM      7  C   UNL     1       4.607   2.477  -2.083  0.00  0.00    +0.000 A 
ATOM      8  C   UNL     1       4.232   1.467  -1.185  0.00  0.00    +0.000 A 
BRANCH   6   9
ATOM      9  C   UNL     1       3.958   4.331  -3.686  0.00  0.00    +0.000 C 
ATOM     10  N   UNL     1       5.180   4.934  -3.561  0.00  0.00    +0.000 N 
ATOM     11  O   UNL     1       3.156   4.721  -4.523  0.00  0.00    +0.000 OA
ATOM     12  H   UNL     1       5.766   4.826  -2.749  0.00  0.00    +0.000 HD
ATOM     13  H   UNL     1       5.325   5.754  -4.140  0.00  0.00    +0.000 HD
ENDBRANCH   6   9
ENDBRANCH   2   3
BRANCH   2  14
ATOM     14  O   UNL     1       1.084  -0.010   0.325  0.00  0.00    +0.000 OA
BRANCH  14  15
ATOM     15  C   UNL     1       0.449   0.812   1.212  0.00  0.00    +0.000 A 
ATOM     16  C   UNL     1       0.881   2.076   1.609  0.00  0.00    +0.000 A 
ATOM     17  C   UNL     1       0.050   2.884   2.395  0.00  0.00    +0.000 A 
ATOM     18  C   UNL     1      -1.205   2.422   2.805  0.00  0.00    +0.000 A 
ATOM     19  C   UNL     1      -1.614   1.135   2.452  0.00  0.00    +0.000 A 
ATOM     20  C   UNL     1      -0.791   0.339   1.653  0.00  0.00    +0.000 A 
BRANCH  18  21
ATOM     21  C   UNL     1      -2.082   3.278   3.550  0.00  0.00    +0.000 C 
ATOM     22  N   UNL     1      -2.798   3.977   4.138  0.00  0.00    +0.000 NA
ENDBRANCH  18  21
ENDBRANCH  14  15
ENDBRANCH   2  14
TORSDOF 5
