REMARK  Name = 
REMARK  8 active torsions:
REMARK  status: ('A' for Active; 'I' for Inactive)
REMARK    1  A    between atoms: C_1  and  C_2
REMARK    2  A    between atoms: C_2  and  O_3
REMARK    3  A    between atoms: C_5  and  O_6
REMARK    4  A    between atoms: O_6  and  C_7
REMARK    5  A    between atoms: C_12  and  C_13
REMARK    6  A    between atoms: C_13  and  C_16
REMARK    7  A    between atoms: C_16  and  N_17
REMARK    8  A    between atoms: C_21  and  C_22
REMARK                            x       y       z     vdW  Elec       q    Type
REMARK                         _______ _______ _______ _____ _____    ______ ____
ROOT
ATOM      1  C   UNL     1       7.794  -2.173   5.776  0.00  0.00    +0.000 C 
ATOM      2  F   UNL     1       7.385  -3.249   6.516  0.00  0.00    +0.000 F 
ATOM      3  F   UNL     1       9.149  -2.340   5.635  0.00  0.00    +0.000 F 
ENDROOT
BRANCH   1   9
ATOM      4  C   UNL     1       5.641  -1.219   2.711  0.00  0.00    +0.000 A 
ATOM      5  C   UNL     1       5.871  -2.308   1.879  0.00  0.00    +0.000 A 
ATOM      6  C   UNL     1       6.697  -3.333   2.324  0.00  0.00    +0.000 A 
ATOM      7  F   UNL     1       6.903  -4.398   1.539  0.00  0.00    +0.000 F 
ATOM      8  C   UNL     1       7.306  -3.279   3.575  0.00  0.00    +0.000 A 
ATOM      9  C   UNL     1       7.108  -2.172   4.417  0.00  0.00    +0.000 A 
ATOM     10  C   UNL     1       6.269  -1.141   3.960  0.00  0.00    +0.000 A 
BRANCH   4  11
ATOM     11  O   UNL     1       4.814  -0.167   2.399  0.00  0.00    +0.000 OA
BRANCH  11  15
ATOM     12  C   UNL     1       0.276  -0.453   2.253  0.00  0.00    +0.000 C 
ATOM     13  C   UNL     1       1.545  -0.552   1.422  0.00  0.00    +0.000 C 
ATOM     14  C   UNL     1       2.642  -1.464   2.027  0.00  0.00    +0.000 C 
ATOM     15  C   UNL     1       3.689  -0.431   1.531  0.00  0.00    +0.000 C 
ATOM     16  C   UNL     1       2.550   0.620   1.588  0.00  0.00    +0.000 C 
BRANCH  13  17
ATOM     17  O   UNL     1       1.197  -0.848   0.050  0.00  0.00    +0.000 OA
ATOM     18  H   UNL     1       0.725  -1.698   0.078  0.00  0.00    +0.000 HD
ENDBRANCH  13  17
ENDBRANCH  11  15
ENDBRANCH   4  11
ENDBRANCH   1   9
BRANCH   1  19
ATOM     19  C   UNL     1       7.581  -0.893   6.621  0.00  0.00    +0.000 C 
BRANCH  19  20
ATOM     20  N   UNL     1       8.265  -0.921   7.937  0.00  0.00    +0.000 N 
ATOM     21  C   UNL     1       8.106   0.271   8.662  0.00  0.00    +0.000 A 
ATOM     22  C   UNL     1       8.681   0.414   9.933  0.00  0.00    +0.000 A 
ATOM     23  N   UNL     1       8.575   1.532  10.703  0.00  0.00    +0.000 NA
ATOM     24  C   UNL     1       7.835   2.528  10.144  0.00  0.00    +0.000 A 
ATOM     25  C   UNL     1       7.240   2.397   8.900  0.00  0.00    +0.000 A 
ATOM     26  N   UNL     1       7.361   1.275   8.146  0.00  0.00    +0.000 NA
ATOM     27  H   UNL     1       9.253  -1.151   7.841  0.00  0.00    +0.000 HD
BRANCH  24  28
ATOM     28  C   UNL     1       7.680   3.803  10.893  0.00  0.00    +0.000 C 
ATOM     29  N   UNL     1       8.295   3.863  12.113  0.00  0.00    +0.000 N 
ATOM     30  O   UNL     1       7.046   4.750  10.445  0.00  0.00    +0.000 OA
ATOM     31  H   UNL     1       8.814   3.065  12.463  0.00  0.00    +0.000 HD
ATOM     32  H   UNL     1       8.229   4.710  12.659  0.00  0.00    +0.000 HD
ENDBRANCH  24  28
ENDBRANCH  19  20
ENDBRANCH   1  19
TORSDOF 7
