REMARK  Name = 
REMARK  6 active torsions:
REMARK  status: ('A' for Active; 'I' for Inactive)
REMARK    1  A    between atoms: C_1  and  C_2
REMARK    2  A    between atoms: C_2  and  N_3
REMARK    3  A    between atoms: C_2  and  C_24
REMARK    4  A    between atoms: C_7  and  C_8
REMARK    5  A    between atoms: C_8  and  N_9
REMARK    6  A    between atoms: C_10  and  C_12
REMARK                            x       y       z     vdW  Elec       q    Type
REMARK                         _______ _______ _______ _____ _____    ______ ____
ROOT
ATOM      1  N   UNL     1       2.828  -1.199  -0.875  0.00  0.00    +0.000 N 
ATOM      2  C   UNL     1       2.538  -2.522  -0.524  0.00  0.00    +0.000 A 
ATOM      3  C   UNL     1       1.196  -2.844  -0.339  0.00  0.00    +0.000 A 
ATOM      4  C   UNL     1       0.836  -4.137   0.027  0.00  0.00    +0.000 A 
ATOM      5  C   UNL     1       1.822  -5.113   0.144  0.00  0.00    +0.000 A 
ATOM      6  C   UNL     1       3.134  -4.713  -0.090  0.00  0.00    +0.000 A 
ATOM      7  N   UNL     1       3.506  -3.448  -0.413  0.00  0.00    +0.000 NA
ATOM      8  H   UNL     1       2.635  -1.105  -1.870  0.00  0.00    +0.000 HD
ENDROOT
BRANCH   1  10
ATOM      9  C   UNL     1       4.413  -0.662   0.945  0.00  0.00    +0.000 C 
ATOM     10  C   UNL     1       4.175  -0.693  -0.570  0.00  0.00    +0.000 C 
BRANCH  10  11
ATOM     11  C   UNL     1       4.288   0.728  -1.142  0.00  0.00    +0.000 A 
ATOM     12  C   UNL     1       3.421   1.738  -0.713  0.00  0.00    +0.000 A 
ATOM     13  C   UNL     1       3.516   3.007  -1.280  0.00  0.00    +0.000 A 
ATOM     14  C   UNL     1       4.469   3.241  -2.261  0.00  0.00    +0.000 A 
ATOM     15  C   UNL     1       5.294   2.193  -2.632  0.00  0.00    +0.000 A 
ATOM     16  N   UNL     1       5.224   0.950  -2.104  0.00  0.00    +0.000 NA
ENDBRANCH  10  11
ENDBRANCH   1  10
BRANCH   5  17
ATOM     17  C   UNL     1       1.475  -6.521   0.522  0.00  0.00    +0.000 C 
BRANCH  17  18
ATOM     18  N   UNL     1       1.563  -6.739   1.945  0.00  0.00    +0.000 N 
ATOM     19  C   UNL     1       0.466  -6.752   2.769  0.00  0.00    +0.000 C 
ATOM     20  O   UNL     1      -0.669  -6.557   2.343  0.00  0.00    +0.000 OA
ATOM     21  H   UNL     1       2.494  -6.754   2.351  0.00  0.00    +0.000 HD
BRANCH  19  22
ATOM     22  C   UNL     1       0.706  -7.086   4.182  0.00  0.00    +0.000 A 
ATOM     23  C   UNL     1      -0.352  -7.519   4.970  0.00  0.00    +0.000 A 
ATOM     24  S   UNL     1       0.091  -7.897   6.571  0.00  0.00    +0.000 S 
ATOM     25  C   UNL     1       1.708  -7.451   6.286  0.00  0.00    +0.000 A 
ATOM     26  N   UNL     1       2.631  -7.503   7.281  0.00  0.00    +0.000 NA
ATOM     27  C   UNL     1       3.810  -7.101   6.942  0.00  0.00    +0.000 A 
ATOM     28  N   UNL     1       4.147  -6.662   5.692  0.00  0.00    +0.000 N 
ATOM     29  C   UNL     1       3.269  -6.659   4.635  0.00  0.00    +0.000 A 
ATOM     30  O   UNL     1       3.635  -6.371   3.499  0.00  0.00    +0.000 OA
ATOM     31  C   UNL     1       1.912  -7.050   4.978  0.00  0.00    +0.000 A 
ATOM     32  H   UNL     1       5.096  -6.383   5.480  0.00  0.00    +0.000 HD
ENDBRANCH  19  22
ENDBRANCH  17  18
ENDBRANCH   5  17
TORSDOF 5
