REMARK  Name = 
REMARK  5 active torsions:
REMARK  status: ('A' for Active; 'I' for Inactive)
REMARK    1  A    between atoms: C_2  and  C_4
REMARK    2  A    between atoms: N_8  and  C_9
REMARK    3  A    between atoms: C_9  and  C_10
REMARK    4  A    between atoms: C_10  and  C_13
REMARK    5  A    between atoms: C_15  and  C_16
REMARK                            x       y       z     vdW  Elec       q    Type
REMARK                         _______ _______ _______ _____ _____    ______ ____
ROOT
ATOM      1  C   UNL     1       6.413  -2.379   6.514  0.00  0.00    +0.000 C 
ATOM      2  F   UNL     1       5.308  -2.602   7.293  0.00  0.00    +0.000 F 
ATOM      3  F   UNL     1       6.880  -3.629   6.198  0.00  0.00    +0.000 F 
ENDROOT
BRANCH   1   4
ATOM      4  C   UNL     1       7.468  -1.559   7.253  0.00  0.00    +0.000 A 
ATOM      5  C   UNL     1       8.397  -2.219   8.062  0.00  0.00    +0.000 A 
ATOM      6  C   UNL     1       9.370  -1.496   8.773  0.00  0.00    +0.000 A 
ATOM      7  C   UNL     1       9.353  -0.103   8.631  0.00  0.00    +0.000 A 
ATOM      8  C   UNL     1       8.394   0.486   7.822  0.00  0.00    +0.000 A 
ATOM      9  N   UNL     1       7.457  -0.204   7.139  0.00  0.00    +0.000 NA
BRANCH   6  10
ATOM     10  C   UNL     1      10.351  -2.181   9.646  0.00  0.00    +0.000 A 
ATOM     11  C   UNL     1      10.830  -3.465   9.342  0.00  0.00    +0.000 A 
ATOM     12  C   UNL     1      11.716  -4.090  10.210  0.00  0.00    +0.000 A 
ATOM     13  N   UNL     1      12.174  -3.530  11.344  0.00  0.00    +0.000 NA
ATOM     14  C   UNL     1      11.722  -2.293  11.621  0.00  0.00    +0.000 A 
ATOM     15  F   UNL     1      12.159  -1.710  12.747  0.00  0.00    +0.000 F 
ATOM     16  C   UNL     1      10.830  -1.594  10.823  0.00  0.00    +0.000 A 
ENDBRANCH   6  10
ENDBRANCH   1   4
BRANCH   1  17
ATOM     17  C   UNL     1       5.959  -1.680   5.214  0.00  0.00    +0.000 C 
BRANCH  17  22
ATOM     18  C   UNL     1       3.698  -0.620   0.998  0.00  0.00    +0.000 A 
ATOM     19  C   UNL     1       4.951  -0.402   1.514  0.00  0.00    +0.000 A 
ATOM     20  N   UNL     1       5.409  -1.001   2.631  0.00  0.00    +0.000 NA
ATOM     21  C   UNL     1       4.578  -1.843   3.268  0.00  0.00    +0.000 A 
ATOM     22  N   UNL     1       5.014  -2.486   4.415  0.00  0.00    +0.000 N 
ATOM     23  N   UNL     1       3.329  -2.103   2.858  0.00  0.00    +0.000 NA
ATOM     24  C   UNL     1       2.911  -1.480   1.728  0.00  0.00    +0.000 A 
ATOM     25  H   UNL     1       4.197  -2.824   4.913  0.00  0.00    +0.000 HD
BRANCH  18  27
ATOM     26  N   UNL     1       4.127   0.389  -1.164  0.00  0.00    +0.000 N 
ATOM     27  C   UNL     1       3.204   0.032  -0.217  0.00  0.00    +0.000 C 
ATOM     28  O   UNL     1       2.008   0.229  -0.390  0.00  0.00    +0.000 OA
ATOM     29  H   UNL     1       3.759   0.756  -2.035  0.00  0.00    +0.000 HD
ATOM     30  H   UNL     1       5.070   0.025  -1.184  0.00  0.00    +0.000 HD
ENDBRANCH  18  27
ENDBRANCH  17  22
ENDBRANCH   1  17
TORSDOF 5
