REMARK  Name = 
REMARK  6 active torsions:
REMARK  status: ('A' for Active; 'I' for Inactive)
REMARK    1  A    between atoms: C_1  and  O_2
REMARK    2  A    between atoms: O_2  and  C_3
REMARK    3  A    between atoms: C_6  and  C_7
REMARK    4  A    between atoms: C_7  and  N_8
REMARK    5  A    between atoms: N_8  and  C_9
REMARK    6  A    between atoms: C_12  and  C_13
REMARK                            x       y       z     vdW  Elec       q    Type
REMARK                         _______ _______ _______ _____ _____    ______ ____
ROOT
ATOM      1  N   UNL     1       4.995  -5.382   1.361  0.00  0.00    +0.000 N 
ATOM      2  H   UNL     1       5.524  -5.056   0.554  0.00  0.00    +0.000 HD
ENDROOT
BRANCH   1   3
ATOM      3  C   UNL     1       3.915  -6.193   0.943  0.00  0.00    +0.000 A 
ATOM      4  C   UNL     1       2.762  -6.405   1.705  0.00  0.00    +0.000 A 
ATOM      5  C   UNL     1       1.787  -7.325   1.294  0.00  0.00    +0.000 A 
ATOM      6  C   UNL     1       1.954  -8.056   0.113  0.00  0.00    +0.000 A 
ATOM      7  C   UNL     1       3.109  -7.866  -0.649  0.00  0.00    +0.000 A 
ATOM      8  C   UNL     1       4.079  -6.950  -0.228  0.00  0.00    +0.000 A 
BRANCH   6   9
ATOM      9  C   UNL     1       0.919  -9.049  -0.262  0.00  0.00    +0.000 C 
ATOM     10  N   UNL     1       0.843  -9.425  -1.576  0.00  0.00    +0.000 N 
ATOM     11  O   UNL     1       0.137  -9.514   0.560  0.00  0.00    +0.000 OA
ATOM     12  H   UNL     1       1.293  -8.910  -2.317  0.00  0.00    +0.000 HD
ATOM     13  H   UNL     1       0.079 -10.038  -1.829  0.00  0.00    +0.000 HD
ENDBRANCH   6   9
ENDBRANCH   1   3
BRANCH   1  14
ATOM     14  C   UNL     1       4.858  -4.319   2.393  0.00  0.00    +0.000 C 
ATOM     15  C   UNL     1       4.750  -4.637   3.875  0.00  0.00    +0.000 C 
ATOM     16  C   UNL     1       6.061  -4.185   3.319  0.00  0.00    +0.000 C 
BRANCH  14  20
ATOM     17  C   UNL     1       2.810  -0.860   0.930  0.00  0.00    +0.000 A 
ATOM     18  C   UNL     1       2.184  -1.865   1.629  0.00  0.00    +0.000 A 
ATOM     19  N   UNL     1       2.820  -2.940   2.132  0.00  0.00    +0.000 NA
ATOM     20  C   UNL     1       4.148  -3.045   1.902  0.00  0.00    +0.000 A 
ATOM     21  N   UNL     1       4.850  -2.122   1.203  0.00  0.00    +0.000 NA
ATOM     22  C   UNL     1       4.160  -1.054   0.740  0.00  0.00    +0.000 A 
BRANCH  17  24
ATOM     23  C   UNL     1       1.017   0.653   1.032  0.00  0.00    +0.000 C 
ATOM     24  O   UNL     1       2.233   0.253   0.403  0.00  0.00    +0.000 OA
ENDBRANCH  17  24
ENDBRANCH  14  20
ENDBRANCH   1  14
TORSDOF 5
