REMARK  Name = 
REMARK  9 active torsions:
REMARK  status: ('A' for Active; 'I' for Inactive)
REMARK    1  A    between atoms: C_1  and  O_2
REMARK    2  A    between atoms: O_2  and  C_3
REMARK    3  A    between atoms: C_10  and  C_11
REMARK    4  A    between atoms: N_13  and  C_14
REMARK    5  A    between atoms: C_14  and  C_15
REMARK    6  A    between atoms: C_18  and  C_19
REMARK    7  A    between atoms: C_19  and  N_20
REMARK    8  A    between atoms: N_20  and  C_21
REMARK    9  A    between atoms: N_20  and  C_22
REMARK                            x       y       z     vdW  Elec       q    Type
REMARK                         _______ _______ _______ _____ _____    ______ ____
ROOT
ATOM      1  C   UNL     1       2.880   2.627   2.219  0.00  0.00    +0.000 C 
ENDROOT
BRANCH   1   2
ATOM      2  C   UNL     1       1.614   3.108   1.553  0.00  0.00    +0.000 A 
ATOM      3  C   UNL     1       0.510   2.255   1.445  0.00  0.00    +0.000 A 
ATOM      4  C   UNL     1      -0.619   2.644   0.719  0.00  0.00    +0.000 A 
ATOM      5  C   UNL     1      -0.675   3.893   0.076  0.00  0.00    +0.000 A 
ATOM      6  C   UNL     1       0.398   4.776   0.249  0.00  0.00    +0.000 A 
ATOM      7  C   UNL     1       1.537   4.382   0.970  0.00  0.00    +0.000 A 
BRANCH   5   8
ATOM      8  C   UNL     1      -1.818   4.188  -0.885  0.00  0.00    +0.000 C 
BRANCH   8   9
ATOM      9  N   UNL     1      -2.955   4.958  -0.364  0.00  0.00    +0.000 N 
ATOM     10  C   UNL     1      -3.368   4.797   1.033  0.00  0.00    +0.000 C 
BRANCH   9  11
ATOM     11  C   UNL     1      -4.063   5.164  -1.218  0.00  0.00    +0.000 A 
ATOM     12  C   UNL     1      -4.405   4.296  -2.272  0.00  0.00    +0.000 A 
ATOM     13  C   UNL     1      -5.585   4.464  -3.012  0.00  0.00    +0.000 A 
ATOM     14  C   UNL     1      -6.439   5.524  -2.730  0.00  0.00    +0.000 A 
ATOM     15  C   UNL     1      -6.095   6.415  -1.726  0.00  0.00    +0.000 A 
ATOM     16  F   UNL     1      -6.909   7.443  -1.452  0.00  0.00    +0.000 F 
ATOM     17  C   UNL     1      -4.927   6.247  -0.981  0.00  0.00    +0.000 A 
ENDBRANCH   9  11
ENDBRANCH   8   9
ENDBRANCH   5   8
ENDBRANCH   1   2
BRANCH   1  20
ATOM     18  C   UNL     1       4.922   1.367   1.693  0.00  0.00    +0.000 C 
ATOM     19  O   UNL     1       5.274   1.432   2.870  0.00  0.00    +0.000 OA
ATOM     20  N   UNL     1       3.742   1.934   1.284  0.00  0.00    +0.000 N 
ATOM     21  H   UNL     1       3.463   1.896   0.314  0.00  0.00    +0.000 HD
BRANCH  18  29
ATOM     22  C   UNL     1       4.563   0.706  -1.683  0.00  0.00    +0.000 A 
ATOM     23  N   UNL     1       4.687   0.304  -2.967  0.00  0.00    +0.000 NA
ATOM     24  C   UNL     1       5.783  -0.371  -3.318  0.00  0.00    +0.000 A 
ATOM     25  N   UNL     1       6.800  -0.703  -2.531  0.00  0.00    +0.000 NA
ATOM     26  C   UNL     1       6.638  -0.291  -1.261  0.00  0.00    +0.000 A 
ATOM     27  S   UNL     1       7.845  -0.633  -0.120  0.00  0.00    +0.000 S 
ATOM     28  C   UNL     1       6.969   0.145   1.108  0.00  0.00    +0.000 A 
ATOM     29  C   UNL     1       5.756   0.680   0.690  0.00  0.00    +0.000 A 
ATOM     30  C   UNL     1       5.562   0.418  -0.735  0.00  0.00    +0.000 A 
BRANCH  22  32
ATOM     31  C   UNL     1       2.532   1.634  -2.404  0.00  0.00    +0.000 C 
ATOM     32  O   UNL     1       3.447   1.429  -1.325  0.00  0.00    +0.000 OA
ENDBRANCH  22  32
ENDBRANCH  18  29
ENDBRANCH   1  20
TORSDOF 7
