REMARK  Name = 
REMARK  9 active torsions:
REMARK  status: ('A' for Active; 'I' for Inactive)
REMARK    1  A    between atoms: C_1  and  O_2
REMARK    2  A    between atoms: O_2  and  C_3
REMARK    3  A    between atoms: C_5  and  C_6
REMARK    4  A    between atoms: C_6  and  N_7
REMARK    5  A    between atoms: C_8  and  C_10
REMARK    6  A    between atoms: C_22  and  C_23
REMARK    7  A    between atoms: C_23  and  N_24
REMARK    8  A    between atoms: N_24  and  C_25
REMARK    9  A    between atoms: C_25  and  C_26
REMARK                            x       y       z     vdW  Elec       q    Type
REMARK                         _______ _______ _______ _____ _____    ______ ____
ROOT
ATOM      1  C   UNL     1       3.252  -0.302   1.077  0.00  0.00    +0.000 A 
ATOM      2  C   UNL     1       2.854  -1.504   1.694  0.00  0.00    +0.000 A 
ATOM      3  C   UNL     1       3.585  -2.059   2.759  0.00  0.00    +0.000 A 
ATOM      4  C   UNL     1       4.720  -1.379   3.208  0.00  0.00    +0.000 A 
ATOM      5  C   UNL     1       5.097  -0.166   2.626  0.00  0.00    +0.000 A 
ATOM      6  C   UNL     1       4.354   0.411   1.578  0.00  0.00    +0.000 A 
ENDROOT
BRANCH   1   8
ATOM      7  C   UNL     1       3.071   0.498  -1.144  0.00  0.00    +0.000 C 
ATOM      8  O   UNL     1       2.421   0.140   0.077  0.00  0.00    +0.000 OA
ENDBRANCH   1   8
BRANCH   3   9
ATOM      9  C   UNL     1       3.144  -3.328   3.446  0.00  0.00    +0.000 C 
BRANCH   9  10
ATOM     10  N   UNL     1       2.288  -3.046   4.576  0.00  0.00    +0.000 N 
ATOM     11  C   UNL     1       1.952  -4.017   5.484  0.00  0.00    +0.000 C 
ATOM     12  O   UNL     1       2.404  -5.158   5.413  0.00  0.00    +0.000 OA
ATOM     13  H   UNL     1       1.751  -2.188   4.540  0.00  0.00    +0.000 HD
BRANCH  11  14
ATOM     14  C   UNL     1       1.064  -3.615   6.591  0.00  0.00    +0.000 A 
ATOM     15  C   UNL     1       0.993  -4.404   7.733  0.00  0.00    +0.000 A 
ATOM     16  S   UNL     1      -0.021  -3.766   8.946  0.00  0.00    +0.000 S 
ATOM     17  C   UNL     1      -0.448  -2.441   7.970  0.00  0.00    +0.000 A 
ATOM     18  N   UNL     1      -1.319  -1.496   8.420  0.00  0.00    +0.000 NA
ATOM     19  C   UNL     1      -1.582  -0.564   7.567  0.00  0.00    +0.000 A 
ATOM     20  N   UNL     1      -1.052  -0.490   6.305  0.00  0.00    +0.000 N 
ATOM     21  C   UNL     1      -0.147  -1.404   5.819  0.00  0.00    +0.000 A 
ATOM     22  O   UNL     1       0.335  -1.286   4.697  0.00  0.00    +0.000 OA
ATOM     23  C   UNL     1       0.181  -2.479   6.738  0.00  0.00    +0.000 A 
ATOM     24  H   UNL     1      -1.300   0.266   5.685  0.00  0.00    +0.000 HD
ENDBRANCH  11  14
ENDBRANCH   9  10
ENDBRANCH   3   9
BRANCH   6  25
ATOM     25  C   UNL     1       4.766   1.791   1.111  0.00  0.00    +0.000 C 
BRANCH  25  26
ATOM     26  N   UNL     1       3.709   2.803   1.183  0.00  0.00    +0.000 NA
ATOM     27  H   UNL     1       2.895   2.463   0.670  0.00  0.00    +0.000 HD
BRANCH  26  28
ATOM     28  C   UNL     1       3.276   3.082   2.548  0.00  0.00    +0.000 C 
BRANCH  28  29
ATOM     29  C   UNL     1       2.179   4.118   2.532  0.00  0.00    +0.000 A 
ATOM     30  C   UNL     1       0.838   3.738   2.413  0.00  0.00    +0.000 A 
ATOM     31  C   UNL     1      -0.131   4.729   2.375  0.00  0.00    +0.000 A 
ATOM     32  N   UNL     1       0.139   6.048   2.441  0.00  0.00    +0.000 NA
ATOM     33  C   UNL     1       1.443   6.395   2.531  0.00  0.00    +0.000 A 
ATOM     34  C   UNL     1       2.484   5.480   2.575  0.00  0.00    +0.000 A 
ENDBRANCH  28  29
ENDBRANCH  26  28
ENDBRANCH  25  26
ENDBRANCH   6  25
TORSDOF 8
