REMARK  Name = 
REMARK  5 active torsions:
REMARK  status: ('A' for Active; 'I' for Inactive)
REMARK    1  A    between atoms: C_2  and  C_4
REMARK    2  A    between atoms: C_2  and  C_13
REMARK    3  A    between atoms: C_4  and  N_5
REMARK    4  A    between atoms: C_17  and  O_18
REMARK    5  A    between atoms: O_18  and  C_19
REMARK                            x       y       z     vdW  Elec       q    Type
REMARK                         _______ _______ _______ _____ _____    ______ ____
ROOT
ATOM      1  F   UNL     1       3.179   0.903   0.130  0.00  0.00    +0.000 F 
ATOM      2  C   UNL     1       2.204  -0.056   0.117  0.00  0.00    +0.000 C 
ATOM      3  F   UNL     1       2.039  -0.407   1.434  0.00  0.00    +0.000 F 
ENDROOT
BRANCH   2   4
ATOM      4  C   UNL     1       2.599  -1.241  -0.731  0.00  0.00    +0.000 A 
ATOM      5  C   UNL     1       2.205  -2.538  -0.384  0.00  0.00    +0.000 A 
ATOM      6  C   UNL     1       2.594  -3.591  -1.194  0.00  0.00    +0.000 A 
ATOM      7  N   UNL     1       3.336  -3.443  -2.311  0.00  0.00    +0.000 NA
ATOM      8  C   UNL     1       3.709  -2.187  -2.629  0.00  0.00    +0.000 A 
ATOM      9  C   UNL     1       3.371  -1.069  -1.886  0.00  0.00    +0.000 A 
BRANCH   8  10
ATOM     10  O   UNL     1       4.451  -1.975  -3.775  0.00  0.00    +0.000 OA
BRANCH  10  11
ATOM     11  C   UNL     1       5.093  -3.140  -4.340  0.00  0.00    +0.000 C 
ATOM     12  C   UNL     1       6.353  -3.646  -3.599  0.00  0.00    +0.000 C 
ATOM     13  C   UNL     1       7.091  -3.720  -4.941  0.00  0.00    +0.000 C 
ATOM     14  C   UNL     1       5.994  -2.849  -5.563  0.00  0.00    +0.000 C 
ENDBRANCH  10  11
ENDBRANCH   8  10
ENDBRANCH   2   4
BRANCH   2  15
ATOM     15  C   UNL     1       0.875   0.585  -0.363  0.00  0.00    +0.000 C 
BRANCH  15  16
ATOM     16  N   UNL     1       0.479   1.716   0.502  0.00  0.00    +0.000 N 
ATOM     17  C   UNL     1      -0.721   2.349   0.177  0.00  0.00    +0.000 A 
ATOM     18  C   UNL     1      -1.156   3.437   0.946  0.00  0.00    +0.000 A 
ATOM     19  N   UNL     1      -2.274   4.164   0.688  0.00  0.00    +0.000 NA
ATOM     20  C   UNL     1      -2.953   3.766  -0.402  0.00  0.00    +0.000 A 
ATOM     21 CL   UNL     1      -4.348   4.681  -0.773  0.00  0.00    +0.000 Cl
ATOM     22  C   UNL     1      -2.544   2.696  -1.182  0.00  0.00    +0.000 A 
ATOM     23  N   UNL     1      -1.428   1.971  -0.911  0.00  0.00    +0.000 NA
ATOM     24  H   UNL     1       0.511   1.469   1.491  0.00  0.00    +0.000 HD
ENDBRANCH  15  16
ENDBRANCH   2  15
TORSDOF 5
