REMARK  Name = 
REMARK  6 active torsions:
REMARK  status: ('A' for Active; 'I' for Inactive)
REMARK    1  A    between atoms: N_1  and  C_2
REMARK    2  A    between atoms: C_2  and  C_3
REMARK    3  A    between atoms: C_3  and  O_4
REMARK    4  A    between atoms: O_4  and  C_5
REMARK    5  A    between atoms: C_8  and  C_9
REMARK    6  A    between atoms: C_9  and  C_10
REMARK                            x       y       z     vdW  Elec       q    Type
REMARK                         _______ _______ _______ _____ _____    ______ ____
ROOT
ATOM      1  C   UNL     1       5.113  -1.995  -1.922  0.00  0.00    +0.000 A 
ATOM      2  C   UNL     1       4.811  -2.372  -3.231  0.00  0.00    +0.000 A 
ATOM      3  C   UNL     1       5.597  -3.333  -3.882  0.00  0.00    +0.000 A 
ATOM      4  C   UNL     1       6.690  -3.922  -3.237  0.00  0.00    +0.000 A 
ATOM      5  C   UNL     1       6.982  -3.545  -1.921  0.00  0.00    +0.000 A 
ATOM      6  C   UNL     1       6.193  -2.592  -1.270  0.00  0.00    +0.000 A 
ENDROOT
BRANCH   1   7
ATOM      7  O   UNL     1       4.426  -1.077  -1.175  0.00  0.00    +0.000 OA
BRANCH   7   8
ATOM      8  C   UNL     1       3.431  -0.311  -1.859  0.00  0.00    +0.000 C 
BRANCH   8   9
ATOM      9  C   UNL     1       2.920   0.777  -0.908  0.00  0.00    +0.000 C 
BRANCH   9  10
ATOM     10  N   UNL     1       1.866   1.588  -1.514  0.00  0.00    +0.000 NA
ATOM     11  H   UNL     1       1.571   2.300  -0.847  0.00  0.00    +0.000 HD
ATOM     12  H   UNL     1       1.046   1.007  -1.688  0.00  0.00    +0.000 HD
ENDBRANCH   9  10
ENDBRANCH   8   9
ENDBRANCH   7   8
ENDBRANCH   1   7
BRANCH   4  13
ATOM     13  C   UNL     1       7.468  -5.017  -3.911  0.00  0.00    +0.000 C 
BRANCH  13  14
ATOM     14  C   UNL     1       8.628  -4.443  -4.650  0.00  0.00    +0.000 A 
ATOM     15  C   UNL     1       8.667  -3.368  -5.519  0.00  0.00    +0.000 A 
ATOM     16  O   UNL     1       9.810  -3.377  -6.254  0.00  0.00    +0.000 OA
ATOM     17  C   UNL     1      10.538  -4.448  -5.842  0.00  0.00    +0.000 A 
ATOM     18  C   UNL     1      11.709  -4.912  -6.434  0.00  0.00    +0.000 A 
ATOM     19  C   UNL     1      12.277  -6.042  -5.850  0.00  0.00    +0.000 A 
ATOM     20  F   UNL     1      13.358  -6.594  -6.419  0.00  0.00    +0.000 F 
ATOM     21  C   UNL     1      11.749  -6.630  -4.702  0.00  0.00    +0.000 A 
ATOM     22  C   UNL     1      10.562  -6.147  -4.139  0.00  0.00    +0.000 A 
ATOM     23  C   UNL     1       9.915  -5.062  -4.762  0.00  0.00    +0.000 A 
ENDBRANCH  13  14
ENDBRANCH   4  13
TORSDOF 6
