REMARK  Name = 
REMARK  7 active torsions:
REMARK  status: ('A' for Active; 'I' for Inactive)
REMARK    1  A    between atoms: C_1  and  O_2
REMARK    2  A    between atoms: O_2  and  C_3
REMARK    3  A    between atoms: C_3  and  C_5
REMARK    4  A    between atoms: N_9  and  C_10
REMARK    5  A    between atoms: C_10  and  C_11
REMARK    6  A    between atoms: CA_15  and  C_16
REMARK    7  A    between atoms: C_16  and  O_17
REMARK                            x       y       z     vdW  Elec       q    Type
REMARK                         _______ _______ _______ _____ _____    ______ ____
ROOT
ATOM      1  C   UNL     1       4.654  -1.303   0.210  0.00  0.00    +0.000 A 
ATOM      2  C   UNL     1       5.423  -0.618   1.121  0.00  0.00    +0.000 A 
ATOM      3  N   UNL     1       6.776  -0.560   1.066  0.00  0.00    +0.000 NA
ATOM      4  C   UNL     1       7.376  -1.208   0.059  0.00  0.00    +0.000 A 
ATOM      5  N   UNL     1       8.746  -1.065  -0.035  0.00  0.00    +0.000 N 
ATOM      6  N   UNL     1       6.711  -1.917  -0.864  0.00  0.00    +0.000 NA
ATOM      7  C   UNL     1       5.363  -1.948  -0.773  0.00  0.00    +0.000 A 
ATOM      8  H   UNL     1       9.086  -0.698   0.845  0.00  0.00    +0.000 HD
ENDROOT
BRANCH   1   9
ATOM      9  C   UNL     1       3.188  -1.320   0.310  0.00  0.00    +0.000 C 
ATOM     10  O   UNL     1       2.564  -0.725   1.175  0.00  0.00    +0.000 OA
BRANCH   9  12
ATOM     11  C   UNL     1       1.237  -2.177  -0.674  0.00  0.00    +0.000 C 
ATOM     12  O   UNL     1       2.664  -2.079  -0.681  0.00  0.00    +0.000 OA
ENDBRANCH   9  12
ENDBRANCH   1   9
BRANCH   5  13
ATOM     13  C   UNL     1       9.475  -2.199  -0.562  0.00  0.00    +0.000 C 
BRANCH  13  14
ATOM     14  C   UNL     1      10.772  -1.717  -1.168  0.00  0.00    +0.000 A 
ATOM     15  C   UNL     1      12.010  -2.167  -0.710  0.00  0.00    +0.000 A 
ATOM     16  C   UNL     1      13.156  -1.712  -1.348  0.00  0.00    +0.000 A 
ATOM     17  N   UNL     1      13.153  -0.852  -2.391  0.00  0.00    +0.000 NA
ATOM     18  CA  UNL     1      11.945  -0.404  -2.820  0.00  0.00    +0.000 A 
ATOM     19  C   UNL     1      10.748  -0.819  -2.244  0.00  0.00    +0.000 A 
BRANCH  18  20
ATOM     20  C   UNL     1      11.942   0.596  -3.953  0.00  0.00    +0.000 C 
BRANCH  20  21
ATOM     21  O   UNL     1      12.684   0.106  -5.067  0.00  0.00    +0.000 OA
ATOM     22  H   UNL     1      13.434  -0.381  -4.675  0.00  0.00    +0.000 HD
ENDBRANCH  20  21
ENDBRANCH  18  20
ENDBRANCH  13  14
ENDBRANCH   5  13
TORSDOF 6
