REMARK  Name = 
REMARK  7 active torsions:
REMARK  status: ('A' for Active; 'I' for Inactive)
REMARK    1  A    between atoms: C_2  and  C_4
REMARK    2  A    between atoms: C_7  and  N_8
REMARK    3  A    between atoms: N_8  and  C_9
REMARK    4  A    between atoms: C_9  and  C_10
REMARK    5  A    between atoms: C_10  and  C_13
REMARK    6  A    between atoms: C_17  and  N_18
REMARK    7  A    between atoms: N_18  and  C_19
REMARK                            x       y       z     vdW  Elec       q    Type
REMARK                         _______ _______ _______ _____ _____    ______ ____
ROOT
ATOM      1  C   UNL     1       5.815  -1.239  -7.278  0.00  0.00    +0.000 C 
ATOM      2  F   UNL     1       7.119  -0.969  -6.975  0.00  0.00    +0.000 F 
ATOM      3  F   UNL     1       5.729  -2.605  -7.298  0.00  0.00    +0.000 F 
ENDROOT
BRANCH   1   4
ATOM      4  C   UNL     1       5.402  -0.623  -8.589  0.00  0.00    +0.000 A 
ATOM      5  C   UNL     1       4.475  -1.264  -9.400  0.00  0.00    +0.000 A 
ATOM      6  N   UNL     1       4.051  -0.775 -10.584  0.00  0.00    +0.000 NA
ATOM      7  C   UNL     1       4.591   0.403 -10.981  0.00  0.00    +0.000 A 
ATOM      8  C   UNL     1       5.510   1.154 -10.247  0.00  0.00    +0.000 A 
ATOM      9  C   UNL     1       5.920   0.607  -9.030  0.00  0.00    +0.000 A 
BRANCH   8  10
ATOM     10  N   UNL     1       6.041   2.350 -10.770  0.00  0.00    +0.000 N 
ATOM     11  H   UNL     1       5.561   2.650 -11.616  0.00  0.00    +0.000 HD
BRANCH  10  12
ATOM     12  C   UNL     1       6.547   3.462 -10.007  0.00  0.00    +0.000 C 
ATOM     13  C   UNL     1       5.502   4.577  -9.765  0.00  0.00    +0.000 C 
ATOM     14  N   UNL     1       6.530   5.581 -10.130  0.00  0.00    +0.000 NA
ATOM     15  C   UNL     1       7.251   4.525 -10.883  0.00  0.00    +0.000 C 
ATOM     16  H   UNL     1       7.056   5.929  -9.327  0.00  0.00    +0.000 HD
ENDBRANCH  10  12
ENDBRANCH   8  10
ENDBRANCH   1   4
BRANCH   1  17
ATOM     17  C   UNL     1       4.913  -0.725  -6.125  0.00  0.00    +0.000 C 
BRANCH  17  18
ATOM     18  N   UNL     1       5.282  -1.280  -4.808  0.00  0.00    +0.000 N 
ATOM     19  H   UNL     1       5.644  -2.233  -4.845  0.00  0.00    +0.000 HD
BRANCH  18  23
ATOM     20  C   UNL     1       3.170  -0.357  -1.254  0.00  0.00    +0.000 A 
ATOM     21  C   UNL     1       4.180  -1.330  -1.282  0.00  0.00    +0.000 A 
ATOM     22  C   UNL     1       4.847  -1.640  -2.474  0.00  0.00    +0.000 A 
ATOM     23  C   UNL     1       4.524  -1.001  -3.675  0.00  0.00    +0.000 A 
ATOM     24  C   UNL     1       3.547   0.001  -3.627  0.00  0.00    +0.000 A 
ATOM     25  C   UNL     1       2.868   0.320  -2.439  0.00  0.00    +0.000 A 
ATOM     26 CL   UNL     1       1.717   1.609  -2.547  0.00  0.00    +0.000 Cl
BRANCH  20  28
ATOM     27  N   UNL     1       1.226   0.309   0.081  0.00  0.00    +0.000 N 
ATOM     28  C   UNL     1       2.521  -0.118   0.063  0.00  0.00    +0.000 C 
ATOM     29  O   UNL     1       3.114  -0.340   1.112  0.00  0.00    +0.000 OA
ATOM     30  H   UNL     1       0.812   0.513   0.980  0.00  0.00    +0.000 HD
ATOM     31  H   UNL     1       0.725   0.589  -0.753  0.00  0.00    +0.000 HD
ENDBRANCH  20  28
ENDBRANCH  18  23
ENDBRANCH  17  18
ENDBRANCH   1  17
TORSDOF 7
