REMARK  Name = 
REMARK  6 active torsions:
REMARK  status: ('A' for Active; 'I' for Inactive)
REMARK    1  A    between atoms: C_1  and  O_2
REMARK    2  A    between atoms: O_2  and  C_3
REMARK    3  A    between atoms: C_7  and  N_8
REMARK    4  A    between atoms: N_8  and  C_9
REMARK    5  A    between atoms: C_9  and  C_10
REMARK    6  A    between atoms: C_14  and  C_15
REMARK                            x       y       z     vdW  Elec       q    Type
REMARK                         _______ _______ _______ _____ _____    ______ ____
ROOT
ATOM      1  C   UNL     1       1.653   6.040  -2.687  0.00  0.00    +0.000 A 
ATOM      2  C   UNL     1       0.659   6.283  -3.636  0.00  0.00    +0.000 A 
ATOM      3  C   UNL     1       0.439   7.578  -4.099  0.00  0.00    +0.000 A 
ATOM      4  C   UNL     1       1.216   8.637  -3.618  0.00  0.00    +0.000 A 
ATOM      5  C   UNL     1       2.227   8.433  -2.665  0.00  0.00    +0.000 A 
ATOM      6  C   UNL     1       2.442   7.113  -2.227  0.00  0.00    +0.000 A 
ENDROOT
BRANCH   5   7
ATOM      7  C   UNL     1       3.009   9.560  -2.110  0.00  0.00    +0.000 A 
ATOM      8  C   UNL     1       4.362   9.439  -1.756  0.00  0.00    +0.000 A 
ATOM      9  C   UNL     1       5.053  10.517  -1.202  0.00  0.00    +0.000 A 
ATOM     10  C   UNL     1       4.377  11.709  -1.019  0.00  0.00    +0.000 A 
ATOM     11  N   UNL     1       3.082  11.886  -1.344  0.00  0.00    +0.000 NA
ATOM     12  C   UNL     1       2.437  10.814  -1.871  0.00  0.00    +0.000 A 
ENDBRANCH   5   7
BRANCH   1  13
ATOM     13  C   UNL     1       1.864   4.655  -2.128  0.00  0.00    +0.000 C 
BRANCH  13  14
ATOM     14  N   UNL     1       2.832   3.919  -2.923  0.00  0.00    +0.000 N 
ATOM     15  H   UNL     1       2.737   4.062  -3.926  0.00  0.00    +0.000 HD
BRANCH  14  20
ATOM     16  C   UNL     1       3.179   0.721  -1.029  0.00  0.00    +0.000 A 
ATOM     17  C   UNL     1       4.009   0.059  -1.920  0.00  0.00    +0.000 A 
ATOM     18  N   UNL     1       4.409   0.571  -3.109  0.00  0.00    +0.000 NA
ATOM     19  C   UNL     1       3.971   1.821  -3.397  0.00  0.00    +0.000 A 
ATOM     20  C   UNL     1       3.135   2.594  -2.581  0.00  0.00    +0.000 A 
ATOM     21  C   UNL     1       2.774   2.013  -1.360  0.00  0.00    +0.000 A 
BRANCH  16  23
ATOM     22  C   UNL     1       1.597   0.399   0.687  0.00  0.00    +0.000 C 
ATOM     23  O   UNL     1       2.872   0.075   0.137  0.00  0.00    +0.000 OA
ENDBRANCH  16  23
ENDBRANCH  14  20
ENDBRANCH  13  14
ENDBRANCH   1  13
TORSDOF 5
