REMARK  Name = 
REMARK  5 active torsions:
REMARK  status: ('A' for Active; 'I' for Inactive)
REMARK    1  A    between atoms: C_2  and  C_3
REMARK    2  A    between atoms: N_7  and  C_8
REMARK    3  A    between atoms: C_8  and  C_9
REMARK    4  A    between atoms: C_13  and  C_14
REMARK    5  A    between atoms: C_18  and  C_19
REMARK                            x       y       z     vdW  Elec       q    Type
REMARK                         _______ _______ _______ _____ _____    ______ ____
ROOT
ATOM      1  C   UNL     1       5.376   0.087   0.021  0.00  0.00    +0.000 A 
ATOM      2  C   UNL     1       5.880  -0.406   1.231  0.00  0.00    +0.000 A 
ATOM      3  C   UNL     1       6.586  -1.606   1.267  0.00  0.00    +0.000 A 
ATOM      4  C   UNL     1       6.817  -2.315   0.086  0.00  0.00    +0.000 A 
ATOM      5  C   UNL     1       6.399  -1.818  -1.159  0.00  0.00    +0.000 A 
ATOM      6  C   UNL     1       5.724  -0.589  -1.165  0.00  0.00    +0.000 A 
ENDROOT
BRANCH   5   7
ATOM      7  C   UNL     1       6.541  -2.601  -2.403  0.00  0.00    +0.000 A 
ATOM      8  C   UNL     1       6.833  -1.995  -3.639  0.00  0.00    +0.000 A 
ATOM      9  C   UNL     1       6.917  -2.745  -4.817  0.00  0.00    +0.000 A 
ATOM     10  C   UNL     1       6.725  -4.124  -4.781  0.00  0.00    +0.000 A 
ATOM     11  C   UNL     1       6.433  -4.750  -3.569  0.00  0.00    +0.000 A 
ATOM     12  C   UNL     1       6.330  -3.991  -2.397  0.00  0.00    +0.000 A 
BRANCH  11  13
ATOM     13  C   UNL     1       6.240  -6.169  -3.513  0.00  0.00    +0.000 C 
ATOM     14  N   UNL     1       6.092  -7.319  -3.454  0.00  0.00    +0.000 NA
ENDBRANCH  11  13
ENDBRANCH   5   7
BRANCH   1  15
ATOM     15  C   UNL     1       4.324   1.186  -0.035  0.00  0.00    +0.000 C 
ATOM     16  C   UNL     1       2.964   0.687  -0.520  0.00  0.00    +0.000 C 
ATOM     17  C   UNL     1       3.128   1.122   0.897  0.00  0.00    +0.000 C 
BRANCH  15  22
ATOM     18  C   UNL     1       6.783   5.072   1.962  0.00  0.00    +0.000 A 
ATOM     19  C   UNL     1       7.002   5.022   0.608  0.00  0.00    +0.000 A 
ATOM     20  N   UNL     1       6.342   4.186  -0.221  0.00  0.00    +0.000 NA
ATOM     21  C   UNL     1       5.434   3.365   0.333  0.00  0.00    +0.000 A 
ATOM     22  N   UNL     1       4.799   2.481  -0.540  0.00  0.00    +0.000 N 
ATOM     23  N   UNL     1       5.141   3.362   1.644  0.00  0.00    +0.000 NA
ATOM     24  C   UNL     1       5.822   4.214   2.434  0.00  0.00    +0.000 A 
ATOM     25  H   UNL     1       5.350   2.485  -1.391  0.00  0.00    +0.000 HD
BRANCH  18  27
ATOM     26  N   UNL     1       8.120   6.624   3.532  0.00  0.00    +0.000 NA
ATOM     27  C   UNL     1       7.518   5.930   2.825  0.00  0.00    +0.000 C 
ENDBRANCH  18  27
ENDBRANCH  15  22
ENDBRANCH   1  15
TORSDOF 5
