REMARK  Name = 
REMARK  10 active torsions:
REMARK  status: ('A' for Active; 'I' for Inactive)
REMARK    1  A    between atoms: C_1  and  C_2
REMARK    2  A    between atoms: C_2  and  O_3
REMARK    3  A    between atoms: O_3  and  C_4
REMARK    4  A    between atoms: C_4  and  C_5
REMARK    5  A    between atoms: C_5  and  C_6
REMARK    6  A    between atoms: C_6  and  N_7
REMARK    7  A    between atoms: C_6  and  C_20
REMARK    8  A    between atoms: C_8  and  C_10
REMARK    9  A    between atoms: C_23  and  O_24
REMARK   10  A    between atoms: O_24  and  C_25
REMARK                            x       y       z     vdW  Elec       q    Type
REMARK                         _______ _______ _______ _____ _____    ______ ____
ROOT
ATOM      1  C   UNL     1       6.274  -1.522  -2.182  0.00  0.00    +0.000 C 
ENDROOT
BRANCH   1   2
ATOM      2  C   UNL     1       6.871  -2.321  -3.341  0.00  0.00    +0.000 A 
ATOM      3  C   UNL     1       7.248  -1.653  -4.517  0.00  0.00    +0.000 A 
ATOM      4  C   UNL     1       7.616  -2.371  -5.656  0.00  0.00    +0.000 A 
ATOM      5  C   UNL     1       7.708  -3.763  -5.611  0.00  0.00    +0.000 A 
ATOM      6  C   UNL     1       7.364  -4.438  -4.441  0.00  0.00    +0.000 A 
ATOM      7  C   UNL     1       6.935  -3.724  -3.318  0.00  0.00    +0.000 A 
BRANCH   5   8
ATOM      8  O   UNL     1       8.034  -4.547  -6.695  0.00  0.00    +0.000 OA
BRANCH   8   9
ATOM      9  C   UNL     1       8.970  -4.068  -7.603  0.00  0.00    +0.000 A 
ATOM     10  C   UNL     1       8.892  -4.567  -8.894  0.00  0.00    +0.000 A 
ATOM     11  C   UNL     1       9.804  -4.099  -9.834  0.00  0.00    +0.000 A 
ATOM     12  C   UNL     1      10.756  -3.157  -9.451  0.00  0.00    +0.000 A 
ATOM     13  C   UNL     1      10.773  -2.739  -8.137  0.00  0.00    +0.000 A 
ATOM     14  N   UNL     1       9.911  -3.182  -7.200  0.00  0.00    +0.000 NA
ENDBRANCH   8   9
ENDBRANCH   5   8
ENDBRANCH   1   2
BRANCH   1  15
ATOM     15  N   UNL     1       6.721  -2.077  -0.913  0.00  0.00    +0.000 N 
ATOM     16  C   UNL     1       6.440  -1.504   0.301  0.00  0.00    +0.000 C 
ATOM     17  O   UNL     1       5.700  -0.535   0.427  0.00  0.00    +0.000 OA
ATOM     18  H   UNL     1       7.563  -2.643  -0.965  0.00  0.00    +0.000 HD
BRANCH  16  19
ATOM     19  C   UNL     1       7.054  -2.143   1.470  0.00  0.00    +0.000 A 
ATOM     20  C   UNL     1       6.415  -2.094   2.701  0.00  0.00    +0.000 A 
ATOM     21  S   UNL     1       7.293  -2.849   3.954  0.00  0.00    +0.000 S 
ATOM     22  C   UNL     1       8.577  -3.228   2.904  0.00  0.00    +0.000 A 
ATOM     23  N   UNL     1       9.705  -3.833   3.360  0.00  0.00    +0.000 NA
ATOM     24  C   UNL     1      10.608  -4.027   2.456  0.00  0.00    +0.000 A 
ATOM     25  N   UNL     1      10.476  -3.699   1.131  0.00  0.00    +0.000 N 
ATOM     26  C   UNL     1       9.331  -3.140   0.615  0.00  0.00    +0.000 A 
ATOM     27  O   UNL     1       9.196  -2.951  -0.589  0.00  0.00    +0.000 OA
ATOM     28  C   UNL     1       8.311  -2.839   1.601  0.00  0.00    +0.000 A 
ATOM     29  H   UNL     1      11.204  -3.914   0.468  0.00  0.00    +0.000 HD
ENDBRANCH  16  19
ENDBRANCH   1  15
BRANCH   1  30
ATOM     30  C   UNL     1       4.733  -1.468  -2.316  0.00  0.00    +0.000 C 
BRANCH  30  31
ATOM     31  C   UNL     1       4.309  -0.829  -3.637  0.00  0.00    +0.000 C 
BRANCH  31  32
ATOM     32  O   UNL     1       2.890  -0.719  -3.740  0.00  0.00    +0.000 OA
BRANCH  32  34
ATOM     33  C   UNL     1       1.043  -0.138  -5.166  0.00  0.00    +0.000 C 
ATOM     34  C   UNL     1       2.547  -0.200  -5.029  0.00  0.00    +0.000 C 
ENDBRANCH  32  34
ENDBRANCH  31  32
ENDBRANCH  30  31
ENDBRANCH   1  30
TORSDOF 9
