REMARK  Name = 
REMARK  8 active torsions:
REMARK  status: ('A' for Active; 'I' for Inactive)
REMARK    1  A    between atoms: C_1  and  C_2
REMARK    2  A    between atoms: C_2  and  C_3
REMARK    3  A    between atoms: C_2  and  N_25
REMARK    4  A    between atoms: C_3  and  O_4
REMARK    5  A    between atoms: O_4  and  C_5
REMARK    6  A    between atoms: C_8  and  C_9
REMARK    7  A    between atoms: C_9  and  N_10
REMARK    8  A    between atoms: C_11  and  C_13
REMARK                            x       y       z     vdW  Elec       q    Type
REMARK                         _______ _______ _______ _____ _____    ______ ____
ROOT
ATOM      1  C   UNL     1      -0.839  -0.642  -1.374  0.00  0.00    +0.000 A 
ATOM      2  C   UNL     1      -1.570   0.489  -1.052  0.00  0.00    +0.000 A 
ATOM      3  C   UNL     1      -2.960   0.408  -1.091  0.00  0.00    +0.000 A 
ATOM      4  C   UNL     1      -3.573  -0.795  -1.457  0.00  0.00    +0.000 A 
ATOM      5  C   UNL     1      -2.743  -1.851  -1.816  0.00  0.00    +0.000 A 
ATOM      6  N   UNL     1      -1.395  -1.803  -1.783  0.00  0.00    +0.000 NA
ENDROOT
BRANCH   1   7
ATOM      7  O   UNL     1       0.535  -0.566  -1.249  0.00  0.00    +0.000 OA
BRANCH   7   8
ATOM      8  C   UNL     1       1.088  -1.845  -0.894  0.00  0.00    +0.000 C 
BRANCH   8  10
ATOM      9  C   UNL     1       2.176  -0.725   1.098  0.00  0.00    +0.000 C 
ATOM     10  C   UNL     1       2.407  -1.678  -0.090  0.00  0.00    +0.000 C 
BRANCH  10  11
ATOM     11  N   UNL     1       3.029  -2.986   0.275  0.00  0.00    +0.000 NA
ATOM     12  C   UNL     1       4.310  -2.821   0.981  0.00  0.00    +0.000 C 
ATOM     13  C   UNL     1       5.008  -4.157   1.244  0.00  0.00    +0.000 C 
ATOM     14  C   UNL     1       4.097  -5.116   2.000  0.00  0.00    +0.000 C 
ATOM     15  C   UNL     1       2.776  -5.260   1.262  0.00  0.00    +0.000 C 
ATOM     16  C   UNL     1       2.132  -3.896   1.005  0.00  0.00    +0.000 C 
ENDBRANCH  10  11
ENDBRANCH   8  10
ENDBRANCH   7   8
ENDBRANCH   1   7
BRANCH   4  17
ATOM     17  C   UNL     1      -5.064  -0.945  -1.519  0.00  0.00    +0.000 C 
BRANCH  17  18
ATOM     18  N   UNL     1      -5.560  -0.601  -2.826  0.00  0.00    +0.000 N 
ATOM     19  C   UNL     1      -6.902  -0.589  -3.099  0.00  0.00    +0.000 C 
ATOM     20  O   UNL     1      -7.744  -0.820  -2.235  0.00  0.00    +0.000 OA
ATOM     21  H   UNL     1      -4.899  -0.631  -3.596  0.00  0.00    +0.000 HD
BRANCH  19  22
ATOM     22  C   UNL     1      -7.286  -0.223  -4.469  0.00  0.00    +0.000 A 
ATOM     23  C   UNL     1      -8.553   0.287  -4.715  0.00  0.00    +0.000 A 
ATOM     24  S   UNL     1      -8.813   0.714  -6.345  0.00  0.00    +0.000 S 
ATOM     25  C   UNL     1      -7.259   0.181  -6.790  0.00  0.00    +0.000 A 
ATOM     26  N   UNL     1      -6.841   0.245  -8.083  0.00  0.00    +0.000 NA
ATOM     27  C   UNL     1      -5.654  -0.224  -8.283  0.00  0.00    +0.000 A 
ATOM     28  N   UNL     1      -4.844  -0.746  -7.308  0.00  0.00    +0.000 N 
ATOM     29  C   UNL     1      -5.213  -0.800  -5.984  0.00  0.00    +0.000 A 
ATOM     30  O   UNL     1      -4.449  -1.227  -5.125  0.00  0.00    +0.000 OA
ATOM     31  C   UNL     1      -6.546  -0.299  -5.706  0.00  0.00    +0.000 A 
ATOM     32  H   UNL     1      -3.921  -1.086  -7.529  0.00  0.00    +0.000 HD
ENDBRANCH  19  22
ENDBRANCH  17  18
ENDBRANCH   4  17
TORSDOF 7
