REMARK  Name = 
REMARK  7 active torsions:
REMARK  status: ('A' for Active; 'I' for Inactive)
REMARK    1  A    between atoms: C_1  and  O_2
REMARK    2  A    between atoms: O_2  and  C_3
REMARK    3  A    between atoms: C_5  and  C_6
REMARK    4  A    between atoms: C_6  and  N_7
REMARK    5  A    between atoms: N_7  and  C_8
REMARK    6  A    between atoms: C_11  and  C_12
REMARK    7  A    between atoms: C_21  and  C_22
REMARK                            x       y       z     vdW  Elec       q    Type
REMARK                         _______ _______ _______ _____ _____    ______ ____
ROOT
ATOM      1  C   UNL     1       3.219   0.433  -4.709  0.00  0.00    +0.000 C 
ATOM      2  C   UNL     1       3.270   1.910  -5.054  0.00  0.00    +0.000 C 
ATOM      3  C   UNL     1       1.940   1.250  -4.920  0.00  0.00    +0.000 C 
ENDROOT
BRANCH   1   6
ATOM      4  C   UNL     1       5.193  -0.062  -1.418  0.00  0.00    +0.000 A 
ATOM      5  C   UNL     1       4.867   0.214  -2.758  0.00  0.00    +0.000 A 
ATOM      6  C   UNL     1       3.567   0.033  -3.274  0.00  0.00    +0.000 A 
ATOM      7  C   UNL     1       2.605  -0.499  -2.403  0.00  0.00    +0.000 A 
ATOM      8  C   UNL     1       2.903  -0.762  -1.064  0.00  0.00    +0.000 A 
ATOM      9  C   UNL     1       4.189  -0.529  -0.552  0.00  0.00    +0.000 A 
BRANCH   9  10
ATOM     10  C   UNL     1       4.365  -0.751   0.920  0.00  0.00    +0.000 C 
ATOM     11  N   UNL     1       5.583  -0.485   1.475  0.00  0.00    +0.000 N 
ATOM     12  O   UNL     1       3.442  -1.135   1.629  0.00  0.00    +0.000 OA
ATOM     13  H   UNL     1       6.375  -0.221   0.901  0.00  0.00    +0.000 HD
ATOM     14  H   UNL     1       5.708  -0.633   2.466  0.00  0.00    +0.000 HD
ENDBRANCH   9  10
BRANCH   4  16
ATOM     15  C   UNL     1       7.350   0.953  -1.593  0.00  0.00    +0.000 C 
ATOM     16  O   UNL     1       6.468   0.059  -0.924  0.00  0.00    +0.000 OA
ENDBRANCH   4  16
ENDBRANCH   1   6
BRANCH   1  17
ATOM     17  N   UNL     1       3.391  -0.628  -5.707  0.00  0.00    +0.000 N 
ATOM     18  H   UNL     1       2.676  -1.348  -5.715  0.00  0.00    +0.000 HD
BRANCH  17  19
ATOM     19  C   UNL     1       4.555  -0.976  -6.413  0.00  0.00    +0.000 A 
ATOM     20  C   UNL     1       5.739  -0.239  -6.408  0.00  0.00    +0.000 A 
ATOM     21  C   UNL     1       6.820  -0.609  -7.224  0.00  0.00    +0.000 A 
ATOM     22  C   UNL     1       6.731  -1.728  -8.066  0.00  0.00    +0.000 A 
ATOM     23  C   UNL     1       5.551  -2.470  -8.080  0.00  0.00    +0.000 A 
ATOM     24  C   UNL     1       4.482  -2.095  -7.266  0.00  0.00    +0.000 A 
BRANCH  22  25
ATOM     25  C   UNL     1       7.871  -2.048  -8.970  0.00  0.00    +0.000 C 
ATOM     26  N   UNL     1       7.976  -3.331  -9.422  0.00  0.00    +0.000 N 
ATOM     27  O   UNL     1       8.693  -1.198  -9.288  0.00  0.00    +0.000 OA
ATOM     28  H   UNL     1       7.457  -4.105  -9.032  0.00  0.00    +0.000 HD
ATOM     29  H   UNL     1       8.790  -3.550  -9.988  0.00  0.00    +0.000 HD
ENDBRANCH  22  25
ENDBRANCH  17  19
ENDBRANCH   1  17
TORSDOF 6
