REMARK  Name = 
REMARK  10 active torsions:
REMARK  status: ('A' for Active; 'I' for Inactive)
REMARK    1  A    between atoms: C_1  and  C_2
REMARK    2  A    between atoms: C_2  and  C_3
REMARK    3  A    between atoms: C_5  and  N_6
REMARK    4  A    between atoms: C_9  and  C_10
REMARK    5  A    between atoms: C_10  and  C_11
REMARK    6  A    between atoms: C_10  and  C_12
REMARK    7  A    between atoms: C_10  and  C_13
REMARK    8  A    between atoms: C_13  and  N_14
REMARK    9  A    between atoms: N_14  and  C_15
REMARK   10  A    between atoms: C_18  and  C_19
REMARK                            x       y       z     vdW  Elec       q    Type
REMARK                         _______ _______ _______ _____ _____    ______ ____
ROOT
ATOM      1  C   UNL     1      -4.450   0.541   4.734  0.00  0.00    +0.000 C 
ATOM      2  C   UNL     1      -3.457  -0.600   5.085  0.00  0.00    +0.000 C 
ATOM      3  C   UNL     1      -3.833   1.886   5.182  0.00  0.00    +0.000 C 
ENDROOT
BRANCH   1   7
ATOM      4  N   UNL     1      -2.803   0.943   0.049  0.00  0.00    +0.000 N 
ATOM      5  C   UNL     1      -3.887   0.782   0.935  0.00  0.00    +0.000 A 
ATOM      6  C   UNL     1      -3.638   0.780   2.310  0.00  0.00    +0.000 A 
ATOM      7  C   UNL     1      -4.689   0.555   3.213  0.00  0.00    +0.000 A 
ATOM      8  C   UNL     1      -5.952   0.347   2.647  0.00  0.00    +0.000 A 
ATOM      9  C   UNL     1      -6.124   0.438   1.280  0.00  0.00    +0.000 A 
ATOM     10  N   UNL     1      -5.122   0.644   0.418  0.00  0.00    +0.000 NA
ATOM     11  H   UNL     1      -2.604   1.943   0.037  0.00  0.00    +0.000 HD
BRANCH   4  16
ATOM     12  C   UNL     1      -2.526  -1.189  -3.847  0.00  0.00    +0.000 C 
ATOM     13  C   UNL     1      -1.964  -1.173  -2.426  0.00  0.00    +0.000 C 
ATOM     14  C   UNL     1      -0.932  -2.277  -2.219  0.00  0.00    +0.000 C 
ATOM     15  C   UNL     1      -3.057  -1.120  -1.324  0.00  0.00    +0.000 C 
ATOM     16  C   UNL     1      -2.890   0.422  -1.289  0.00  0.00    +0.000 C 
ATOM     17  C   UNL     1      -1.498   0.229  -1.927  0.00  0.00    +0.000 C 
ENDBRANCH   4  16
ENDBRANCH   1   7
BRANCH   1  18
ATOM     18  C   UNL     1      -5.741   0.275   5.574  0.00  0.00    +0.000 C 
BRANCH  18  19
ATOM     19  N   UNL     1      -6.789   1.285   5.387  0.00  0.00    +0.000 N 
ATOM     20  H   UNL     1      -6.727   1.863   4.550  0.00  0.00    +0.000 HD
BRANCH  19  21
ATOM     21  C   UNL     1      -8.110   0.862   5.498  0.00  0.00    +0.000 A 
ATOM     22  N   UNL     1      -8.985   1.504   4.691  0.00  0.00    +0.000 NA
ATOM     23  C   UNL     1     -10.297   1.149   4.770  0.00  0.00    +0.000 A 
ATOM     24  C   UNL     1     -10.788   0.157   5.604  0.00  0.00    +0.000 A 
ATOM     25  C   UNL     1      -9.871  -0.514   6.412  0.00  0.00    +0.000 A 
ATOM     26  C   UNL     1      -8.535  -0.148   6.369  0.00  0.00    +0.000 A 
ATOM     27  F   UNL     1      -7.666  -0.813   7.145  0.00  0.00    +0.000 F 
BRANCH  24  28
ATOM     28  C   UNL     1     -12.213  -0.231   5.692  0.00  0.00    +0.000 C 
ATOM     29  N   UNL     1     -13.139   0.434   4.932  0.00  0.00    +0.000 N 
ATOM     30  O   UNL     1     -12.575  -1.125   6.443  0.00  0.00    +0.000 OA
ATOM     31  H   UNL     1     -12.952   1.180   4.290  0.00  0.00    +0.000 HD
ATOM     32  H   UNL     1     -14.102   0.132   5.040  0.00  0.00    +0.000 HD
ENDBRANCH  24  28
ENDBRANCH  19  21
ENDBRANCH  18  19
ENDBRANCH   1  18
TORSDOF 6
