REMARK  Name = 
REMARK  5 active torsions:
REMARK  status: ('A' for Active; 'I' for Inactive)
REMARK    1  A    between atoms: C_2  and  C_4
REMARK    2  A    between atoms: C_7  and  O_8
REMARK    3  A    between atoms: O_8  and  C_9
REMARK    4  A    between atoms: C_9  and  C_10
REMARK    5  A    between atoms: C_15  and  C_16
REMARK                            x       y       z     vdW  Elec       q    Type
REMARK                         _______ _______ _______ _____ _____    ______ ____
ROOT
ATOM      1  C   UNL     1       4.965   4.390   3.940  0.00  0.00    +0.000 C 
ATOM      2  C   UNL     1       4.861   3.743   5.319  0.00  0.00    +0.000 C 
ATOM      3  C   UNL     1       3.644   4.323   4.676  0.00  0.00    +0.000 C 
ENDROOT
BRANCH   1   4
ATOM      4  C   UNL     1       5.724   5.707   3.832  0.00  0.00    +0.000 A 
ATOM      5  C   UNL     1       7.113   5.749   3.978  0.00  0.00    +0.000 A 
ATOM      6  C   UNL     1       7.808   6.955   3.895  0.00  0.00    +0.000 A 
ATOM      7  C   UNL     1       7.127   8.159   3.673  0.00  0.00    +0.000 A 
ATOM      8 CL   UNL     1       8.108   9.587   3.715  0.00  0.00    +0.000 Cl
ATOM      9  C   UNL     1       5.730   8.181   3.479  0.00  0.00    +0.000 A 
ATOM     10  C   UNL     1       5.067   6.930   3.564  0.00  0.00    +0.000 A 
BRANCH   9  11
ATOM     11  C   UNL     1       4.935   9.404   3.203  0.00  0.00    +0.000 A 
ATOM     12  C   UNL     1       5.335  10.428   2.356  0.00  0.00    +0.000 A 
ATOM     13  N   UNL     1       4.624  11.551   2.093  0.00  0.00    +0.000 NA
ATOM     14  C   UNL     1       3.434  11.638   2.696  0.00  0.00    +0.000 A 
ATOM     15  N   UNL     1       2.908  10.723   3.517  0.00  0.00    +0.000 NA
ATOM     16  C   UNL     1       3.676   9.631   3.746  0.00  0.00    +0.000 A 
ENDBRANCH   9  11
ENDBRANCH   1   4
BRANCH   1  17
ATOM     17  O   UNL     1       5.251   3.380   2.946  0.00  0.00    +0.000 OA
BRANCH  17  21
ATOM     18  C   UNL     1       3.733   3.742  -0.862  0.00  0.00    +0.000 A 
ATOM     19  C   UNL     1       4.626   2.715  -0.556  0.00  0.00    +0.000 A 
ATOM     20  C   UNL     1       5.125   2.622   0.738  0.00  0.00    +0.000 A 
ATOM     21  C   UNL     1       4.719   3.557   1.681  0.00  0.00    +0.000 A 
ATOM     22  N   UNL     1       3.856   4.561   1.424  0.00  0.00    +0.000 NA
ATOM     23  C   UNL     1       3.394   4.639   0.148  0.00  0.00    +0.000 A 
BRANCH  18  25
ATOM     24  N   UNL     1       3.093   2.831  -3.026  0.00  0.00    +0.000 N 
ATOM     25  C   UNL     1       3.167   3.930  -2.214  0.00  0.00    +0.000 C 
ATOM     26  O   UNL     1       2.755   5.021  -2.587  0.00  0.00    +0.000 OA
ATOM     27  H   UNL     1       2.630   2.961  -3.918  0.00  0.00    +0.000 HD
ATOM     28  H   UNL     1       3.190   1.886  -2.686  0.00  0.00    +0.000 HD
ENDBRANCH  18  25
ENDBRANCH  17  21
ENDBRANCH   1  17
TORSDOF 5
