REMARK  Name = 
REMARK  3 active torsions:
REMARK  status: ('A' for Active; 'I' for Inactive)
REMARK    1  A    between atoms: C_2  and  C_4
REMARK    2  A    between atoms: N_8  and  C_9
REMARK    3  A    between atoms: C_9  and  C_10
REMARK                            x       y       z     vdW  Elec       q    Type
REMARK                         _______ _______ _______ _____ _____    ______ ____
ROOT
ATOM      1  C   UNL     1       2.522   1.814  -1.396  0.00  0.00    +0.000 A 
ATOM      2  C   UNL     1       3.762   1.404  -0.946  0.00  0.00    +0.000 A 
ATOM      3  C   UNL     1       4.691   2.387  -0.607  0.00  0.00    +0.000 A 
ATOM      4  C   UNL     1       4.354   3.736  -0.700  0.00  0.00    +0.000 A 
ATOM      5  N   UNL     1       5.319   4.666  -0.254  0.00  0.00    +0.000 N 
ATOM      6  N   UNL     1       3.123   4.088  -1.130  0.00  0.00    +0.000 NA
ATOM      7  N   UNL     1       2.199   3.123  -1.504  0.00  0.00    +0.000 NA
ATOM      8  H   UNL     1       6.216   4.497  -0.696  0.00  0.00    +0.000 HD
ENDROOT
BRANCH   1  10
ATOM      9  N   UNL     1       0.332   1.294  -2.324  0.00  0.00    +0.000 N 
ATOM     10  C   UNL     1       1.491   0.808  -1.772  0.00  0.00    +0.000 C 
ATOM     11  O   UNL     1       1.663  -0.393  -1.615  0.00  0.00    +0.000 OA
ATOM     12  H   UNL     1      -0.389   0.641  -2.597  0.00  0.00    +0.000 HD
ATOM     13  H   UNL     1       0.204   2.286  -2.482  0.00  0.00    +0.000 HD
ENDBRANCH   1  10
BRANCH   5  14
ATOM     14  C   UNL     1       5.009   6.056   0.145  0.00  0.00    +0.000 C 
ATOM     15  C   UNL     1       5.108   6.267   1.652  0.00  0.00    +0.000 C 
ATOM     16  C   UNL     1       3.791   6.424   0.969  0.00  0.00    +0.000 C 
BRANCH  14  17
ATOM     17  C   UNL     1       5.535   7.167  -0.775  0.00  0.00    +0.000 C 
ATOM     18  C   UNL     1       4.918   7.070  -2.179  0.00  0.00    +0.000 C 
ATOM     19  C   UNL     1       5.402   8.205  -3.079  0.00  0.00    +0.000 C 
ATOM     20  C   UNL     1       6.925   8.248  -3.155  0.00  0.00    +0.000 C 
ATOM     21  C   UNL     1       7.556   8.326  -1.767  0.00  0.00    +0.000 C 
ATOM     22  C   UNL     1       7.069   7.197  -0.857  0.00  0.00    +0.000 C 
ENDBRANCH  14  17
ENDBRANCH   5  14
TORSDOF 3
