REMARK  Name = 
REMARK  9 active torsions:
REMARK  status: ('A' for Active; 'I' for Inactive)
REMARK    1  A    between atoms: C_1  and  O_2
REMARK    2  A    between atoms: O_2  and  C_3
REMARK    3  A    between atoms: C_10  and  C_11
REMARK    4  A    between atoms: N_13  and  C_14
REMARK    5  A    between atoms: C_14  and  C_15
REMARK    6  A    between atoms: C_18  and  N_19
REMARK    7  A    between atoms: N_19  and  C_20
REMARK    8  A    between atoms: C_20  and  C_21
REMARK    9  A    between atoms: C_21  and  N_22
REMARK                            x       y       z     vdW  Elec       q    Type
REMARK                         _______ _______ _______ _____ _____    ______ ____
ROOT
ATOM      1  C   UNL     1       2.791   0.960  -3.203  0.00  0.00    +0.000 C 
ENDROOT
BRANCH   1   2
ATOM      2  C   UNL     1       1.628   0.002  -3.221  0.00  0.00    +0.000 A 
ATOM      3  C   UNL     1       1.842  -1.381  -3.258  0.00  0.00    +0.000 A 
ATOM      4  C   UNL     1       0.762  -2.273  -3.208  0.00  0.00    +0.000 A 
ATOM      5  C   UNL     1      -0.553  -1.811  -3.100  0.00  0.00    +0.000 A 
ATOM      6  C   UNL     1      -0.764  -0.430  -3.187  0.00  0.00    +0.000 A 
ATOM      7  C   UNL     1       0.310   0.469  -3.231  0.00  0.00    +0.000 A 
BRANCH   5   8
ATOM      8  N   UNL     1      -1.672  -2.646  -3.011  0.00  0.00    +0.000 N 
ATOM      9  H   UNL     1      -2.087  -2.825  -3.928  0.00  0.00    +0.000 HD
BRANCH   8  10
ATOM     10  C   UNL     1      -1.532  -3.903  -2.266  0.00  0.00    +0.000 C 
BRANCH  10  11
ATOM     11  C   UNL     1      -2.829  -4.742  -2.369  0.00  0.00    +0.000 C 
BRANCH  11  12
ATOM     12  N   UNL     1      -3.239  -5.053  -3.757  0.00  0.00    +0.000 NA
ATOM     13  C   UNL     1      -2.256  -5.897  -4.454  0.00  0.00    +0.000 C 
ATOM     14  C   UNL     1      -2.656  -6.076  -5.917  0.00  0.00    +0.000 C 
ATOM     15  C   UNL     1      -4.049  -6.678  -6.045  0.00  0.00    +0.000 C 
ATOM     16  C   UNL     1      -5.054  -5.900  -5.202  0.00  0.00    +0.000 C 
ATOM     17  C   UNL     1      -4.559  -5.706  -3.767  0.00  0.00    +0.000 C 
ENDBRANCH  11  12
ENDBRANCH  10  11
ENDBRANCH   8  10
ENDBRANCH   5   8
ENDBRANCH   1   2
BRANCH   1  20
ATOM     18  C   UNL     1       4.317   2.064  -4.786  0.00  0.00    +0.000 C 
ATOM     19  O   UNL     1       4.988   2.539  -3.871  0.00  0.00    +0.000 OA
ATOM     20  N   UNL     1       3.227   1.275  -4.537  0.00  0.00    +0.000 N 
ATOM     21  H   UNL     1       2.640   0.968  -5.298  0.00  0.00    +0.000 HD
BRANCH  18  29
ATOM     22  C   UNL     1       3.005   0.951  -7.762  0.00  0.00    +0.000 A 
ATOM     23  N   UNL     1       2.716   0.649  -9.044  0.00  0.00    +0.000 NA
ATOM     24  C   UNL     1       3.484   1.179  -9.999  0.00  0.00    +0.000 A 
ATOM     25  N   UNL     1       4.524   1.992  -9.836  0.00  0.00    +0.000 NA
ATOM     26  C   UNL     1       4.775   2.270  -8.545  0.00  0.00    +0.000 A 
ATOM     27  S   UNL     1       6.062   3.301  -8.144  0.00  0.00    +0.000 S 
ATOM     28  C   UNL     1       5.739   3.138  -6.484  0.00  0.00    +0.000 A 
ATOM     29  C   UNL     1       4.664   2.307  -6.197  0.00  0.00    +0.000 A 
ATOM     30  C   UNL     1       4.077   1.798  -7.437  0.00  0.00    +0.000 A 
BRANCH  22  32
ATOM     31  C   UNL     1       1.459  -0.710  -7.162  0.00  0.00    +0.000 C 
ATOM     32  O   UNL     1       2.173   0.462  -6.778  0.00  0.00    +0.000 OA
ENDBRANCH  22  32
ENDBRANCH  18  29
ENDBRANCH   1  20
TORSDOF 8
