REMARK  Name = 
REMARK  7 active torsions:
REMARK  status: ('A' for Active; 'I' for Inactive)
REMARK    1  A    between atoms: C_2  and  C_4
REMARK    2  A    between atoms: C_7  and  O_8
REMARK    3  A    between atoms: O_8  and  C_9
REMARK    4  A    between atoms: C_9  and  C_10
REMARK    5  A    between atoms: C_10  and  C_13
REMARK    6  A    between atoms: C_18  and  N_19
REMARK    7  A    between atoms: N_19  and  C_20
REMARK                            x       y       z     vdW  Elec       q    Type
REMARK                         _______ _______ _______ _____ _____    ______ ____
ROOT
ATOM      1  C   UNL     1       5.764   1.522  -6.915  0.00  0.00    +0.000 C 
ATOM      2  F   UNL     1       6.922   1.746  -6.220  0.00  0.00    +0.000 F 
ATOM      3  F   UNL     1       5.972   0.345  -7.580  0.00  0.00    +0.000 F 
ENDROOT
BRANCH   1   4
ATOM      4  C   UNL     1       5.474   2.658  -7.873  0.00  0.00    +0.000 A 
ATOM      5  C   UNL     1       4.852   2.428  -9.106  0.00  0.00    +0.000 A 
ATOM      6  C   UNL     1       4.632   3.493  -9.974  0.00  0.00    +0.000 A 
ATOM      7  F   UNL     1       4.020   3.267 -11.145  0.00  0.00    +0.000 F 
ATOM      8  C   UNL     1       5.012   4.786  -9.639  0.00  0.00    +0.000 A 
ATOM      9  C   UNL     1       5.624   5.045  -8.410  0.00  0.00    +0.000 A 
ATOM     10  C   UNL     1       5.848   3.974  -7.536  0.00  0.00    +0.000 A 
BRANCH   9  11
ATOM     11  N   UNL     1       5.885   6.381  -8.047  0.00  0.00    +0.000 N 
ATOM     12  H   UNL     1       6.342   6.898  -8.797  0.00  0.00    +0.000 HD
BRANCH  11  13
ATOM     13  C   UNL     1       6.109   6.884  -6.726  0.00  0.00    +0.000 C 
ATOM     14  C   UNL     1       4.831   6.836  -5.864  0.00  0.00    +0.000 C 
ATOM     15  C   UNL     1       5.047   8.316  -5.507  0.00  0.00    +0.000 C 
ATOM     16  F   UNL     1       3.952   9.104  -5.605  0.00  0.00    +0.000 F 
ATOM     17  F   UNL     1       5.576   8.542  -4.282  0.00  0.00    +0.000 F 
ATOM     18  C   UNL     1       6.040   8.421  -6.680  0.00  0.00    +0.000 C 
ENDBRANCH  11  13
ENDBRANCH   9  11
ENDBRANCH   1   4
BRANCH   1  19
ATOM     19  C   UNL     1       4.631   1.309  -5.896  0.00  0.00    +0.000 C 
BRANCH  19  20
ATOM     20  O   UNL     1       5.004   0.230  -5.022  0.00  0.00    +0.000 OA
BRANCH  20  24
ATOM     21  C   UNL     1       2.411  -0.829  -2.091  0.00  0.00    +0.000 A 
ATOM     22  C   UNL     1       2.097   0.217  -2.954  0.00  0.00    +0.000 A 
ATOM     23  N   UNL     1       2.925   0.623  -3.955  0.00  0.00    +0.000 NA
ATOM     24  C   UNL     1       4.082  -0.073  -4.053  0.00  0.00    +0.000 A 
ATOM     25  C   UNL     1       4.397  -1.119  -3.186  0.00  0.00    +0.000 A 
ATOM     26  N   UNL     1       3.578  -1.526  -2.184  0.00  0.00    +0.000 NA
BRANCH  21  28
ATOM     27  N   UNL     1       1.867  -2.227  -0.186  0.00  0.00    +0.000 N 
ATOM     28  C   UNL     1       1.455  -1.224  -1.022  0.00  0.00    +0.000 C 
ATOM     29  O   UNL     1       0.366  -0.681  -0.889  0.00  0.00    +0.000 OA
ATOM     30  H   UNL     1       1.270  -2.519   0.574  0.00  0.00    +0.000 HD
ATOM     31  H   UNL     1       2.794  -2.631  -0.289  0.00  0.00    +0.000 HD
ENDBRANCH  21  28
ENDBRANCH  20  24
ENDBRANCH  19  20
ENDBRANCH   1  19
TORSDOF 7
