REMARK  Name = 
REMARK  7 active torsions:
REMARK  status: ('A' for Active; 'I' for Inactive)
REMARK    1  A    between atoms: C_1  and  C_2
REMARK    2  A    between atoms: C_2  and  C_3
REMARK    3  A    between atoms: C_7  and  C_8
REMARK    4  A    between atoms: C_8  and  C_9
REMARK    5  A    between atoms: C_9  and  N_10
REMARK    6  A    between atoms: C_14  and  C_15
REMARK    7  A    between atoms: C_15  and  O_17
REMARK                            x       y       z     vdW  Elec       q    Type
REMARK                         _______ _______ _______ _____ _____    ______ ____
ROOT
ATOM      1  C   UNL     1       4.319   2.779  -3.860  0.00  0.00    +0.000 C 
ENDROOT
BRANCH   1   6
ATOM      2  C   UNL     1       2.892   0.196  -1.412  0.00  0.00    +0.000 A 
ATOM      3  C   UNL     1       2.583  -0.843  -2.312  0.00  0.00    +0.000 A 
ATOM      4  C   UNL     1       2.863  -0.735  -3.675  0.00  0.00    +0.000 A 
ATOM      5  C   UNL     1       3.451   0.422  -4.179  0.00  0.00    +0.000 A 
ATOM      6  C   UNL     1       3.785   1.470  -3.315  0.00  0.00    +0.000 A 
ATOM      7  C   UNL     1       3.522   1.337  -1.939  0.00  0.00    +0.000 A 
BRANCH   2   9
ATOM      8  C   UNL     1       0.910   0.021   0.098  0.00  0.00    +0.000 C 
ATOM      9  C   UNL     1       2.449   0.085   0.058  0.00  0.00    +0.000 C 
ATOM     10  C   UNL     1       3.092  -1.124   0.747  0.00  0.00    +0.000 C 
ATOM     11  C   UNL     1       4.326  -0.566   1.443  0.00  0.00    +0.000 C 
ATOM     12  O   UNL     1       4.251   0.863   1.400  0.00  0.00    +0.000 OA
ATOM     13  C   UNL     1       2.920   1.205   1.000  0.00  0.00    +0.000 C 
ENDBRANCH   2   9
ENDBRANCH   1   6
BRANCH   1  14
ATOM     14  C   UNL     1       3.167   3.755  -4.131  0.00  0.00    +0.000 C 
BRANCH  14  15
ATOM     15  N   UNL     1       3.656   5.048  -4.632  0.00  0.00    +0.000 N 
ATOM     16  C   UNL     1       2.604   5.956  -4.886  0.00  0.00    +0.000 A 
ATOM     17  C   UNL     1       2.908   7.226  -5.373  0.00  0.00    +0.000 A 
ATOM     18  C   UNL     1       1.877   8.143  -5.622  0.00  0.00    +0.000 A 
ATOM     19  C   UNL     1       0.560   7.764  -5.370  0.00  0.00    +0.000 A 
ATOM     20  C   UNL     1       0.341   6.485  -4.889  0.00  0.00    +0.000 A 
ATOM     21  N   UNL     1       1.329   5.597  -4.634  0.00  0.00    +0.000 NA
ATOM     22  H   UNL     1       4.208   4.945  -5.477  0.00  0.00    +0.000 HD
BRANCH  19  23
ATOM     23  C   UNL     1      -0.623   8.610  -5.626  0.00  0.00    +0.000 C 
ATOM     24  O   UNL     1      -1.717   8.141  -5.890  0.00  0.00    +0.000 OA
BRANCH  23  25
ATOM     25  O   UNL     1      -0.400   9.935  -5.513  0.00  0.00    +0.000 OA
ATOM     26  H   UNL     1       0.453  10.188  -5.120  0.00  0.00    +0.000 HD
ENDBRANCH  23  25
ENDBRANCH  19  23
ENDBRANCH  14  15
ENDBRANCH   1  14
TORSDOF 6
