REMARK  Name = 
REMARK  6 active torsions:
REMARK  status: ('A' for Active; 'I' for Inactive)
REMARK    1  A    between atoms: C_2  and  C_18
REMARK    2  A    between atoms: N_3  and  C_4
REMARK    3  A    between atoms: C_4  and  C_5
REMARK    4  A    between atoms: C_8  and  C_9
REMARK    5  A    between atoms: C_9  and  N_10
REMARK    6  A    between atoms: C_13  and  O_14
REMARK                            x       y       z     vdW  Elec       q    Type
REMARK                         _______ _______ _______ _____ _____    ______ ____
ROOT
ATOM      1  O   UNL     1       1.757   3.152  -0.179  0.00  0.00    +0.000 OA
ATOM      2  C   UNL     1       2.427   2.146  -0.388  0.00  0.00    +0.000 C 
ATOM      3  N   UNL     1       2.789   1.274   0.603  0.00  0.00    +0.000 N 
ATOM      4  H   UNL     1       3.288   0.424   0.385  0.00  0.00    +0.000 HD
ENDROOT
BRANCH   2   5
ATOM      5  C   UNL     1       2.936   1.823  -1.723  0.00  0.00    +0.000 A 
ATOM      6  C   UNL     1       3.169   2.820  -2.659  0.00  0.00    +0.000 A 
ATOM      7  S   UNL     1       3.830   2.229  -4.119  0.00  0.00    +0.000 S 
ATOM      8  C   UNL     1       3.784   0.623  -3.556  0.00  0.00    +0.000 A 
ATOM      9  N   UNL     1       4.242  -0.411  -4.317  0.00  0.00    +0.000 NA
ATOM     10  C   UNL     1       4.145  -1.567  -3.755  0.00  0.00    +0.000 A 
ATOM     11  N   UNL     1       3.620  -1.795  -2.509  0.00  0.00    +0.000 N 
ATOM     12  C   UNL     1       3.116  -0.791  -1.723  0.00  0.00    +0.000 A 
ATOM     13  O   UNL     1       2.618  -1.036  -0.630  0.00  0.00    +0.000 OA
ATOM     14  C   UNL     1       3.261   0.538  -2.281  0.00  0.00    +0.000 A 
ATOM     15  H   UNL     1       3.562  -2.726  -2.126  0.00  0.00    +0.000 HD
ENDBRANCH   2   5
BRANCH   3  16
ATOM     16  C   UNL     1       2.316   1.393   1.960  0.00  0.00    +0.000 C 
BRANCH  16  17
ATOM     17  C   UNL     1       3.241   2.222   2.815  0.00  0.00    +0.000 A 
ATOM     18  C   UNL     1       3.087   3.603   2.846  0.00  0.00    +0.000 A 
ATOM     19  C   UNL     1       3.915   4.358   3.672  0.00  0.00    +0.000 A 
ATOM     20  C   UNL     1       4.896   3.726   4.442  0.00  0.00    +0.000 A 
ATOM     21  C   UNL     1       5.007   2.346   4.311  0.00  0.00    +0.000 A 
ATOM     22  N   UNL     1       4.206   1.582   3.525  0.00  0.00    +0.000 NA
BRANCH  20  23
ATOM     23  C   UNL     1       5.771   4.500   5.399  0.00  0.00    +0.000 C 
BRANCH  23  24
ATOM     24  N   UNL     1       7.066   4.928   4.855  0.00  0.00    +0.000 NA
ATOM     25  C   UNL     1       7.848   5.698   5.840  0.00  0.00    +0.000 C 
ATOM     26  C   UNL     1       8.649   6.736   5.051  0.00  0.00    +0.000 C 
ATOM     27  C   UNL     1       8.347   6.429   3.596  0.00  0.00    +0.000 C 
ATOM     28  C   UNL     1       6.971   5.768   3.651  0.00  0.00    +0.000 C 
BRANCH  27  29
ATOM     29  O   UNL     1       9.325   5.515   3.097  0.00  0.00    +0.000 OA
ATOM     30  H   UNL     1       9.154   4.671   3.558  0.00  0.00    +0.000 HD
ENDBRANCH  27  29
ENDBRANCH  23  24
ENDBRANCH  20  23
ENDBRANCH  16  17
ENDBRANCH   3  16
TORSDOF 6
