REMARK  Name = 
REMARK  10 active torsions:
REMARK  status: ('A' for Active; 'I' for Inactive)
REMARK    1  A    between atoms: C_1  and  O_2
REMARK    2  A    between atoms: O_2  and  C_3
REMARK    3  A    between atoms: C_10  and  C_11
REMARK    4  A    between atoms: N_13  and  C_14
REMARK    5  A    between atoms: C_14  and  C_15
REMARK    6  A    between atoms: C_18  and  C_19
REMARK    7  A    between atoms: C_19  and  N_20
REMARK    8  A    between atoms: C_19  and  C_21
REMARK    9  A    between atoms: C_21  and  C_22
REMARK   10  A    between atoms: N_24  and  C_25
REMARK                            x       y       z     vdW  Elec       q    Type
REMARK                         _______ _______ _______ _____ _____    ______ ____
ROOT
ATOM      1  C   UNL     1       2.387  -3.294   1.074  0.00  0.00    +0.000 A 
ATOM      2  C   UNL     1       1.640  -4.403   1.485  0.00  0.00    +0.000 A 
ATOM      3  C   UNL     1       0.688  -4.280   2.502  0.00  0.00    +0.000 A 
ATOM      4  C   UNL     1       0.453  -3.044   3.126  0.00  0.00    +0.000 A 
ATOM      5  C   UNL     1       1.233  -1.945   2.732  0.00  0.00    +0.000 A 
ATOM      6  C   UNL     1       2.192  -2.070   1.723  0.00  0.00    +0.000 A 
ENDROOT
BRANCH   1   7
ATOM      7  C   UNL     1       3.306  -3.379  -0.113  0.00  0.00    +0.000 C 
BRANCH   7  10
ATOM      8  C   UNL     1       3.232  -3.057  -2.539  0.00  0.00    +0.000 C 
ATOM      9  O   UNL     1       4.409  -3.392  -2.646  0.00  0.00    +0.000 OA
ATOM     10  N   UNL     1       2.591  -3.064  -1.330  0.00  0.00    +0.000 N 
ATOM     11  H   UNL     1       1.642  -2.720  -1.257  0.00  0.00    +0.000 HD
BRANCH   8  19
ATOM     12  C   UNL     1       0.492  -1.056  -2.954  0.00  0.00    +0.000 A 
ATOM     13  N   UNL     1      -0.523  -0.291  -3.409  0.00  0.00    +0.000 NA
ATOM     14  C   UNL     1      -0.767  -0.278  -4.723  0.00  0.00    +0.000 A 
ATOM     15  N   UNL     1      -0.118  -0.958  -5.665  0.00  0.00    +0.000 NA
ATOM     16  C   UNL     1       0.889  -1.700  -5.174  0.00  0.00    +0.000 A 
ATOM     17  S   UNL     1       1.840  -2.626  -6.234  0.00  0.00    +0.000 S 
ATOM     18  C   UNL     1       2.825  -3.163  -4.958  0.00  0.00    +0.000 A 
ATOM     19  C   UNL     1       2.439  -2.681  -3.714  0.00  0.00    +0.000 A 
ATOM     20  C   UNL     1       1.276  -1.812  -3.842  0.00  0.00    +0.000 A 
BRANCH  12  22
ATOM     21  C   UNL     1      -0.124  -0.237  -0.845  0.00  0.00    +0.000 C 
ATOM     22  O   UNL     1       0.738  -1.089  -1.594  0.00  0.00    +0.000 OA
ENDBRANCH  12  22
ENDBRANCH   8  19
ENDBRANCH   7  10
ENDBRANCH   1   7
BRANCH   4  23
ATOM     23  C   UNL     1      -0.701  -2.915   4.115  0.00  0.00    +0.000 C 
BRANCH  23  24
ATOM     24  N   UNL     1      -0.380  -2.023   5.233  0.00  0.00    +0.000 NA
ATOM     25  H   UNL     1      -0.237  -1.076   4.889  0.00  0.00    +0.000 HD
ATOM     26  H   UNL     1       0.506  -2.318   5.642  0.00  0.00    +0.000 HD
ENDBRANCH  23  24
BRANCH  23  27
ATOM     27  C   UNL     1      -1.971  -2.465   3.364  0.00  0.00    +0.000 C 
BRANCH  27  28
ATOM     28  C   UNL     1      -3.218  -2.247   4.243  0.00  0.00    +0.000 C 
ATOM     29  C   UNL     1      -3.710  -3.505   4.996  0.00  0.00    +0.000 C 
ATOM     30  N   UNL     1      -4.260  -4.509   4.062  0.00  0.00    +0.000 NA
ATOM     31  C   UNL     1      -4.706  -5.703   4.774  0.00  0.00    +0.000 C 
ATOM     32  C   UNL     1      -5.383  -3.883   3.333  0.00  0.00    +0.000 C 
ATOM     33  C   UNL     1      -4.914  -2.627   2.585  0.00  0.00    +0.000 C 
ATOM     34  O   UNL     1      -4.294  -1.675   3.460  0.00  0.00    +0.000 OA
ENDBRANCH  27  28
ENDBRANCH  23  27
ENDBRANCH   4  23
TORSDOF 8
