REMARK  Name = 
REMARK  7 active torsions:
REMARK  status: ('A' for Active; 'I' for Inactive)
REMARK    1  A    between atoms: C_1  and  C_2
REMARK    2  A    between atoms: C_2  and  C_3
REMARK    3  A    between atoms: C_2  and  C_14
REMARK    4  A    between atoms: C_3  and  N_4
REMARK    5  A    between atoms: N_4  and  C_5
REMARK    6  A    between atoms: C_8  and  C_9
REMARK    7  A    between atoms: C_18  and  C_19
REMARK                            x       y       z     vdW  Elec       q    Type
REMARK                         _______ _______ _______ _____ _____    ______ ____
ROOT
ATOM      1  N   UNL     1       2.684   1.836   1.654  0.00  0.00    +0.000 N 
ATOM      2  H   UNL     1       1.679   2.002   1.609  0.00  0.00    +0.000 HD
ENDROOT
BRANCH   1   3
ATOM      3  C   UNL     1       3.246   2.369   2.819  0.00  0.00    +0.000 A 
ATOM      4  C   UNL     1       4.496   2.026   3.313  0.00  0.00    +0.000 A 
ATOM      5  N   UNL     1       5.068   2.552   4.414  0.00  0.00    +0.000 NA
ATOM      6  C   UNL     1       4.348   3.516   5.030  0.00  0.00    +0.000 A 
ATOM      7  N   UNL     1       3.154   3.988   4.627  0.00  0.00    +0.000 NA
ATOM      8  C   UNL     1       2.648   3.410   3.516  0.00  0.00    +0.000 A 
BRANCH   6   9
ATOM      9  C   UNL     1       4.967   4.093   6.281  0.00  0.00    +0.000 C 
ATOM     10  N   UNL     1       6.189   3.559   6.627  0.00  0.00    +0.000 N 
ATOM     11  O   UNL     1       4.453   4.968   6.965  0.00  0.00    +0.000 OA
ATOM     12  H   UNL     1       6.608   2.839   6.051  0.00  0.00    +0.000 HD
ATOM     13  H   UNL     1       6.661   3.904   7.450  0.00  0.00    +0.000 HD
ENDBRANCH   6   9
ENDBRANCH   1   3
BRANCH   1  14
ATOM     14  C   UNL     1       3.010   0.443   1.356  0.00  0.00    +0.000 C 
BRANCH  14  16
ATOM     15  C   UNL     1       2.655   0.597  -1.185  0.00  0.00    +0.000 C 
ATOM     16  C   UNL     1       2.233   0.048   0.142  0.00  0.00    +0.000 C 
BRANCH  16  17
ATOM     17  C   UNL     1       0.880  -0.489   0.318  0.00  0.00    +0.000 A 
ATOM     18  C   UNL     1      -0.204   0.137  -0.307  0.00  0.00    +0.000 A 
ATOM     19  C   UNL     1      -1.506  -0.314  -0.096  0.00  0.00    +0.000 A 
ATOM     20  C   UNL     1      -1.735  -1.411   0.732  0.00  0.00    +0.000 A 
ATOM     21  C   UNL     1      -0.660  -2.062   1.344  0.00  0.00    +0.000 A 
ATOM     22  C   UNL     1       0.645  -1.599   1.140  0.00  0.00    +0.000 A 
BRANCH  21  23
ATOM     23  C   UNL     1      -0.895  -3.195   2.190  0.00  0.00    +0.000 C 
ATOM     24  N   UNL     1      -1.078  -4.113   2.879  0.00  0.00    +0.000 NA
ENDBRANCH  21  23
ENDBRANCH  16  17
ENDBRANCH  14  16
ENDBRANCH   1  14
TORSDOF 6
