REMARK  Name = 
REMARK  7 active torsions:
REMARK  status: ('A' for Active; 'I' for Inactive)
REMARK    1  A    between atoms: C_1  and  C_2
REMARK    2  A    between atoms: C_2  and  N_3
REMARK    3  A    between atoms: C_2  and  C_16
REMARK    4  A    between atoms: C_4  and  C_6
REMARK    5  A    between atoms: C_19  and  C_20
REMARK    6  A    between atoms: C_20  and  N_21
REMARK    7  A    between atoms: C_22  and  C_24
REMARK                            x       y       z     vdW  Elec       q    Type
REMARK                         _______ _______ _______ _____ _____    ______ ____
ROOT
ATOM      1  C   UNL     1       3.607  -0.714  -0.796  0.00  0.00    +0.000 C 
ATOM      2  C   UNL     1       2.475   0.056  -0.109  0.00  0.00    +0.000 C 
ENDROOT
BRANCH   2   3
ATOM      3  C   UNL     1       2.930   0.549   1.262  0.00  0.00    +0.000 A 
ATOM      4  C   UNL     1       2.993   1.919   1.548  0.00  0.00    +0.000 A 
ATOM      5  C   UNL     1       3.411   2.372   2.809  0.00  0.00    +0.000 A 
ATOM      6  C   UNL     1       3.771   1.465   3.815  0.00  0.00    +0.000 A 
ATOM      7  C   UNL     1       3.687   0.095   3.539  0.00  0.00    +0.000 A 
ATOM      8  C   UNL     1       3.279  -0.356   2.279  0.00  0.00    +0.000 A 
BRANCH   6   9
ATOM      9  C   UNL     1       4.240   1.935   5.169  0.00  0.00    +0.000 C 
BRANCH   9  10
ATOM     10  N   UNL     1       3.158   2.031   6.125  0.00  0.00    +0.000 N 
ATOM     11  C   UNL     1       3.412   2.426   7.416  0.00  0.00    +0.000 C 
ATOM     12  O   UNL     1       4.528   2.794   7.781  0.00  0.00    +0.000 OA
ATOM     13  H   UNL     1       2.297   1.539   5.914  0.00  0.00    +0.000 HD
BRANCH  11  14
ATOM     14  C   UNL     1       2.286   2.255   8.436  0.00  0.00    +0.000 C 
ATOM     15  C   UNL     1       2.369   0.879   9.094  0.00  0.00    +0.000 C 
ATOM     16  C   UNL     1       1.766  -0.129   8.131  0.00  0.00    +0.000 C 
ATOM     17  S   UNL     1       0.378   0.737   7.340  0.00  0.00    +0.000 S 
ATOM     18  C   UNL     1       0.866   2.399   7.910  0.00  0.00    +0.000 C 
ENDBRANCH  11  14
ENDBRANCH   9  10
ENDBRANCH   6   9
ENDBRANCH   2   3
BRANCH   2  19
ATOM     19  N   UNL     1       1.281  -0.756   0.050  0.00  0.00    +0.000 N 
ATOM     20  C   UNL     1       0.583  -1.309  -0.995  0.00  0.00    +0.000 C 
ATOM     21  O   UNL     1       0.923  -1.198  -2.167  0.00  0.00    +0.000 OA
ATOM     22  H   UNL     1       0.769  -0.587   0.909  0.00  0.00    +0.000 HD
BRANCH  20  23
ATOM     23  C   UNL     1      -0.571  -2.129  -0.611  0.00  0.00    +0.000 A 
ATOM     24  C   UNL     1      -0.969  -3.199  -1.401  0.00  0.00    +0.000 A 
ATOM     25  S   UNL     1      -2.290  -4.066  -0.754  0.00  0.00    +0.000 S 
ATOM     26  C   UNL     1      -2.408  -3.007   0.574  0.00  0.00    +0.000 A 
ATOM     27  N   UNL     1      -3.370  -3.166   1.523  0.00  0.00    +0.000 NA
ATOM     28  C   UNL     1      -3.356  -2.268   2.451  0.00  0.00    +0.000 A 
ATOM     29  N   UNL     1      -2.468  -1.229   2.524  0.00  0.00    +0.000 N 
ATOM     30  C   UNL     1      -1.459  -1.047   1.608  0.00  0.00    +0.000 A 
ATOM     31  O   UNL     1      -0.645  -0.140   1.729  0.00  0.00    +0.000 OA
ATOM     32  C   UNL     1      -1.440  -2.021   0.534  0.00  0.00    +0.000 A 
ATOM     33  H   UNL     1      -2.497  -0.565   3.283  0.00  0.00    +0.000 HD
ENDBRANCH  20  23
ENDBRANCH   2  19
TORSDOF 6
