REMARK  Name = 
REMARK  7 active torsions:
REMARK  status: ('A' for Active; 'I' for Inactive)
REMARK    1  A    between atoms: C_2  and  C_19
REMARK    2  A    between atoms: N_3  and  C_4
REMARK    3  A    between atoms: C_4  and  C_5
REMARK    4  A    between atoms: C_8  and  C_9
REMARK    5  A    between atoms: C_9  and  N_10
REMARK    6  A    between atoms: N_10  and  C_11
REMARK    7  A    between atoms: C_11  and  C_12
REMARK                            x       y       z     vdW  Elec       q    Type
REMARK                         _______ _______ _______ _____ _____    ______ ____
ROOT
ATOM      1  C   UNL     1      -1.163  12.147  -4.879  0.00  0.00    +0.000 C 
ENDROOT
BRANCH   1   2
ATOM      2  C   UNL     1      -0.148  11.188  -5.428  0.00  0.00    +0.000 A 
ATOM      3  C   UNL     1       1.167  11.183  -4.963  0.00  0.00    +0.000 A 
ATOM      4  C   UNL     1       2.097  10.304  -5.516  0.00  0.00    +0.000 A 
ATOM      5  C   UNL     1       1.684   9.422  -6.512  0.00  0.00    +0.000 A 
ATOM      6  N   UNL     1       0.406   9.392  -6.969  0.00  0.00    +0.000 NA
ATOM      7  C   UNL     1      -0.474  10.268  -6.420  0.00  0.00    +0.000 A 
BRANCH   5   8
ATOM      8  C   UNL     1       2.681   8.459  -7.140  0.00  0.00    +0.000 C 
BRANCH   8   9
ATOM      9  N   UNL     1       2.828   8.579  -8.602  0.00  0.00    +0.000 NA
ATOM     10  H   UNL     1       1.896   8.439  -9.000  0.00  0.00    +0.000 HD
BRANCH   9  11
ATOM     11  C   UNL     1       3.305   9.909  -9.011  0.00  0.00    +0.000 C 
BRANCH  11  12
ATOM     12  C   UNL     1       3.419  10.023 -10.558  0.00  0.00    +0.000 C 
ATOM     13  C   UNL     1       3.920  11.388 -11.007  0.00  0.00    +0.000 C 
ATOM     14  C   UNL     1       5.426  11.264 -10.890  0.00  0.00    +0.000 C 
ATOM     15  C   UNL     1       5.702   9.795 -11.177  0.00  0.00    +0.000 C 
ATOM     16  N   UNL     1       4.406   9.109 -11.158  0.00  0.00    +0.000 NA
ATOM     17  H   UNL     1       4.447   8.248 -10.610  0.00  0.00    +0.000 HD
ENDBRANCH  11  12
ENDBRANCH   9  11
ENDBRANCH   8   9
ENDBRANCH   5   8
ENDBRANCH   1   2
BRANCH   1  20
ATOM     18  O   UNL     1      -3.085  13.505  -3.391  0.00  0.00    +0.000 OA
ATOM     19  C   UNL     1      -2.796  12.358  -3.069  0.00  0.00    +0.000 C 
ATOM     20  N   UNL     1      -1.813  11.638  -3.703  0.00  0.00    +0.000 N 
ATOM     21  H   UNL     1      -1.747  10.639  -3.538  0.00  0.00    +0.000 HD
BRANCH  19  22
ATOM     22  C   UNL     1      -3.446  11.681  -1.944  0.00  0.00    +0.000 A 
ATOM     23  C   UNL     1      -3.958  12.399  -0.873  0.00  0.00    +0.000 A 
ATOM     24  S   UNL     1      -4.629  11.405   0.344  0.00  0.00    +0.000 S 
ATOM     25  C   UNL     1      -4.297   9.993  -0.546  0.00  0.00    +0.000 A 
ATOM     26  N   UNL     1      -4.629   8.758  -0.066  0.00  0.00    +0.000 NA
ATOM     27  C   UNL     1      -4.340   7.789  -0.870  0.00  0.00    +0.000 A 
ATOM     28  N   UNL     1      -3.747   7.928  -2.094  0.00  0.00    +0.000 N 
ATOM     29  C   UNL     1      -3.349   9.136  -2.597  0.00  0.00    +0.000 A 
ATOM     30  O   UNL     1      -2.748   9.217  -3.663  0.00  0.00    +0.000 OA
ATOM     31  C   UNL     1      -3.671  10.272  -1.745  0.00  0.00    +0.000 A 
ATOM     32  H   UNL     1      -3.525   7.122  -2.662  0.00  0.00    +0.000 HD
ENDBRANCH  19  22
ENDBRANCH   1  20
TORSDOF 7
