REMARK  Name = 
REMARK  6 active torsions:
REMARK  status: ('A' for Active; 'I' for Inactive)
REMARK    1  A    between atoms: C_1  and  C_2
REMARK    2  A    between atoms: C_2  and  C_3
REMARK    3  A    between atoms: C_2  and  C_14
REMARK    4  A    between atoms: C_3  and  N_4
REMARK    5  A    between atoms: C_8  and  C_9
REMARK    6  A    between atoms: C_18  and  C_19
REMARK                            x       y       z     vdW  Elec       q    Type
REMARK                         _______ _______ _______ _____ _____    ______ ____
ROOT
ATOM      1  C   UNL     1       3.138   0.797  -1.315  0.00  0.00    +0.000 C 
ENDROOT
BRANCH   1   2
ATOM      2  N   UNL     1       2.564   2.088  -1.680  0.00  0.00    +0.000 N 
ATOM      3  C   UNL     1       3.151   2.677  -2.814  0.00  0.00    +0.000 A 
ATOM      4  C   UNL     1       2.681   3.920  -3.227  0.00  0.00    +0.000 A 
ATOM      5  C   UNL     1       3.242   4.536  -4.342  0.00  0.00    +0.000 A 
ATOM      6  C   UNL     1       4.261   3.876  -5.000  0.00  0.00    +0.000 A 
ATOM      7  N   UNL     1       4.703   2.659  -4.607  0.00  0.00    +0.000 NA
ATOM      8  N   UNL     1       4.129   2.059  -3.514  0.00  0.00    +0.000 NA
ATOM      9  H   UNL     1       2.617   2.748  -0.907  0.00  0.00    +0.000 HD
BRANCH   6  10
ATOM     10  C   UNL     1       4.937   4.486  -6.177  0.00  0.00    +0.000 C 
ATOM     11  N   UNL     1       5.954   3.756  -6.734  0.00  0.00    +0.000 N 
ATOM     12  O   UNL     1       4.614   5.580  -6.623  0.00  0.00    +0.000 OA
ATOM     13  H   UNL     1       6.211   2.850  -6.359  0.00  0.00    +0.000 HD
ATOM     14  H   UNL     1       6.447   4.130  -7.532  0.00  0.00    +0.000 HD
ENDBRANCH   6  10
ENDBRANCH   1   2
BRANCH   1  16
ATOM     15  C   UNL     1       1.049  -0.069  -0.082  0.00  0.00    +0.000 C 
ATOM     16  C   UNL     1       2.479   0.371  -0.033  0.00  0.00    +0.000 C 
BRANCH  16  17
ATOM     17  C   UNL     1       3.043   0.886   1.223  0.00  0.00    +0.000 A 
ATOM     18  C   UNL     1       4.354   0.579   1.602  0.00  0.00    +0.000 A 
ATOM     19  C   UNL     1       4.916   1.161   2.743  0.00  0.00    +0.000 A 
ATOM     20  C   UNL     1       4.177   2.071   3.498  0.00  0.00    +0.000 A 
ATOM     21  C   UNL     1       2.861   2.388   3.136  0.00  0.00    +0.000 A 
ATOM     22  C   UNL     1       2.296   1.765   2.013  0.00  0.00    +0.000 A 
BRANCH  21  23
ATOM     23  C   UNL     1       2.051   3.412   3.888  0.00  0.00    +0.000 C 
ATOM     24  F   UNL     1       2.735   4.022   4.894  0.00  0.00    +0.000 F 
ATOM     25  F   UNL     1       1.615   4.414   3.073  0.00  0.00    +0.000 F 
ATOM     26  F   UNL     1       0.933   2.882   4.456  0.00  0.00    +0.000 F 
ENDBRANCH  21  23
ENDBRANCH  16  17
ENDBRANCH   1  16
TORSDOF 5
