REMARK  Name = 
REMARK  5 active torsions:
REMARK  status: ('A' for Active; 'I' for Inactive)
REMARK    1  A    between atoms: C_1  and  S_2
REMARK    2  A    between atoms: S_2  and  N_5
REMARK    3  A    between atoms: C_8  and  C_9
REMARK    4  A    between atoms: C_9  and  N_10
REMARK    5  A    between atoms: C_15  and  C_16
REMARK                            x       y       z     vdW  Elec       q    Type
REMARK                         _______ _______ _______ _____ _____    ______ ____
ROOT
ATOM      1  N   UNL     1       5.049  -5.421   0.864  0.00  0.00    +0.000 N 
ATOM      2  C   UNL     1       5.658  -6.501   1.455  0.00  0.00    +0.000 A 
ATOM      3  C   UNL     1       5.057  -7.644   0.982  0.00  0.00    +0.000 A 
ATOM      4  C   UNL     1       4.044  -7.255   0.064  0.00  0.00    +0.000 A 
ATOM      5  C   UNL     1       3.093  -7.974  -0.698  0.00  0.00    +0.000 A 
ATOM      6  C   UNL     1       2.212  -7.285  -1.547  0.00  0.00    +0.000 A 
ATOM      7  C   UNL     1       2.333  -5.901  -1.681  0.00  0.00    +0.000 A 
ATOM      8  C   UNL     1       3.297  -5.180  -0.971  0.00  0.00    +0.000 A 
ATOM      9  C   UNL     1       4.107  -5.862  -0.052  0.00  0.00    +0.000 A 
ENDROOT
BRANCH   6  10
ATOM     10  C   UNL     1       1.133  -7.955  -2.330  0.00  0.00    +0.000 C 
ATOM     11  N   UNL     1       1.037  -9.317  -2.292  0.00  0.00    +0.000 N 
ATOM     12  O   UNL     1       0.332  -7.312  -3.002  0.00  0.00    +0.000 OA
ATOM     13  H   UNL     1       1.674  -9.932  -1.814  0.00  0.00    +0.000 HD
ATOM     14  H   UNL     1       0.300  -9.733  -2.847  0.00  0.00    +0.000 HD
ENDBRANCH   6  10
BRANCH   1  15
ATOM     15  C   UNL     1       5.416  -4.037   1.143  0.00  0.00    +0.000 C 
BRANCH  15  19
ATOM     16  N   UNL     1       3.348  -0.963   1.351  0.00  0.00    +0.000 NA
ATOM     17  C   UNL     1       2.773  -2.322   1.140  0.00  0.00    +0.000 C 
ATOM     18  C   UNL     1       3.184  -3.288   2.242  0.00  0.00    +0.000 C 
ATOM     19  C   UNL     1       4.709  -3.398   2.367  0.00  0.00    +0.000 C 
ATOM     20  C   UNL     1       5.237  -1.978   2.641  0.00  0.00    +0.000 C 
ATOM     21  C   UNL     1       4.828  -0.973   1.562  0.00  0.00    +0.000 C 
BRANCH  16  23
ATOM     22  C   UNL     1       1.206   0.514   0.543  0.00  0.00    +0.000 C 
ATOM     23  S   UNL     1       2.892   0.148   0.106  0.00  0.00    +0.000 S 
ATOM     24  O   UNL     1       2.913  -0.568  -1.153  0.00  0.00    +0.000 OA
ATOM     25  O   UNL     1       3.663   1.359   0.288  0.00  0.00    +0.000 OA
ENDBRANCH  16  23
ENDBRANCH  15  19
ENDBRANCH   1  15
TORSDOF 4
