REMARK  Name = 
REMARK  6 active torsions:
REMARK  status: ('A' for Active; 'I' for Inactive)
REMARK    1  A    between atoms: C_2  and  C_3
REMARK    2  A    between atoms: C_6  and  C_7
REMARK    3  A    between atoms: C_11  and  C_12
REMARK    4  A    between atoms: C_12  and  N_13
REMARK    5  A    between atoms: N_13  and  C_14
REMARK    6  A    between atoms: C_17  and  C_18
REMARK                            x       y       z     vdW  Elec       q    Type
REMARK                         _______ _______ _______ _____ _____    ______ ____
ROOT
ATOM      1  C   UNL     1       6.335   1.169   2.455  0.00  0.00    +0.000 C 
ATOM      2  C   UNL     1       7.290   2.354   2.386  0.00  0.00    +0.000 C 
ATOM      3  C   UNL     1       7.814   1.030   2.820  0.00  0.00    +0.000 C 
ENDROOT
BRANCH   1   8
ATOM      4  C   UNL     1       5.984  -1.193  -0.406  0.00  0.00    +0.000 A 
ATOM      5  C   UNL     1       5.182  -0.512  -1.317  0.00  0.00    +0.000 A 
ATOM      6  C   UNL     1       4.696   0.743  -0.982  0.00  0.00    +0.000 A 
ATOM      7  C   UNL     1       5.043   1.294   0.246  0.00  0.00    +0.000 A 
ATOM      8  C   UNL     1       5.867   0.579   1.119  0.00  0.00    +0.000 A 
ATOM      9  N   UNL     1       6.297  -0.669   0.802  0.00  0.00    +0.000 NA
BRANCH   4  13
ATOM     10  C   UNL     1       7.741  -5.025  -1.245  0.00  0.00    +0.000 A 
ATOM     11  C   UNL     1       7.537  -4.109  -2.276  0.00  0.00    +0.000 A 
ATOM     12  C   UNL     1       6.968  -2.865  -2.001  0.00  0.00    +0.000 A 
ATOM     13  C   UNL     1       6.585  -2.507  -0.695  0.00  0.00    +0.000 A 
ATOM     14  C   UNL     1       6.820  -3.439   0.333  0.00  0.00    +0.000 A 
ATOM     15  C   UNL     1       7.385  -4.688   0.063  0.00  0.00    +0.000 A 
BRANCH  10  17
ATOM     16  N   UNL     1       8.781  -7.343  -1.748  0.00  0.00    +0.000 NA
ATOM     17  C   UNL     1       8.321  -6.300  -1.528  0.00  0.00    +0.000 C 
ENDBRANCH  10  17
ENDBRANCH   4  13
ENDBRANCH   1   8
BRANCH   1  18
ATOM     18  N   UNL     1       5.405   0.902   3.588  0.00  0.00    +0.000 N 
ATOM     19  H   UNL     1       5.100  -0.072   3.618  0.00  0.00    +0.000 HD
BRANCH  18  20
ATOM     20  C   UNL     1       4.356   1.775   3.935  0.00  0.00    +0.000 A 
ATOM     21  C   UNL     1       3.449   1.425   4.945  0.00  0.00    +0.000 A 
ATOM     22  C   UNL     1       2.451   2.323   5.340  0.00  0.00    +0.000 A 
ATOM     23  C   UNL     1       2.403   3.562   4.718  0.00  0.00    +0.000 A 
ATOM     24  N   UNL     1       3.279   3.959   3.759  0.00  0.00    +0.000 NA
ATOM     25  C   UNL     1       4.232   3.061   3.418  0.00  0.00    +0.000 A 
BRANCH  23  26
ATOM     26  C   UNL     1       1.351   4.559   5.084  0.00  0.00    +0.000 C 
ATOM     27  N   UNL     1       1.424   5.746   4.395  0.00  0.00    +0.000 N 
ATOM     28  O   UNL     1       0.497   4.353   5.930  0.00  0.00    +0.000 OA
ATOM     29  H   UNL     1       2.159   5.874   3.708  0.00  0.00    +0.000 HD
ATOM     30  H   UNL     1       0.750   6.475   4.571  0.00  0.00    +0.000 HD
ENDBRANCH  23  26
ENDBRANCH  18  20
ENDBRANCH   1  18
TORSDOF 6
