REMARK  Name = 
REMARK  6 active torsions:
REMARK  status: ('A' for Active; 'I' for Inactive)
REMARK    1  A    between atoms: C_2  and  C_20
REMARK    2  A    between atoms: N_3  and  C_4
REMARK    3  A    between atoms: C_4  and  C_5
REMARK    4  A    between atoms: C_8  and  C_9
REMARK    5  A    between atoms: C_9  and  N_10
REMARK    6  A    between atoms: C_11  and  C_13
REMARK                            x       y       z     vdW  Elec       q    Type
REMARK                         _______ _______ _______ _____ _____    ______ ____
ROOT
ATOM      1  C   UNL     1       2.268  -1.416   2.108  0.00  0.00    +0.000 C 
ENDROOT
BRANCH   1   2
ATOM      2  C   UNL     1       3.201  -1.949   3.167  0.00  0.00    +0.000 A 
ATOM      3  C   UNL     1       3.970  -1.076   3.949  0.00  0.00    +0.000 A 
ATOM      4  C   UNL     1       4.779  -1.563   4.984  0.00  0.00    +0.000 A 
ATOM      5  C   UNL     1       4.857  -2.938   5.245  0.00  0.00    +0.000 A 
ATOM      6  C   UNL     1       4.109  -3.812   4.445  0.00  0.00    +0.000 A 
ATOM      7  C   UNL     1       3.300  -3.325   3.410  0.00  0.00    +0.000 A 
BRANCH   5   8
ATOM      8  C   UNL     1       5.745  -3.468   6.344  0.00  0.00    +0.000 C 
BRANCH   8   9
ATOM      9  N   UNL     1       5.061  -3.612   7.613  0.00  0.00    +0.000 N 
ATOM     10  C   UNL     1       5.735  -4.147   8.688  0.00  0.00    +0.000 C 
ATOM     11  O   UNL     1       6.891  -4.556   8.598  0.00  0.00    +0.000 OA
ATOM     12  H   UNL     1       4.219  -3.070   7.773  0.00  0.00    +0.000 HD
BRANCH  10  13
ATOM     13  C   UNL     1       4.978  -4.265  10.007  0.00  0.00    +0.000 C 
ATOM     14  C   UNL     1       3.766  -5.162   9.923  0.00  0.00    +0.000 C 
ATOM     15  C   UNL     1       2.622  -4.210   9.638  0.00  0.00    +0.000 C 
ATOM     16  O   UNL     1       3.057  -2.887   9.978  0.00  0.00    +0.000 OA
ATOM     17  C   UNL     1       4.399  -2.953  10.480  0.00  0.00    +0.000 C 
ENDBRANCH  10  13
ENDBRANCH   8   9
ENDBRANCH   5   8
ENDBRANCH   1   2
BRANCH   1  20
ATOM     18  O   UNL     1       0.957  -0.639  -0.195  0.00  0.00    +0.000 OA
ATOM     19  C   UNL     1       2.168  -0.827  -0.258  0.00  0.00    +0.000 C 
ATOM     20  N   UNL     1       2.892  -1.296   0.812  0.00  0.00    +0.000 N 
ATOM     21  H   UNL     1       3.905  -1.233   0.794  0.00  0.00    +0.000 HD
BRANCH  19  22
ATOM     22  C   UNL     1       2.908  -0.583  -1.502  0.00  0.00    +0.000 A 
ATOM     23  C   UNL     1       2.256  -0.649  -2.725  0.00  0.00    +0.000 A 
ATOM     24  S   UNL     1       3.268  -0.305  -4.060  0.00  0.00    +0.000 S 
ATOM     25  C   UNL     1       4.597  -0.021  -3.038  0.00  0.00    +0.000 A 
ATOM     26  N   UNL     1       5.802   0.370  -3.547  0.00  0.00    +0.000 NA
ATOM     27  C   UNL     1       6.709   0.589  -2.655  0.00  0.00    +0.000 A 
ATOM     28  N   UNL     1       6.532   0.437  -1.304  0.00  0.00    +0.000 N 
ATOM     29  C   UNL     1       5.353   0.002  -0.752  0.00  0.00    +0.000 A 
ATOM     30  O   UNL     1       5.253  -0.197   0.453  0.00  0.00    +0.000 OA
ATOM     31  C   UNL     1       4.288  -0.222  -1.706  0.00  0.00    +0.000 A 
ATOM     32  H   UNL     1       7.292   0.601  -0.660  0.00  0.00    +0.000 HD
ENDBRANCH  19  22
ENDBRANCH   1  20
TORSDOF 6
