REMARK  Name = 
REMARK  9 active torsions:
REMARK  status: ('A' for Active; 'I' for Inactive)
REMARK    1  A    between atoms: C_1  and  N_2
REMARK    2  A    between atoms: N_2  and  C_3
REMARK    3  A    between atoms: C_3  and  C_4
REMARK    4  A    between atoms: C_7  and  C_8
REMARK    5  A    between atoms: N_10  and  CA_11
REMARK    6  A    between atoms: CA_11  and  C_12
REMARK    7  A    between atoms: CA_11  and  C_14
REMARK    8  A    between atoms: C_12  and  O_13
REMARK    9  A    between atoms: C_21  and  C_23
REMARK                            x       y       z     vdW  Elec       q    Type
REMARK                         _______ _______ _______ _____ _____    ______ ____
ROOT
ATOM      1  C   UNL     1      -1.327   2.335  -2.916  0.00  0.00    +0.000 A 
ATOM      2  C   UNL     1      -1.232   3.113  -1.750  0.00  0.00    +0.000 A 
ATOM      3  C   UNL     1      -1.365   4.507  -1.796  0.00  0.00    +0.000 A 
ATOM      4  C   UNL     1      -1.641   5.161  -3.003  0.00  0.00    +0.000 A 
ATOM      5  C   UNL     1      -1.657   4.401  -4.183  0.00  0.00    +0.000 A 
ATOM      6  C   UNL     1      -1.500   3.001  -4.137  0.00  0.00    +0.000 A 
ENDROOT
BRANCH   4   7
ATOM      7  C   UNL     1      -1.970   6.628  -2.941  0.00  0.00    +0.000 C 
ATOM      8  O   UNL     1      -1.622   7.300  -1.978  0.00  0.00    +0.000 OA
ATOM      9  N   UNL     1      -2.736   7.146  -3.966  0.00  0.00    +0.000 N 
ATOM     10  H   UNL     1      -3.043   6.521  -4.698  0.00  0.00    +0.000 HD
BRANCH   9  11
ATOM     11  CA  UNL     1      -3.362   8.479  -3.988  0.00  0.00    +0.000 C 
BRANCH  11  12
ATOM     12  C   UNL     1      -4.640   8.588  -3.173  0.00  0.00    +0.000 A 
ATOM     13  N   UNL     1      -5.743   9.144  -3.649  0.00  0.00    +0.000 NA
ATOM     14  C   UNL     1      -6.742   9.121  -2.695  0.00  0.00    +0.000 A 
ATOM     15  C   UNL     1      -6.410   8.518  -1.503  0.00  0.00    +0.000 A 
ATOM     16  S   UNL     1      -4.775   8.019  -1.550  0.00  0.00    +0.000 S 
ENDBRANCH  11  12
BRANCH  11  17
ATOM     17  C   UNL     1      -2.418   9.680  -3.780  0.00  0.00    +0.000 C 
BRANCH  17  18
ATOM     18  O   UNL     1      -1.997   9.888  -2.436  0.00  0.00    +0.000 OA
ATOM     19  H   UNL     1      -1.851   9.002  -2.034  0.00  0.00    +0.000 HD
ENDBRANCH  17  18
ENDBRANCH  11  17
ENDBRANCH   9  11
ENDBRANCH   4   7
BRANCH   1  20
ATOM     20  C   UNL     1      -1.190   0.826  -2.830  0.00  0.00    +0.000 C 
BRANCH  20  22
ATOM     21  C   UNL     1      -3.701   0.669  -2.539  0.00  0.00    +0.000 C 
ATOM     22  N   UNL     1      -2.407   0.009  -2.670  0.00  0.00    +0.000 N 
ATOM     23  C   UNL     1      -2.424  -1.400  -2.752  0.00  0.00    +0.000 C 
ATOM     24  O   UNL     1      -3.479  -2.030  -2.772  0.00  0.00    +0.000 OA
BRANCH  23  25
ATOM     25  C   UNL     1      -1.157  -2.147  -2.750  0.00  0.00    +0.000 A 
ATOM     26  C   UNL     1      -0.126  -1.935  -1.850  0.00  0.00    +0.000 A 
ATOM     27  S   UNL     1       1.161  -3.048  -2.009  0.00  0.00    +0.000 S 
ATOM     28  C   UNL     1       0.318  -3.937  -3.186  0.00  0.00    +0.000 A 
ATOM     29  N   UNL     1       0.817  -5.102  -3.684  0.00  0.00    +0.000 NA
ATOM     30  C   UNL     1       0.029  -5.702  -4.507  0.00  0.00    +0.000 A 
ATOM     31  N   UNL     1      -1.192  -5.227  -4.920  0.00  0.00    +0.000 N 
ATOM     32  C   UNL     1      -1.667  -3.983  -4.561  0.00  0.00    +0.000 A 
ATOM     33  O   UNL     1      -2.623  -3.477  -5.138  0.00  0.00    +0.000 OA
ATOM     34  C   UNL     1      -0.876  -3.331  -3.531  0.00  0.00    +0.000 A 
ATOM     35  H   UNL     1      -1.725  -5.711  -5.624  0.00  0.00    +0.000 HD
ENDBRANCH  23  25
ENDBRANCH  20  22
ENDBRANCH   1  20
TORSDOF 8
