REMARK  Name = 
REMARK  11 active torsions:
REMARK  status: ('A' for Active; 'I' for Inactive)
REMARK    1  A    between atoms: N_1  and  C_2
REMARK    2  A    between atoms: C_2  and  C_3
REMARK    3  A    between atoms: C_3  and  C_4
REMARK    4  A    between atoms: C_4  and  N_5
REMARK    5  A    between atoms: C_4  and  C_22
REMARK    6  A    between atoms: N_5  and  C_6
REMARK    7  A    between atoms: C_6  and  C_7
REMARK    8  A    between atoms: C_10  and  C_11
REMARK    9  A    between atoms: C_11  and  N_12
REMARK   10  A    between atoms: N_12  and  C_13
REMARK   11  A    between atoms: C_13  and  C_14
REMARK                            x       y       z     vdW  Elec       q    Type
REMARK                         _______ _______ _______ _____ _____    ______ ____
ROOT
ATOM      1  N   UNL     1       5.251   0.236   0.218  0.00  0.00    +0.000 NA
ATOM      2  H   UNL     1       5.437  -0.236   1.109  0.00  0.00    +0.000 HD
ENDROOT
BRANCH   1   3
ATOM      3  C   UNL     1       4.590  -0.733  -0.676  0.00  0.00    +0.000 C 
BRANCH   3   4
ATOM      4  C   UNL     1       5.708  -1.615  -1.206  0.00  0.00    +0.000 A 
ATOM      5  C   UNL     1       6.747  -2.143  -0.451  0.00  0.00    +0.000 A 
ATOM      6  S   UNL     1       8.109  -2.548  -1.407  0.00  0.00    +0.000 S 
ATOM      7  C   UNL     1       7.278  -2.176  -2.844  0.00  0.00    +0.000 A 
ATOM      8  N   UNL     1       7.895  -2.182  -4.058  0.00  0.00    +0.000 NA
ATOM      9  C   UNL     1       7.100  -1.969  -5.052  0.00  0.00    +0.000 A 
ATOM     10  N   UNL     1       5.742  -1.801  -4.944  0.00  0.00    +0.000 N 
ATOM     11  C   UNL     1       5.074  -1.787  -3.748  0.00  0.00    +0.000 A 
ATOM     12  O   UNL     1       3.852  -1.752  -3.679  0.00  0.00    +0.000 OA
ATOM     13  C   UNL     1       5.949  -1.898  -2.595  0.00  0.00    +0.000 A 
ATOM     14  H   UNL     1       5.168  -1.756  -5.777  0.00  0.00    +0.000 HD
ENDBRANCH   3   4
BRANCH   3  15
ATOM     15  C   UNL     1       3.368  -1.460  -0.087  0.00  0.00    +0.000 C 
BRANCH  15  16
ATOM     16  C   UNL     1       3.572  -2.324   1.157  0.00  0.00    +0.000 C 
BRANCH  16  17
ATOM     17  N   UNL     1       4.105  -1.593   2.303  0.00  0.00    +0.000 NA
ATOM     18  H   UNL     1       4.117  -2.211   3.115  0.00  0.00    +0.000 HD
ATOM     19  H   UNL     1       3.474  -0.830   2.553  0.00  0.00    +0.000 HD
ENDBRANCH  16  17
ENDBRANCH  15  16
ENDBRANCH   3  15
ENDBRANCH   1   3
BRANCH   1  20
ATOM     20  C   UNL     1       4.423   1.412   0.501  0.00  0.00    +0.000 C 
BRANCH  20  21
ATOM     21  C   UNL     1       5.126   2.541   1.248  0.00  0.00    +0.000 A 
ATOM     22  N   UNL     1       5.758   3.479   0.512  0.00  0.00    +0.000 NA
ATOM     23  C   UNL     1       6.101   4.616   1.150  0.00  0.00    +0.000 A 
ATOM     24  C   UNL     1       5.833   4.866   2.480  0.00  0.00    +0.000 A 
ATOM     25  C   UNL     1       5.273   3.805   3.160  0.00  0.00    +0.000 A 
ATOM     26  N   UNL     1       4.906   2.643   2.579  0.00  0.00    +0.000 NA
BRANCH  24  27
ATOM     27  C   UNL     1       6.078   6.204   3.108  0.00  0.00    +0.000 C 
BRANCH  27  28
ATOM     28  N   UNL     1       5.309   7.238   2.421  0.00  0.00    +0.000 NA
ATOM     29  H   UNL     1       4.313   7.012   2.461  0.00  0.00    +0.000 HD
BRANCH  28  30
ATOM     30  C   UNL     1       5.512   8.563   2.990  0.00  0.00    +0.000 C 
BRANCH  30  31
ATOM     31  C   UNL     1       4.685   9.600   2.263  0.00  0.00    +0.000 A 
ATOM     32  C   UNL     1       3.715  10.350   2.933  0.00  0.00    +0.000 A 
ATOM     33  C   UNL     1       2.996  11.297   2.214  0.00  0.00    +0.000 A 
ATOM     34  N   UNL     1       3.174  11.543   0.899  0.00  0.00    +0.000 NA
ATOM     35  C   UNL     1       4.114  10.805   0.270  0.00  0.00    +0.000 A 
ATOM     36  C   UNL     1       4.886   9.841   0.898  0.00  0.00    +0.000 A 
ENDBRANCH  30  31
ENDBRANCH  28  30
ENDBRANCH  27  28
ENDBRANCH  24  27
ENDBRANCH  20  21
ENDBRANCH   1  20
TORSDOF 11
