REMARK  Name = 
REMARK  6 active torsions:
REMARK  status: ('A' for Active; 'I' for Inactive)
REMARK    1  A    between atoms: C_5  and  O_6
REMARK    2  A    between atoms: O_6  and  C_7
REMARK    3  A    between atoms: C_7  and  C_8
REMARK    4  A    between atoms: C_8  and  C_9
REMARK    5  A    between atoms: C_13  and  O_14
REMARK    6  A    between atoms: O_14  and  C_15
REMARK                            x       y       z     vdW  Elec       q    Type
REMARK                         _______ _______ _______ _____ _____    ______ ____
ROOT
ATOM      1  C   UNL     1       4.924  -3.795  -0.039  0.00  0.00    +0.000 A 
ATOM      2  C   UNL     1       5.610  -5.007  -0.099  0.00  0.00    +0.000 A 
ATOM      3  N   UNL     1       6.964  -5.082  -0.106  0.00  0.00    +0.000 NA
ATOM      4  C   UNL     1       7.607  -3.892  -0.040  0.00  0.00    +0.000 A 
ATOM      5  C   UNL     1       6.935  -2.682   0.014  0.00  0.00    +0.000 A 
ATOM      6  N   UNL     1       5.587  -2.606   0.011  0.00  0.00    +0.000 NA
ENDROOT
BRANCH   1   7
ATOM      7  C   UNL     1       3.417  -3.786  -0.032  0.00  0.00    +0.000 C 
BRANCH   7   8
ATOM      8  C   UNL     1       2.855  -2.372   0.067  0.00  0.00    +0.000 C 
BRANCH   8   9
ATOM      9  O   UNL     1       1.426  -2.413   0.053  0.00  0.00    +0.000 OA
BRANCH   9  14
ATOM     10  C   UNL     1       0.665   1.207   0.290  0.00  0.00    +0.000 A 
ATOM     11  C   UNL     1      -0.713   1.089   0.263  0.00  0.00    +0.000 A 
ATOM     12  N   UNL     1      -1.359  -0.092   0.171  0.00  0.00    +0.000 NA
ATOM     13  C   UNL     1      -0.584  -1.202   0.106  0.00  0.00    +0.000 A 
ATOM     14  C   UNL     1       0.807  -1.196   0.127  0.00  0.00    +0.000 A 
ATOM     15  C   UNL     1       1.434   0.047   0.222  0.00  0.00    +0.000 A 
ENDBRANCH   9  14
ENDBRANCH   8   9
ENDBRANCH   7   8
ENDBRANCH   1   7
BRANCH   5  16
ATOM     16  O   UNL     1       7.672  -1.520   0.105  0.00  0.00    +0.000 OA
BRANCH  16  17
ATOM     17  C   UNL     1       7.079  -0.355  -0.515  0.00  0.00    +0.000 C 
ATOM     18  C   UNL     1       7.903   0.950  -0.408  0.00  0.00    +0.000 C 
ATOM     19  N   UNL     1       6.644   1.705  -0.211  0.00  0.00    +0.000 NA
ATOM     20  C   UNL     1       6.011   0.448   0.262  0.00  0.00    +0.000 C 
ATOM     21  H   UNL     1       6.248   2.056  -1.084  0.00  0.00    +0.000 HD
ENDBRANCH  16  17
ENDBRANCH   5  16
TORSDOF 6
