REMARK  Name = 
REMARK  7 active torsions:
REMARK  status: ('A' for Active; 'I' for Inactive)
REMARK    1  A    between atoms: C_1  and  C_2
REMARK    2  A    between atoms: C_2  and  C_3
REMARK    3  A    between atoms: C_2  and  C_4
REMARK    4  A    between atoms: C_2  and  C_5
REMARK    5  A    between atoms: N_8  and  C_9
REMARK    6  A    between atoms: C_9  and  C_10
REMARK    7  A    between atoms: C_15  and  C_16
REMARK                            x       y       z     vdW  Elec       q    Type
REMARK                         _______ _______ _______ _____ _____    ______ ____
ROOT
ATOM      1  C   UNL     1       4.983  -4.442  -2.566  0.00  0.00    +0.000 A 
ATOM      2  N   UNL     1       5.905  -4.248  -3.494  0.00  0.00    +0.000 NA
ATOM      3  N   UNL     1       7.106  -4.700  -3.015  0.00  0.00    +0.000 NA
ATOM      4  C   UNL     1       6.889  -5.216  -1.832  0.00  0.00    +0.000 A 
ATOM      5  C   UNL     1       7.748  -5.791  -0.830  0.00  0.00    +0.000 A 
ATOM      6  C   UNL     1       7.173  -6.835  -0.176  0.00  0.00    +0.000 A 
ATOM      7  C   UNL     1       5.810  -6.568   0.350  0.00  0.00    +0.000 A 
ATOM      8  C   UNL     1       5.007  -5.743  -0.364  0.00  0.00    +0.000 A 
ATOM      9  N   UNL     1       5.532  -5.152  -1.522  0.00  0.00    +0.000 N 
ENDROOT
BRANCH   6  10
ATOM     10  C   UNL     1       7.413  -8.111  -0.955  0.00  0.00    +0.000 C 
ATOM     11  N   UNL     1       6.606  -9.171  -0.662  0.00  0.00    +0.000 N 
ATOM     12  O   UNL     1       8.288  -8.242  -1.802  0.00  0.00    +0.000 OA
ATOM     13  H   UNL     1       5.887  -9.161   0.038  0.00  0.00    +0.000 HD
ATOM     14  H   UNL     1       6.741 -10.001  -1.219  0.00  0.00    +0.000 HD
ENDBRANCH   6  10
BRANCH   1  15
ATOM     15  C   UNL     1       3.586  -3.973  -2.657  0.00  0.00    +0.000 C 
BRANCH  15  19
ATOM     16  C   UNL     1       3.100  -0.811  -1.212  0.00  0.00    +0.000 A 
ATOM     17  C   UNL     1       3.562  -0.369  -2.477  0.00  0.00    +0.000 A 
ATOM     18  C   UNL     1       3.828  -1.516  -3.185  0.00  0.00    +0.000 A 
ATOM     19  N   UNL     1       3.534  -2.553  -2.348  0.00  0.00    +0.000 N 
ATOM     20  N   UNL     1       3.116  -2.152  -1.131  0.00  0.00    +0.000 NA
BRANCH  16  22
ATOM     21  C   UNL     1       2.579   1.516  -0.339  0.00  0.00    +0.000 C 
ATOM     22  C   UNL     1       2.582   0.003  -0.040  0.00  0.00    +0.000 C 
ATOM     23  C   UNL     1       3.453  -0.234   1.209  0.00  0.00    +0.000 C 
ATOM     24  C   UNL     1       1.130  -0.423   0.267  0.00  0.00    +0.000 C 
ENDBRANCH  16  22
ENDBRANCH  15  19
ENDBRANCH   1  15
TORSDOF 4
