REMARK  Name = 
REMARK  4 active torsions:
REMARK  status: ('A' for Active; 'I' for Inactive)
REMARK    1  A    between atoms: C_2  and  C_4
REMARK    2  A    between atoms: C_7  and  C_8
REMARK    3  A    between atoms: C_8  and  N_9
REMARK    4  A    between atoms: C_14  and  C_15
REMARK                            x       y       z     vdW  Elec       q    Type
REMARK                         _______ _______ _______ _____ _____    ______ ____
ROOT
ATOM      1  N   UNL     1       4.929  -2.766   5.342  0.00  0.00    +0.000 N 
ATOM      2  C   UNL     1       5.509  -3.270   6.491  0.00  0.00    +0.000 A 
ATOM      3  C   UNL     1       6.326  -2.518   7.325  0.00  0.00    +0.000 A 
ATOM      4  C   UNL     1       6.822  -3.084   8.493  0.00  0.00    +0.000 A 
ATOM      5  C   UNL     1       6.459  -4.382   8.820  0.00  0.00    +0.000 A 
ATOM      6  C   UNL     1       5.609  -5.081   7.967  0.00  0.00    +0.000 A 
ATOM      7  N   UNL     1       5.161  -4.538   6.803  0.00  0.00    +0.000 NA
ATOM      8  H   UNL     1       4.551  -3.542   4.806  0.00  0.00    +0.000 HD
ENDROOT
BRANCH   6   9
ATOM      9  C   UNL     1       5.130  -6.441   8.279  0.00  0.00    +0.000 A 
ATOM     10  C   UNL     1       4.920  -6.887   9.595  0.00  0.00    +0.000 A 
ATOM     11  C   UNL     1       4.489  -8.190   9.847  0.00  0.00    +0.000 A 
ATOM     12  C   UNL     1       4.270  -9.026   8.771  0.00  0.00    +0.000 A 
ATOM     13  N   UNL     1       4.439  -8.649   7.488  0.00  0.00    +0.000 NA
ATOM     14  C   UNL     1       4.854  -7.370   7.277  0.00  0.00    +0.000 A 
ENDBRANCH   6   9
BRANCH   1  15
ATOM     15  C   UNL     1       5.589  -1.727   4.576  0.00  0.00    +0.000 C 
BRANCH  15  19
ATOM     16  C   UNL     1       3.329  -0.440   1.108  0.00  0.00    +0.000 A 
ATOM     17  C   UNL     1       2.653  -0.916   2.236  0.00  0.00    +0.000 A 
ATOM     18  C   UNL     1       3.376  -1.341   3.357  0.00  0.00    +0.000 A 
ATOM     19  C   UNL     1       4.780  -1.323   3.359  0.00  0.00    +0.000 A 
ATOM     20  C   UNL     1       5.445  -0.833   2.224  0.00  0.00    +0.000 A 
ATOM     21  C   UNL     1       4.727  -0.405   1.104  0.00  0.00    +0.000 A 
BRANCH  16  23
ATOM     22  N   UNL     1       1.342   0.505   0.059  0.00  0.00    +0.000 N 
ATOM     23  C   UNL     1       2.609   0.019  -0.108  0.00  0.00    +0.000 C 
ATOM     24  O   UNL     1       3.137   0.005  -1.213  0.00  0.00    +0.000 OA
ATOM     25  H   UNL     1       0.908   0.912  -0.760  0.00  0.00    +0.000 HD
ATOM     26  H   UNL     1       0.976   0.764   0.963  0.00  0.00    +0.000 HD
ENDBRANCH  16  23
ENDBRANCH  15  19
ENDBRANCH   1  15
TORSDOF 4
