REMARK  Name = 
REMARK  6 active torsions:
REMARK  status: ('A' for Active; 'I' for Inactive)
REMARK    1  A    between atoms: C_1  and  C_2
REMARK    2  A    between atoms: C_2  and  N_3
REMARK    3  A    between atoms: C_2  and  C_4
REMARK    4  A    between atoms: C_7  and  C_8
REMARK    5  A    between atoms: C_8  and  N_9
REMARK    6  A    between atoms: C_14  and  C_15
REMARK                            x       y       z     vdW  Elec       q    Type
REMARK                         _______ _______ _______ _____ _____    ______ ____
ROOT
ATOM      1  N   UNL     1       6.169  -4.743  -3.096  0.00  0.00    +0.000 N 
ATOM      2  C   UNL     1       6.852  -4.099  -4.102  0.00  0.00    +0.000 A 
ATOM      3  C   UNL     1       8.180  -4.444  -4.000  0.00  0.00    +0.000 A 
ATOM      4  C   UNL     1       8.299  -5.362  -2.933  0.00  0.00    +0.000 A 
ATOM      5  N   UNL     1       9.419  -5.957  -2.455  0.00  0.00    +0.000 NA
ATOM      6  C   UNL     1       9.199  -6.816  -1.424  0.00  0.00    +0.000 A 
ATOM      7  C   UNL     1       7.956  -7.139  -0.890  0.00  0.00    +0.000 A 
ATOM      8  C   UNL     1       6.814  -6.520  -1.395  0.00  0.00    +0.000 A 
ATOM      9  C   UNL     1       7.020  -5.589  -2.420  0.00  0.00    +0.000 A 
ENDROOT
BRANCH   6  10
ATOM     10  C   UNL     1      10.427  -7.428  -0.813  0.00  0.00    +0.000 C 
ATOM     11  N   UNL     1      11.616  -7.078  -1.389  0.00  0.00    +0.000 N 
ATOM     12  O   UNL     1      10.380  -8.186   0.150  0.00  0.00    +0.000 OA
ATOM     13  H   UNL     1      11.624  -6.426  -2.166  0.00  0.00    +0.000 HD
ATOM     14  H   UNL     1      12.482  -7.429  -1.004  0.00  0.00    +0.000 HD
ENDBRANCH   6  10
BRANCH   1  15
ATOM     15  C   UNL     1       4.758  -4.532  -2.815  0.00  0.00    +0.000 C 
BRANCH  15  19
ATOM     16  C   UNL     1       3.089  -0.886  -0.940  0.00  0.00    +0.000 C 
ATOM     17  C   UNL     1       2.558  -2.273  -0.531  0.00  0.00    +0.000 C 
ATOM     18  C   UNL     1       2.955  -3.366  -1.520  0.00  0.00    +0.000 C 
ATOM     19  C   UNL     1       4.473  -3.458  -1.737  0.00  0.00    +0.000 C 
ATOM     20  C   UNL     1       5.033  -2.074  -2.104  0.00  0.00    +0.000 C 
ATOM     21  C   UNL     1       4.618  -0.978  -1.117  0.00  0.00    +0.000 C 
BRANCH  16  23
ATOM     22  C   UNL     1       1.149   0.332   0.239  0.00  0.00    +0.000 C 
ATOM     23  C   UNL     1       2.670   0.209   0.087  0.00  0.00    +0.000 C 
BRANCH  23  24
ATOM     24  N   UNL     1       3.155   1.541  -0.283  0.00  0.00    +0.000 NA
ATOM     25  H   UNL     1       2.766   1.821  -1.182  0.00  0.00    +0.000 HD
ATOM     26  H   UNL     1       4.167   1.542  -0.388  0.00  0.00    +0.000 HD
ENDBRANCH  23  24
ENDBRANCH  16  23
ENDBRANCH  15  19
ENDBRANCH   1  15
TORSDOF 5
