REMARK  Name = 
REMARK  4 active torsions:
REMARK  status: ('A' for Active; 'I' for Inactive)
REMARK    1  A    between atoms: C_4  and  C_5
REMARK    2  A    between atoms: C_9  and  C_10
REMARK    3  A    between atoms: C_10  and  N_11
REMARK    4  A    between atoms: N_11  and  C_12
REMARK                            x       y       z     vdW  Elec       q    Type
REMARK                         _______ _______ _______ _____ _____    ______ ____
ROOT
ATOM      1  C   UNL     1      -2.784   0.547   0.035  0.00  0.00    +0.000 A 
ATOM      2  C   UNL     1      -3.726  -0.070   0.871  0.00  0.00    +0.000 A 
ATOM      3  C   UNL     1      -5.087   0.227   0.768  0.00  0.00    +0.000 A 
ATOM      4  C   UNL     1      -5.537   1.130  -0.197  0.00  0.00    +0.000 A 
ATOM      5  C   UNL     1      -4.644   1.763  -1.070  0.00  0.00    +0.000 A 
ATOM      6  C   UNL     1      -3.274   1.471  -0.909  0.00  0.00    +0.000 A 
ENDROOT
BRANCH   1  10
ATOM      7  C   UNL     1       1.458  -0.204   0.287  0.00  0.00    +0.000 A 
ATOM      8  C   UNL     1       0.862   0.044  -0.945  0.00  0.00    +0.000 A 
ATOM      9  C   UNL     1      -0.516   0.257  -1.025  0.00  0.00    +0.000 A 
ATOM     10  C   UNL     1      -1.332   0.256   0.124  0.00  0.00    +0.000 A 
ATOM     11  C   UNL     1      -0.705  -0.009   1.353  0.00  0.00    +0.000 A 
ATOM     12  C   UNL     1       0.675  -0.239   1.435  0.00  0.00    +0.000 A 
ENDBRANCH   1  10
BRANCH   5  13
ATOM     13  C   UNL     1      -5.110   2.719  -2.167  0.00  0.00    +0.000 C 
ATOM     14  C   UNL     1      -6.008   2.174  -3.260  0.00  0.00    +0.000 C 
ATOM     15  C   UNL     1      -4.580   2.461  -3.580  0.00  0.00    +0.000 C 
BRANCH  13  16
ATOM     16  N   UNL     1      -5.075   4.141  -1.794  0.00  0.00    +0.000 N 
ATOM     17  H   UNL     1      -4.149   4.498  -1.566  0.00  0.00    +0.000 HD
BRANCH  16  18
ATOM     18  C   UNL     1      -6.103   4.872  -1.171  0.00  0.00    +0.000 A 
ATOM     19  C   UNL     1      -7.383   4.395  -0.939  0.00  0.00    +0.000 A 
ATOM     20  C   UNL     1      -8.320   5.257  -0.391  0.00  0.00    +0.000 A 
ATOM     21  N   UNL     1      -8.061   6.546  -0.091  0.00  0.00    +0.000 NA
ATOM     22  N   UNL     1      -6.831   7.040  -0.344  0.00  0.00    +0.000 NA
ATOM     23  C   UNL     1      -5.896   6.219  -0.875  0.00  0.00    +0.000 A 
ENDBRANCH  16  18
ENDBRANCH  13  16
ENDBRANCH   5  13
TORSDOF 4
