REMARK  Name = 
REMARK  8 active torsions:
REMARK  status: ('A' for Active; 'I' for Inactive)
REMARK    1  A    between atoms: C_1  and  C_2
REMARK    2  A    between atoms: C_2  and  C_3
REMARK    3  A    between atoms: C_3  and  N_4
REMARK    4  A    between atoms: C_3  and  C_17
REMARK    5  A    between atoms: C_5  and  C_7
REMARK    6  A    between atoms: C_20  and  C_21
REMARK    7  A    between atoms: C_21  and  N_22
REMARK    8  A    between atoms: C_23  and  C_25
REMARK                            x       y       z     vdW  Elec       q    Type
REMARK                         _______ _______ _______ _____ _____    ______ ____
ROOT
ATOM      1  C   UNL     1       2.905  -0.495  -1.533  0.00  0.00    +0.000 C 
ENDROOT
BRANCH   1   2
ATOM      2  C   UNL     1       4.432  -0.460  -1.421  0.00  0.00    +0.000 A 
ATOM      3  C   UNL     1       5.111   0.744  -1.189  0.00  0.00    +0.000 A 
ATOM      4  C   UNL     1       6.512   0.774  -1.095  0.00  0.00    +0.000 A 
ATOM      5  C   UNL     1       7.270  -0.396  -1.236  0.00  0.00    +0.000 A 
ATOM      6  C   UNL     1       6.592  -1.604  -1.448  0.00  0.00    +0.000 A 
ATOM      7  C   UNL     1       5.195  -1.635  -1.541  0.00  0.00    +0.000 A 
BRANCH   5   8
ATOM      8  C   UNL     1       8.778  -0.359  -1.184  0.00  0.00    +0.000 C 
BRANCH   8   9
ATOM      9  N   UNL     1       9.304  -0.518   0.150  0.00  0.00    +0.000 N 
ATOM     10  C   UNL     1      10.661  -0.606   0.386  0.00  0.00    +0.000 C 
ATOM     11  O   UNL     1      11.508  -0.557  -0.500  0.00  0.00    +0.000 OA
ATOM     12  H   UNL     1       8.693  -0.478   0.960  0.00  0.00    +0.000 HD
BRANCH  10  13
ATOM     13  C   UNL     1      11.053  -0.777   1.827  0.00  0.00    +0.000 A 
ATOM     14  C   UNL     1      12.397  -0.829   2.183  0.00  0.00    +0.000 A 
ATOM     15  C   UNL     1      12.719  -1.004   3.527  0.00  0.00    +0.000 A 
ATOM     16  C   UNL     1      11.697  -1.125   4.462  0.00  0.00    +0.000 A 
ATOM     17  C   UNL     1      10.384  -1.060   4.016  0.00  0.00    +0.000 A 
ATOM     18  N   UNL     1      10.030  -0.883   2.723  0.00  0.00    +0.000 NA
ENDBRANCH  10  13
ENDBRANCH   8   9
ENDBRANCH   5   8
ENDBRANCH   1   2
BRANCH   1  19
ATOM     19  N   UNL     1       2.387  -1.344  -0.468  0.00  0.00    +0.000 N 
ATOM     20  C   UNL     1       1.057  -1.540  -0.199  0.00  0.00    +0.000 C 
ATOM     21  O   UNL     1       0.149  -1.080  -0.886  0.00  0.00    +0.000 OA
ATOM     22  H   UNL     1       3.048  -1.526   0.279  0.00  0.00    +0.000 HD
BRANCH  20  23
ATOM     23  C   UNL     1       0.777  -2.415   0.943  0.00  0.00    +0.000 A 
ATOM     24  C   UNL     1      -0.363  -3.207   0.973  0.00  0.00    +0.000 A 
ATOM     25  S   UNL     1      -0.485  -4.163   2.384  0.00  0.00    +0.000 S 
ATOM     26  C   UNL     1       0.953  -3.510   3.021  0.00  0.00    +0.000 A 
ATOM     27  N   UNL     1       1.414  -3.875   4.247  0.00  0.00    +0.000 NA
ATOM     28  C   UNL     1       2.496  -3.268   4.610  0.00  0.00    +0.000 A 
ATOM     29  N   UNL     1       3.166  -2.342   3.854  0.00  0.00    +0.000 N 
ATOM     30  C   UNL     1       2.765  -1.979   2.597  0.00  0.00    +0.000 A 
ATOM     31  O   UNL     1       3.436  -1.211   1.917  0.00  0.00    +0.000 OA
ATOM     32  C   UNL     1       1.534  -2.601   2.150  0.00  0.00    +0.000 A 
ATOM     33  H   UNL     1       4.025  -1.923   4.182  0.00  0.00    +0.000 HD
ENDBRANCH  20  23
ENDBRANCH   1  19
BRANCH   1  35
ATOM     34  C   UNL     1       2.909  -0.141  -4.074  0.00  0.00    +0.000 C 
ATOM     35  C   UNL     1       2.438  -1.000  -2.911  0.00  0.00    +0.000 C 
ENDBRANCH   1  35
TORSDOF 7
