REMARK  Name = 
REMARK  5 active torsions:
REMARK  status: ('A' for Active; 'I' for Inactive)
REMARK    1  A    between atoms: N_1  and  C_2
REMARK    2  A    between atoms: C_2  and  C_3
REMARK    3  A    between atoms: C_7  and  C_8
REMARK    4  A    between atoms: C_8  and  N_9
REMARK    5  A    between atoms: C_15  and  O_16
REMARK                            x       y       z     vdW  Elec       q    Type
REMARK                         _______ _______ _______ _____ _____    ______ ____
ROOT
ATOM      1  C   UNL     1       4.670  -1.807  -4.495  0.00  0.00    +0.000 C 
ENDROOT
BRANCH   1   2
ATOM      2  N   UNL     1       4.393  -0.672  -5.351  0.00  0.00    +0.000 N 
ATOM      3  C   UNL     1       5.128   0.480  -5.432  0.00  0.00    +0.000 A 
ATOM      4  N   UNL     1       4.493   1.420  -6.101  0.00  0.00    +0.000 NA
ATOM      5  C   UNL     1       3.310   0.839  -6.485  0.00  0.00    +0.000 A 
ATOM      6  C   UNL     1       2.195   1.361  -7.148  0.00  0.00    +0.000 A 
ATOM      7  C   UNL     1       1.133   0.484  -7.398  0.00  0.00    +0.000 A 
ATOM      8  C   UNL     1       1.245  -0.845  -7.000  0.00  0.00    +0.000 A 
ATOM      9  N   UNL     1       2.281  -1.388  -6.332  0.00  0.00    +0.000 NA
ATOM     10  C   UNL     1       3.261  -0.493  -6.097  0.00  0.00    +0.000 A 
BRANCH   8  11
ATOM     11  O   UNL     1       0.235  -1.727  -7.272  0.00  0.00    +0.000 OA
ATOM     12  H   UNL     1      -0.385  -1.290  -7.873  0.00  0.00    +0.000 HD
ENDBRANCH   8  11
ENDBRANCH   1   2
BRANCH   1  17
ATOM     13  C   UNL     1       1.852  -2.080  -1.937  0.00  0.00    +0.000 A 
ATOM     14  C   UNL     1       2.406  -1.274  -0.946  0.00  0.00    +0.000 A 
ATOM     15  N   UNL     1       3.635  -0.711  -1.021  0.00  0.00    +0.000 NA
ATOM     16  C   UNL     1       4.331  -0.929  -2.155  0.00  0.00    +0.000 A 
ATOM     17  C   UNL     1       3.874  -1.699  -3.220  0.00  0.00    +0.000 A 
ATOM     18  C   UNL     1       2.609  -2.281  -3.095  0.00  0.00    +0.000 A 
BRANCH  13  19
ATOM     19  C   UNL     1       0.479  -2.665  -1.771  0.00  0.00    +0.000 C 
BRANCH  19  20
ATOM     20  N   UNL     1      -0.553  -1.768  -2.272  0.00  0.00    +0.000 NA
ATOM     21  H   UNL     1      -1.458  -2.229  -2.208  0.00  0.00    +0.000 HD
ATOM     22  H   UNL     1      -0.389  -1.601  -3.266  0.00  0.00    +0.000 HD
ENDBRANCH  19  20
ENDBRANCH  13  19
ENDBRANCH   1  17
TORSDOF 5
