REMARK  Name = 
REMARK  4 active torsions:
REMARK  status: ('A' for Active; 'I' for Inactive)
REMARK    1  A    between atoms: C_2  and  C_4
REMARK    2  A    between atoms: N_8  and  C_9
REMARK    3  A    between atoms: C_9  and  C_10
REMARK    4  A    between atoms: C_14  and  C_15
REMARK                            x       y       z     vdW  Elec       q    Type
REMARK                         _______ _______ _______ _____ _____    ______ ____
ROOT
ATOM      1  C   UNL     1       2.253   2.243   1.868  0.00  0.00    +0.000 A 
ATOM      2  C   UNL     1       1.924   2.269   3.218  0.00  0.00    +0.000 A 
ATOM      3  C   UNL     1       2.926   2.058   4.164  0.00  0.00    +0.000 A 
ATOM      4  C   UNL     1       4.228   1.797   3.750  0.00  0.00    +0.000 A 
ATOM      5  N   UNL     1       5.284   1.674   4.628  0.00  0.00    +0.000 N 
ATOM      6  N   UNL     1       4.553   1.747   2.444  0.00  0.00    +0.000 NA
ATOM      7  C   UNL     1       3.567   1.963   1.531  0.00  0.00    +0.000 A 
ATOM      8  H   UNL     1       6.110   1.399   4.101  0.00  0.00    +0.000 HD
ENDROOT
BRANCH   1  10
ATOM      9  N   UNL     1       0.192   3.288   1.136  0.00  0.00    +0.000 N 
ATOM     10  C   UNL     1       1.258   2.495   0.808  0.00  0.00    +0.000 C 
ATOM     11  O   UNL     1       1.393   2.040  -0.321  0.00  0.00    +0.000 OA
ATOM     12  H   UNL     1      -0.437   3.532   0.382  0.00  0.00    +0.000 HD
ATOM     13  H   UNL     1       0.177   3.871   1.959  0.00  0.00    +0.000 HD
ENDBRANCH   1  10
BRANCH   5  14
ATOM     14  C   UNL     1       5.125   1.003   5.905  0.00  0.00    +0.000 C 
BRANCH  14  15
ATOM     15  C   UNL     1       6.134   1.508   6.902  0.00  0.00    +0.000 A 
ATOM     16  C   UNL     1       6.516   0.714   7.974  0.00  0.00    +0.000 A 
ATOM     17  N   UNL     1       7.333   1.127   8.965  0.00  0.00    +0.000 NA
ATOM     18  C   UNL     1       7.788   2.402   8.887  0.00  0.00    +0.000 A 
ATOM     19  C   UNL     1       7.487   3.308   7.868  0.00  0.00    +0.000 A 
ATOM     20  C   UNL     1       6.631   2.821   6.870  0.00  0.00    +0.000 A 
BRANCH  19  21
ATOM     21  C   UNL     1       8.022   4.686   7.840  0.00  0.00    +0.000 A 
ATOM     22  C   UNL     1       9.293   4.990   8.349  0.00  0.00    +0.000 A 
ATOM     23  C   UNL     1       9.755   6.297   8.297  0.00  0.00    +0.000 A 
ATOM     24  N   UNL     1       9.054   7.322   7.776  0.00  0.00    +0.000 NA
ATOM     25  C   UNL     1       7.838   7.025   7.280  0.00  0.00    +0.000 A 
ATOM     26  C   UNL     1       7.289   5.751   7.293  0.00  0.00    +0.000 A 
ENDBRANCH  19  21
ENDBRANCH  14  15
ENDBRANCH   5  14
TORSDOF 4
