REMARK  Name = 
REMARK  5 active torsions:
REMARK  status: ('A' for Active; 'I' for Inactive)
REMARK    1  A    between atoms: C_2  and  C_4
REMARK    2  A    between atoms: C_7  and  O_8
REMARK    3  A    between atoms: O_8  and  C_9
REMARK    4  A    between atoms: C_9  and  C_10
REMARK    5  A    between atoms: C_14  and  C_15
REMARK                            x       y       z     vdW  Elec       q    Type
REMARK                         _______ _______ _______ _____ _____    ______ ____
ROOT
ATOM      1  C   UNL     1       5.134   5.662   1.135  0.00  0.00    +0.000 C 
ATOM      2  C   UNL     1       5.064   5.814   2.651  0.00  0.00    +0.000 C 
ATOM      3  C   UNL     1       3.832   6.000   1.828  0.00  0.00    +0.000 C 
ENDROOT
BRANCH   1   4
ATOM      4  C   UNL     1       5.895   6.721   0.350  0.00  0.00    +0.000 A 
ATOM      5  C   UNL     1       7.293   6.811   0.446  0.00  0.00    +0.000 A 
ATOM      6  C   UNL     1       8.015   7.738  -0.304  0.00  0.00    +0.000 A 
ATOM      7  C   UNL     1       7.352   8.596  -1.177  0.00  0.00    +0.000 A 
ATOM      8  C   UNL     1       5.959   8.538  -1.317  0.00  0.00    +0.000 A 
ATOM      9  C   UNL     1       5.249   7.605  -0.540  0.00  0.00    +0.000 A 
BRANCH   8  10
ATOM     10  C   UNL     1       5.238   9.395  -2.349  0.00  0.00    +0.000 C 
ATOM     11  C   UNL     1       5.662   8.980  -3.768  0.00  0.00    +0.000 C 
ATOM     12  C   UNL     1       5.113   9.927  -4.822  0.00  0.00    +0.000 C 
ATOM     13  O   UNL     1       5.470  11.275  -4.524  0.00  0.00    +0.000 OA
ATOM     14  C   UNL     1       4.900  11.713  -3.292  0.00  0.00    +0.000 C 
ATOM     15  C   UNL     1       5.449  10.902  -2.126  0.00  0.00    +0.000 C 
ENDBRANCH   8  10
ENDBRANCH   1   4
BRANCH   1  16
ATOM     16  O   UNL     1       5.388   4.279   0.789  0.00  0.00    +0.000 OA
BRANCH  16  20
ATOM     17  C   UNL     1       3.805   2.687  -2.660  0.00  0.00    +0.000 A 
ATOM     18  C   UNL     1       4.725   1.956  -1.907  0.00  0.00    +0.000 A 
ATOM     19  C   UNL     1       5.253   2.525  -0.752  0.00  0.00    +0.000 A 
ATOM     20  C   UNL     1       4.844   3.802  -0.389  0.00  0.00    +0.000 A 
ATOM     21  N   UNL     1       3.957   4.537  -1.092  0.00  0.00    +0.000 NA
ATOM     22  C   UNL     1       3.473   3.968  -2.227  0.00  0.00    +0.000 A 
BRANCH  17  24
ATOM     23  N   UNL     1       3.088   0.808  -4.027  0.00  0.00    +0.000 N 
ATOM     24  C   UNL     1       3.188   2.166  -3.899  0.00  0.00    +0.000 C 
ATOM     25  O   UNL     1       2.759   2.918  -4.759  0.00  0.00    +0.000 OA
ATOM     26  H   UNL     1       2.577   0.474  -4.835  0.00  0.00    +0.000 HD
ATOM     27  H   UNL     1       3.196   0.174  -3.250  0.00  0.00    +0.000 HD
ENDBRANCH  17  24
ENDBRANCH  16  20
ENDBRANCH   1  16
TORSDOF 5
