REMARK  Name = 
REMARK  7 active torsions:
REMARK  status: ('A' for Active; 'I' for Inactive)
REMARK    1  A    between atoms: C_2  and  C_4
REMARK    2  A    between atoms: C_7  and  C_8
REMARK    3  A    between atoms: C_8  and  N_9
REMARK    4  A    between atoms: N_9  and  C_10
REMARK    5  A    between atoms: C_10  and  C_11
REMARK    6  A    between atoms: C_11  and  C_12
REMARK    7  A    between atoms: C_15  and  C_16
REMARK                            x       y       z     vdW  Elec       q    Type
REMARK                         _______ _______ _______ _____ _____    ______ ____
ROOT
ATOM      1  N   UNL     1       6.139  -3.955   2.928  0.00  0.00    +0.000 NA
ATOM      2  H   UNL     1       5.442  -3.437   3.467  0.00  0.00    +0.000 HD
ENDROOT
BRANCH   1   3
ATOM      3  C   UNL     1       5.556  -4.412   1.669  0.00  0.00    +0.000 C 
ATOM      4  C   UNL     1       6.279  -5.214   0.612  0.00  0.00    +0.000 C 
ATOM      5  C   UNL     1       5.196  -5.861   1.418  0.00  0.00    +0.000 C 
BRANCH   3   9
ATOM      6  C   UNL     1       2.689  -1.474   0.164  0.00  0.00    +0.000 A 
ATOM      7  C   UNL     1       4.051  -1.332  -0.123  0.00  0.00    +0.000 A 
ATOM      8  C   UNL     1       4.968  -2.270   0.366  0.00  0.00    +0.000 A 
ATOM      9  C   UNL     1       4.554  -3.367   1.143  0.00  0.00    +0.000 A 
ATOM     10  C   UNL     1       3.185  -3.459   1.454  0.00  0.00    +0.000 A 
ATOM     11  C   UNL     1       2.263  -2.530   0.972  0.00  0.00    +0.000 A 
BRANCH   6  13
ATOM     12  N   UNL     1       1.947   0.127  -1.515  0.00  0.00    +0.000 N 
ATOM     13  C   UNL     1       1.667  -0.526  -0.348  0.00  0.00    +0.000 C 
ATOM     14  O   UNL     1       0.594  -0.367   0.220  0.00  0.00    +0.000 OA
ATOM     15  H   UNL     1       1.187   0.664  -1.914  0.00  0.00    +0.000 HD
ATOM     16  H   UNL     1       2.682  -0.176  -2.137  0.00  0.00    +0.000 HD
ENDBRANCH   6  13
ENDBRANCH   3   9
ENDBRANCH   1   3
BRANCH   1  17
ATOM     17  C   UNL     1       7.183  -4.492   3.814  0.00  0.00    +0.000 C 
ATOM     18  C   UNL     1       8.411  -5.213   3.310  0.00  0.00    +0.000 C 
ATOM     19  C   UNL     1       7.360  -5.974   4.057  0.00  0.00    +0.000 C 
BRANCH  17  20
ATOM     20  C   UNL     1       7.388  -3.610   5.064  0.00  0.00    +0.000 C 
BRANCH  20  21
ATOM     21  C   UNL     1       7.829  -2.205   4.716  0.00  0.00    +0.000 A 
ATOM     22  C   UNL     1       9.081  -1.970   4.155  0.00  0.00    +0.000 A 
ATOM     23  C   UNL     1       9.464  -0.661   3.870  0.00  0.00    +0.000 A 
ATOM     24  C   UNL     1       8.595   0.395   4.150  0.00  0.00    +0.000 A 
ATOM     25  C   UNL     1       7.367   0.072   4.706  0.00  0.00    +0.000 A 
ATOM     26  N   UNL     1       6.967  -1.194   5.000  0.00  0.00    +0.000 NA
BRANCH  24  27
ATOM     27  C   UNL     1       9.039   1.778   3.851  0.00  0.00    +0.000 C 
ATOM     28  N   UNL     1       8.195   2.822   4.116  0.00  0.00    +0.000 N 
ATOM     29  O   UNL     1      10.147   1.997   3.374  0.00  0.00    +0.000 OA
ATOM     30  H   UNL     1       7.264   2.752   4.491  0.00  0.00    +0.000 HD
ATOM     31  H   UNL     1       8.546   3.746   3.896  0.00  0.00    +0.000 HD
ENDBRANCH  24  27
ENDBRANCH  20  21
ENDBRANCH  17  20
ENDBRANCH   1  17
TORSDOF 7
