REMARK  Name = 
REMARK  7 active torsions:
REMARK  status: ('A' for Active; 'I' for Inactive)
REMARK    1  A    between atoms: C_1  and  C_2
REMARK    2  A    between atoms: C_2  and  N_3
REMARK    3  A    between atoms: C_2  and  C_16
REMARK    4  A    between atoms: C_4  and  C_6
REMARK    5  A    between atoms: C_19  and  C_20
REMARK    6  A    between atoms: C_20  and  N_21
REMARK    7  A    between atoms: C_22  and  C_24
REMARK                            x       y       z     vdW  Elec       q    Type
REMARK                         _______ _______ _______ _____ _____    ______ ____
ROOT
ATOM      1  C   UNL     1       2.924  -0.864  -1.326  0.00  0.00    +0.000 C 
ATOM      2  C   UNL     1       2.517  -0.000  -0.129  0.00  0.00    +0.000 C 
ENDROOT
BRANCH   2   3
ATOM      3  C   UNL     1       3.041   1.424  -0.227  0.00  0.00    +0.000 A 
ATOM      4  C   UNL     1       2.134   2.494  -0.222  0.00  0.00    +0.000 A 
ATOM      5  C   UNL     1       2.582   3.817  -0.290  0.00  0.00    +0.000 A 
ATOM      6  C   UNL     1       3.950   4.107  -0.370  0.00  0.00    +0.000 A 
ATOM      7  C   UNL     1       4.862   3.044  -0.348  0.00  0.00    +0.000 A 
ATOM      8  C   UNL     1       4.413   1.717  -0.285  0.00  0.00    +0.000 A 
BRANCH   6   9
ATOM      9  C   UNL     1       4.419   5.530  -0.509  0.00  0.00    +0.000 C 
BRANCH   9  10
ATOM     10  N   UNL     1       4.623   6.194   0.753  0.00  0.00    +0.000 N 
ATOM     11  C   UNL     1       5.037   7.505   0.797  0.00  0.00    +0.000 C 
ATOM     12  O   UNL     1       5.278   8.162  -0.214  0.00  0.00    +0.000 OA
ATOM     13  H   UNL     1       4.410   5.736   1.634  0.00  0.00    +0.000 HD
BRANCH  11  14
ATOM     14  C   UNL     1       5.164   8.056   2.133  0.00  0.00    +0.000 A 
ATOM     15  N   UNL     1       4.932   7.402   3.259  0.00  0.00    +0.000 NA
ATOM     16  C   UNL     1       5.180   8.306   4.263  0.00  0.00    +0.000 A 
ATOM     17  C   UNL     1       5.562   9.522   3.747  0.00  0.00    +0.000 A 
ATOM     18  N   UNL     1       5.545   9.349   2.391  0.00  0.00    +0.000 N 
ATOM     19  H   UNL     1       5.770  10.033   1.680  0.00  0.00    +0.000 HD
ENDBRANCH  11  14
ENDBRANCH   9  10
ENDBRANCH   6   9
ENDBRANCH   2   3
BRANCH   2  20
ATOM     20  N   UNL     1       2.971  -0.603   1.109  0.00  0.00    +0.000 N 
ATOM     21  C   UNL     1       2.252  -1.558   1.777  0.00  0.00    +0.000 C 
ATOM     22  O   UNL     1       1.098  -1.855   1.481  0.00  0.00    +0.000 OA
ATOM     23  H   UNL     1       3.958  -0.511   1.308  0.00  0.00    +0.000 HD
BRANCH  21  24
ATOM     24  C   UNL     1       2.937  -2.179   2.914  0.00  0.00    +0.000 A 
ATOM     25  C   UNL     1       2.212  -2.639   4.004  0.00  0.00    +0.000 A 
ATOM     26  S   UNL     1       3.186  -3.320   5.229  0.00  0.00    +0.000 S 
ATOM     27  C   UNL     1       4.605  -3.059   4.325  0.00  0.00    +0.000 A 
ATOM     28  N   UNL     1       5.821  -3.440   4.800  0.00  0.00    +0.000 NA
ATOM     29  C   UNL     1       6.804  -3.212   3.995  0.00  0.00    +0.000 A 
ATOM     30  N   UNL     1       6.683  -2.635   2.757  0.00  0.00    +0.000 N 
ATOM     31  C   UNL     1       5.483  -2.193   2.254  0.00  0.00    +0.000 A 
ATOM     32  O   UNL     1       5.424  -1.605   1.179  0.00  0.00    +0.000 OA
ATOM     33  C   UNL     1       4.342  -2.445   3.114  0.00  0.00    +0.000 A 
ATOM     34  H   UNL     1       7.496  -2.467   2.184  0.00  0.00    +0.000 HD
ENDBRANCH  21  24
ENDBRANCH   2  20
TORSDOF 6
