REMARK  Name = 
REMARK  9 active torsions:
REMARK  status: ('A' for Active; 'I' for Inactive)
REMARK    1  A    between atoms: N_1  and  C_2
REMARK    2  A    between atoms: C_2  and  N_3
REMARK    3  A    between atoms: C_2  and  C_19
REMARK    4  A    between atoms: N_3  and  C_4
REMARK    5  A    between atoms: C_4  and  C_5
REMARK    6  A    between atoms: C_8  and  C_9
REMARK    7  A    between atoms: C_9  and  O_10
REMARK    8  A    between atoms: C_9  and  C_11
REMARK    9  A    between atoms: C_11  and  N_12
REMARK                            x       y       z     vdW  Elec       q    Type
REMARK                         _______ _______ _______ _____ _____    ______ ____
ROOT
ATOM      1  N   UNL     1       6.514  -9.914   1.340  0.00  0.00    +0.000 NA
ATOM      2  H   UNL     1       5.801 -10.474   1.817  0.00  0.00    +0.000 HD
ENDROOT
BRANCH   1   3
ATOM      3  C   UNL     1       7.463 -10.877   0.821  0.00  0.00    +0.000 C 
BRANCH   3   4
ATOM      4  C   UNL     1       6.723 -11.723  -0.197  0.00  0.00    +0.000 A 
ATOM      5  C   UNL     1       6.943 -11.728  -1.568  0.00  0.00    +0.000 A 
ATOM      6  S   UNL     1       5.906 -12.775  -2.430  0.00  0.00    +0.000 S 
ATOM      7  C   UNL     1       5.140 -13.283  -1.000  0.00  0.00    +0.000 A 
ATOM      8  N   UNL     1       4.134 -14.198  -1.023  0.00  0.00    +0.000 NA
ATOM      9  C   UNL     1       3.655 -14.485   0.142  0.00  0.00    +0.000 A 
ATOM     10  N   UNL     1       4.083 -13.942   1.325  0.00  0.00    +0.000 N 
ATOM     11  C   UNL     1       5.067 -12.980   1.387  0.00  0.00    +0.000 A 
ATOM     12  O   UNL     1       5.383 -12.438   2.452  0.00  0.00    +0.000 OA
ATOM     13  C   UNL     1       5.663 -12.654   0.108  0.00  0.00    +0.000 A 
ATOM     14  H   UNL     1       3.643 -14.193   2.197  0.00  0.00    +0.000 HD
ENDBRANCH   3   4
BRANCH   3  15
ATOM     15  N   UNL     1       8.492 -10.133   0.139  0.00  0.00    +0.000 NA
ATOM     16  H   UNL     1       9.087  -9.680   0.820  0.00  0.00    +0.000 HD
ATOM     17  H   UNL     1       8.002  -9.388  -0.352  0.00  0.00    +0.000 HD
ENDBRANCH   3  15
ENDBRANCH   1   3
BRANCH   1  18
ATOM     18  C   UNL     1       7.049  -9.002   2.342  0.00  0.00    +0.000 C 
BRANCH  18  19
ATOM     19  C   UNL     1       5.979  -8.102   2.907  0.00  0.00    +0.000 A 
ATOM     20  C   UNL     1       4.909  -8.605   3.651  0.00  0.00    +0.000 A 
ATOM     21  C   UNL     1       4.054  -7.729   4.315  0.00  0.00    +0.000 A 
ATOM     22  C   UNL     1       4.314  -6.362   4.246  0.00  0.00    +0.000 A 
ATOM     23  N   UNL     1       5.278  -5.842   3.440  0.00  0.00    +0.000 NA
ATOM     24  C   UNL     1       6.070  -6.720   2.781  0.00  0.00    +0.000 A 
BRANCH  22  25
ATOM     25  C   UNL     1       3.631  -5.392   5.208  0.00  0.00    +0.000 C 
BRANCH  25  26
ATOM     26  O   UNL     1       3.530  -4.109   4.577  0.00  0.00    +0.000 OA
ATOM     27  H   UNL     1       4.244  -4.108   3.907  0.00  0.00    +0.000 HD
ENDBRANCH  25  26
BRANCH  25  28
ATOM     28  C   UNL     1       4.498  -5.296   6.503  0.00  0.00    +0.000 C 
BRANCH  28  29
ATOM     29  N   UNL     1       4.073  -4.517   7.686  0.00  0.00    +0.000 NA
ATOM     30  C   UNL     1       2.777  -4.892   8.245  0.00  0.00    +0.000 C 
ATOM     31  C   UNL     1       1.787  -3.934   7.616  0.00  0.00    +0.000 C 
ATOM     32  C   UNL     1       2.569  -2.638   7.543  0.00  0.00    +0.000 C 
ATOM     33  C   UNL     1       4.032  -3.065   7.470  0.00  0.00    +0.000 C 
ENDBRANCH  28  29
ENDBRANCH  25  28
ENDBRANCH  22  25
ENDBRANCH  18  19
ENDBRANCH   1  18
TORSDOF 9
