REMARK  Name = 
REMARK  8 active torsions:
REMARK  status: ('A' for Active; 'I' for Inactive)
REMARK    1  A    between atoms: C_1  and  N_2
REMARK    2  A    between atoms: N_2  and  C_3
REMARK    3  A    between atoms: C_3  and  C_4
REMARK    4  A    between atoms: C_4  and  C_5
REMARK    5  A    between atoms: C_8  and  C_9
REMARK    6  A    between atoms: C_9  and  O_10
REMARK    7  A    between atoms: O_10  and  C_11
REMARK    8  A    between atoms: C_14  and  C_15
REMARK                            x       y       z     vdW  Elec       q    Type
REMARK                         _______ _______ _______ _____ _____    ______ ____
ROOT
ATOM      1  C   UNL     1       6.035   4.862   5.003  0.00  0.00    +0.000 C 
ENDROOT
BRANCH   1   5
ATOM      2  C   UNL     1       5.010   2.031   2.052  0.00  0.00    +0.000 A 
ATOM      3  C   UNL     1       5.657   1.652   3.223  0.00  0.00    +0.000 A 
ATOM      4  N   UNL     1       6.015   2.533   4.189  0.00  0.00    +0.000 NA
ATOM      5  C   UNL     1       5.709   3.835   3.948  0.00  0.00    +0.000 A 
ATOM      6  C   UNL     1       5.084   4.216   2.767  0.00  0.00    +0.000 A 
ATOM      7  N   UNL     1       4.714   3.332   1.810  0.00  0.00    +0.000 NA
BRANCH   2   8
ATOM      8  C   UNL     1       4.578   1.012   1.031  0.00  0.00    +0.000 C 
BRANCH   8   9
ATOM      9  C   UNL     1       5.227   1.276  -0.331  0.00  0.00    +0.000 C 
BRANCH   9  11
ATOM     10  C   UNL     1       5.410   0.551  -2.616  0.00  0.00    +0.000 C 
ATOM     11  N   UNL     1       4.804   0.275  -1.319  0.00  0.00    +0.000 NA
ATOM     12  H   UNL     1       5.080  -0.657  -1.011  0.00  0.00    +0.000 HD
ENDBRANCH   9  11
ENDBRANCH   8   9
ENDBRANCH   2   8
ENDBRANCH   1   5
BRANCH   1  13
ATOM     13  O   UNL     1       7.328   5.416   4.759  0.00  0.00    +0.000 OA
BRANCH  13  14
ATOM     14  C   UNL     1       7.785   6.336   5.665  0.00  0.00    +0.000 A 
ATOM     15  C   UNL     1       7.060   6.867   6.734  0.00  0.00    +0.000 A 
ATOM     16  C   UNL     1       7.643   7.826   7.571  0.00  0.00    +0.000 A 
ATOM     17  C   UNL     1       8.959   8.252   7.358  0.00  0.00    +0.000 A 
ATOM     18  C   UNL     1       9.686   7.723   6.287  0.00  0.00    +0.000 A 
ATOM     19  C   UNL     1       9.097   6.770   5.450  0.00  0.00    +0.000 A 
BRANCH  17  20
ATOM     20  C   UNL     1       9.523   9.283   8.269  0.00  0.00    +0.000 C 
ATOM     21  N   UNL     1      10.882   9.332   8.407  0.00  0.00    +0.000 N 
ATOM     22  O   UNL     1       8.800  10.042   8.905  0.00  0.00    +0.000 OA
ATOM     23  H   UNL     1      11.489   8.586   8.098  0.00  0.00    +0.000 HD
ATOM     24  H   UNL     1      11.237   9.965   9.112  0.00  0.00    +0.000 HD
ENDBRANCH  17  20
ENDBRANCH  13  14
ENDBRANCH   1  13
TORSDOF 7
