REMARK  Name = 
REMARK  4 active torsions:
REMARK  status: ('A' for Active; 'I' for Inactive)
REMARK    1  A    between atoms: C_2  and  C_4
REMARK    2  A    between atoms: C_7  and  N_8
REMARK    3  A    between atoms: N_8  and  C_9
REMARK    4  A    between atoms: C_9  and  C_10
REMARK                            x       y       z     vdW  Elec       q    Type
REMARK                         _______ _______ _______ _____ _____    ______ ____
ROOT
ATOM      1  C   UNL     1       8.641   1.690   1.827  0.00  0.00    +0.000 A 
ATOM      2  C   UNL     1       8.613   2.646   2.828  0.00  0.00    +0.000 A 
ATOM      3  N   UNL     1       7.477   3.314   3.173  0.00  0.00    +0.000 NA
ATOM      4  C   UNL     1       6.359   3.014   2.474  0.00  0.00    +0.000 A 
ATOM      5  C   UNL     1       6.421   2.060   1.445  0.00  0.00    +0.000 A 
ATOM      6  N   UNL     1       7.537   1.362   1.104  0.00  0.00    +0.000 NA
ENDROOT
BRANCH   1   8
ATOM      7  N   UNL     1       9.842   0.064   0.488  0.00  0.00    +0.000 N 
ATOM      8  C   UNL     1       9.912   0.978   1.506  0.00  0.00    +0.000 C 
ATOM      9  O   UNL     1      10.952   1.188   2.113  0.00  0.00    +0.000 OA
ATOM     10  H   UNL     1      10.667  -0.451   0.219  0.00  0.00    +0.000 HD
ATOM     11  H   UNL     1       8.964  -0.088   0.004  0.00  0.00    +0.000 HD
ENDBRANCH   1   8
BRANCH   4  12
ATOM     12  N   UNL     1       5.140   3.698   2.712  0.00  0.00    +0.000 N 
ATOM     13  H   UNL     1       4.356   3.103   2.471  0.00  0.00    +0.000 HD
BRANCH  12  14
ATOM     14  C   UNL     1       4.958   4.408   4.005  0.00  0.00    +0.000 C 
ATOM     15  C   UNL     1       5.008   3.612   5.300  0.00  0.00    +0.000 C 
ATOM     16  C   UNL     1       3.689   4.095   4.798  0.00  0.00    +0.000 C 
BRANCH  14  17
ATOM     17  C   UNL     1       5.390   5.867   4.010  0.00  0.00    +0.000 A 
ATOM     18  C   UNL     1       4.587   6.887   3.476  0.00  0.00    +0.000 A 
ATOM     19  C   UNL     1       4.963   8.225   3.584  0.00  0.00    +0.000 A 
ATOM     20  C   UNL     1       6.153   8.519   4.225  0.00  0.00    +0.000 A 
ATOM     21  N   UNL     1       6.981   7.583   4.728  0.00  0.00    +0.000 NA
ATOM     22  C   UNL     1       6.585   6.291   4.595  0.00  0.00    +0.000 A 
ENDBRANCH  14  17
ENDBRANCH  12  14
ENDBRANCH   4  12
TORSDOF 4
