REMARK  Name = 
REMARK  9 active torsions:
REMARK  status: ('A' for Active; 'I' for Inactive)
REMARK    1  A    between atoms: C_1  and  O_2
REMARK    2  A    between atoms: O_2  and  C_3
REMARK    3  A    between atoms: C_10  and  C_11
REMARK    4  A    between atoms: N_13  and  C_14
REMARK    5  A    between atoms: C_14  and  C_15
REMARK    6  A    between atoms: C_18  and  C_19
REMARK    7  A    between atoms: C_19  and  N_20
REMARK    8  A    between atoms: N_20  and  C_21
REMARK    9  A    between atoms: C_21  and  C_22
REMARK                            x       y       z     vdW  Elec       q    Type
REMARK                         _______ _______ _______ _____ _____    ______ ____
ROOT
ATOM      1  C   UNL     1       1.611  -0.241  -3.378  0.00  0.00    +0.000 A 
ATOM      2  C   UNL     1       1.738  -1.631  -3.395  0.00  0.00    +0.000 A 
ATOM      3  C   UNL     1       0.598  -2.435  -3.349  0.00  0.00    +0.000 A 
ATOM      4  C   UNL     1      -0.654  -1.828  -3.302  0.00  0.00    +0.000 A 
ATOM      5  N   UNL     1      -0.805  -0.478  -3.319  0.00  0.00    +0.000 NA
ATOM      6  C   UNL     1       0.320   0.276  -3.355  0.00  0.00    +0.000 A 
ENDROOT
BRANCH   1   7
ATOM      7  C   UNL     1       2.810   0.662  -3.418  0.00  0.00    +0.000 C 
BRANCH   7  10
ATOM      8  C   UNL     1       4.323   1.685  -5.070  0.00  0.00    +0.000 C 
ATOM      9  O   UNL     1       5.022   2.166  -4.180  0.00  0.00    +0.000 OA
ATOM     10  N   UNL     1       3.212   0.943  -4.774  0.00  0.00    +0.000 N 
ATOM     11  H   UNL     1       2.615   0.614  -5.521  0.00  0.00    +0.000 HD
BRANCH   8  19
ATOM     12  C   UNL     1       2.899   0.564  -7.996  0.00  0.00    +0.000 A 
ATOM     13  N   UNL     1       2.595   0.223  -9.262  0.00  0.00    +0.000 NA
ATOM     14  C   UNL     1       3.379   0.673 -10.243  0.00  0.00    +0.000 A 
ATOM     15  N   UNL     1       4.452   1.446 -10.117  0.00  0.00    +0.000 NA
ATOM     16  C   UNL     1       4.725   1.761  -8.839  0.00  0.00    +0.000 A 
ATOM     17  S   UNL     1       6.059   2.750  -8.490  0.00  0.00    +0.000 S 
ATOM     18  C   UNL     1       5.753   2.658  -6.821  0.00  0.00    +0.000 A 
ATOM     19  C   UNL     1       4.651   1.877  -6.493  0.00  0.00    +0.000 A 
ATOM     20  C   UNL     1       4.022   1.359  -7.706  0.00  0.00    +0.000 A 
BRANCH  12  22
ATOM     21  C   UNL     1       0.917  -0.573  -7.464  0.00  0.00    +0.000 C 
ATOM     22  O   UNL     1       2.072   0.116  -6.985  0.00  0.00    +0.000 OA
ENDBRANCH  12  22
ENDBRANCH   8  19
ENDBRANCH   7  10
ENDBRANCH   1   7
BRANCH   4  23
ATOM     23  C   UNL     1      -1.914  -2.673  -3.232  0.00  0.00    +0.000 C 
BRANCH  23  24
ATOM     24  N   UNL     1      -2.892  -2.411  -4.299  0.00  0.00    +0.000 NA
ATOM     25  H   UNL     1      -3.103  -1.411  -4.264  0.00  0.00    +0.000 HD
BRANCH  24  26
ATOM     26  C   UNL     1      -2.370  -2.719  -5.632  0.00  0.00    +0.000 C 
BRANCH  26  27
ATOM     27  C   UNL     1      -3.419  -2.474  -6.688  0.00  0.00    +0.000 A 
ATOM     28  C   UNL     1      -4.635  -3.178  -6.656  0.00  0.00    +0.000 A 
ATOM     29  C   UNL     1      -5.613  -2.944  -7.622  0.00  0.00    +0.000 A 
ATOM     30  C   UNL     1      -5.381  -2.011  -8.625  0.00  0.00    +0.000 A 
ATOM     31  F   UNL     1      -6.323  -1.788  -9.551  0.00  0.00    +0.000 F 
ATOM     32  C   UNL     1      -4.186  -1.309  -8.686  0.00  0.00    +0.000 A 
ATOM     33  C   UNL     1      -3.217  -1.549  -7.720  0.00  0.00    +0.000 A 
ATOM     34  F   UNL     1      -2.064  -0.867  -7.790  0.00  0.00    +0.000 F 
ENDBRANCH  26  27
ENDBRANCH  24  26
ENDBRANCH  23  24
ENDBRANCH   4  23
TORSDOF 8
