REMARK  Name = 
REMARK  7 active torsions:
REMARK  status: ('A' for Active; 'I' for Inactive)
REMARK    1  A    between atoms: C_1  and  N_2
REMARK    2  A    between atoms: N_2  and  C_3
REMARK    3  A    between atoms: C_3  and  C_4
REMARK    4  A    between atoms: C_7  and  C_8
REMARK    5  A    between atoms: C_8  and  O_9
REMARK    6  A    between atoms: O_9  and  C_10
REMARK    7  A    between atoms: C_13  and  C_14
REMARK                            x       y       z     vdW  Elec       q    Type
REMARK                         _______ _______ _______ _____ _____    ______ ____
ROOT
ATOM      1  O   UNL     1       9.295  -0.815   0.527  0.00  0.00    +0.000 OA
ENDROOT
BRANCH   1   2
ATOM      2  C   UNL     1      10.649  -0.767   0.715  0.00  0.00    +0.000 A 
ATOM      3  C   UNL     1      11.619  -0.818  -0.285  0.00  0.00    +0.000 A 
ATOM      4  C   UNL     1      12.969  -0.750   0.058  0.00  0.00    +0.000 A 
ATOM      5  C   UNL     1      13.307  -0.634   1.398  0.00  0.00    +0.000 A 
ATOM      6  N   UNL     1      12.393  -0.587   2.408  0.00  0.00    +0.000 NA
ATOM      7  C   UNL     1      11.091  -0.656   2.032  0.00  0.00    +0.000 A 
BRANCH   5   8
ATOM      8  C   UNL     1      14.750  -0.543   1.787  0.00  0.00    +0.000 C 
ATOM      9  N   UNL     1      14.993  -0.422   3.127  0.00  0.00    +0.000 N 
ATOM     10  O   UNL     1      15.658  -0.570   0.964  0.00  0.00    +0.000 OA
ATOM     11  H   UNL     1      14.213  -0.394   3.776  0.00  0.00    +0.000 HD
ATOM     12  H   UNL     1      15.943  -0.340   3.458  0.00  0.00    +0.000 HD
ENDBRANCH   5   8
ENDBRANCH   1   2
BRANCH   1  13
ATOM     13  C   UNL     1       8.849  -0.877  -0.827  0.00  0.00    +0.000 C 
BRANCH  13  17
ATOM     14  C   UNL     1       4.521  -0.940  -0.994  0.00  0.00    +0.000 A 
ATOM     15  C   UNL     1       5.220   0.275  -0.966  0.00  0.00    +0.000 A 
ATOM     16  C   UNL     1       6.615   0.298  -0.905  0.00  0.00    +0.000 A 
ATOM     17  C   UNL     1       7.342  -0.898  -0.865  0.00  0.00    +0.000 A 
ATOM     18  C   UNL     1       6.646  -2.114  -0.866  0.00  0.00    +0.000 A 
ATOM     19  C   UNL     1       5.251  -2.135  -0.938  0.00  0.00    +0.000 A 
BRANCH  14  20
ATOM     20  C   UNL     1       3.009  -0.959  -1.063  0.00  0.00    +0.000 C 
BRANCH  20  22
ATOM     21  C   UNL     1       1.073  -0.310  -2.346  0.00  0.00    +0.000 C 
ATOM     22  N   UNL     1       2.526  -0.325  -2.291  0.00  0.00    +0.000 NA
ATOM     23  H   UNL     1       2.870   0.632  -2.328  0.00  0.00    +0.000 HD
ENDBRANCH  20  22
ENDBRANCH  14  20
ENDBRANCH  13  17
ENDBRANCH   1  13
TORSDOF 6
