REMARK  Name = 
REMARK  5 active torsions:
REMARK  status: ('A' for Active; 'I' for Inactive)
REMARK    1  A    between atoms: C_2  and  C_4
REMARK    2  A    between atoms: C_7  and  N_8
REMARK    3  A    between atoms: N_8  and  C_9
REMARK    4  A    between atoms: C_9  and  C_10
REMARK    5  A    between atoms: C_14  and  C_15
REMARK                            x       y       z     vdW  Elec       q    Type
REMARK                         _______ _______ _______ _____ _____    ______ ____
ROOT
ATOM      1  C   UNL     1       4.781   5.904  -1.497  0.00  0.00    +0.000 C 
ATOM      2  C   UNL     1       4.936   6.517  -0.107  0.00  0.00    +0.000 C 
ATOM      3  C   UNL     1       3.596   6.503  -0.764  0.00  0.00    +0.000 C 
ENDROOT
BRANCH   1   4
ATOM      4  C   UNL     1       5.305   6.664  -2.725  0.00  0.00    +0.000 A 
ATOM      5  C   UNL     1       6.592   7.203  -2.739  0.00  0.00    +0.000 A 
ATOM      6  C   UNL     1       7.079   7.802  -3.894  0.00  0.00    +0.000 A 
ATOM      7  C   UNL     1       6.277   7.835  -5.027  0.00  0.00    +0.000 A 
ATOM      8  C   UNL     1       4.998   7.285  -4.972  0.00  0.00    +0.000 A 
ATOM      9  N   UNL     1       4.513   6.729  -3.831  0.00  0.00    +0.000 NA
BRANCH   8  10
ATOM     10  C   UNL     1       4.095   7.251  -6.144  0.00  0.00    +0.000 A 
ATOM     11  C   UNL     1       4.583   7.077  -7.453  0.00  0.00    +0.000 A 
ATOM     12  C   UNL     1       3.724   7.049  -8.556  0.00  0.00    +0.000 A 
ATOM     13  C   UNL     1       2.351   7.193  -8.373  0.00  0.00    +0.000 A 
ATOM     14  C   UNL     1       1.839   7.354  -7.089  0.00  0.00    +0.000 A 
ATOM     15  C   UNL     1       2.701   7.381  -5.989  0.00  0.00    +0.000 A 
ENDBRANCH   8  10
ENDBRANCH   1   4
BRANCH   1  16
ATOM     16  N   UNL     1       5.062   4.448  -1.523  0.00  0.00    +0.000 N 
ATOM     17  H   UNL     1       6.052   4.228  -1.598  0.00  0.00    +0.000 HD
BRANCH  16  21
ATOM     18  C   UNL     1       2.844   1.420  -3.332  0.00  0.00    +0.000 A 
ATOM     19  C   UNL     1       2.303   2.700  -3.347  0.00  0.00    +0.000 A 
ATOM     20  C   UNL     1       3.035   3.742  -2.768  0.00  0.00    +0.000 A 
ATOM     21  C   UNL     1       4.289   3.495  -2.217  0.00  0.00    +0.000 A 
ATOM     22  C   UNL     1       4.723   2.162  -2.242  0.00  0.00    +0.000 A 
ATOM     23  N   UNL     1       4.051   1.117  -2.785  0.00  0.00    +0.000 NA
BRANCH  18  25
ATOM     24  N   UNL     1       2.672  -0.956  -3.791  0.00  0.00    +0.000 N 
ATOM     25  C   UNL     1       2.081   0.274  -3.924  0.00  0.00    +0.000 C 
ATOM     26  O   UNL     1       1.001   0.412  -4.484  0.00  0.00    +0.000 OA
ATOM     27  H   UNL     1       2.210  -1.772  -4.167  0.00  0.00    +0.000 HD
ATOM     28  H   UNL     1       3.565  -1.033  -3.319  0.00  0.00    +0.000 HD
ENDBRANCH  18  25
ENDBRANCH  16  21
ENDBRANCH   1  16
TORSDOF 5
