REMARK  Name = 
REMARK  7 active torsions:
REMARK  status: ('A' for Active; 'I' for Inactive)
REMARK    1  A    between atoms: N_1  and  C_2
REMARK    2  A    between atoms: C_2  and  C_3
REMARK    3  A    between atoms: C_6  and  O_7
REMARK    4  A    between atoms: O_7  and  C_8
REMARK    5  A    between atoms: C_8  and  C_9
REMARK    6  A    between atoms: C_9  and  C_10
REMARK    7  A    between atoms: C_13  and  C_14
REMARK                            x       y       z     vdW  Elec       q    Type
REMARK                         _______ _______ _______ _____ _____    ______ ____
ROOT
ATOM      1  C   UNL     1       3.946   6.486   4.189  0.00  0.00    +0.000 C 
ENDROOT
BRANCH   1   2
ATOM      2  C   UNL     1       3.880   7.938   3.782  0.00  0.00    +0.000 A 
ATOM      3  C   UNL     1       2.682   8.656   3.883  0.00  0.00    +0.000 A 
ATOM      4  C   UNL     1       2.621   9.999   3.488  0.00  0.00    +0.000 A 
ATOM      5  C   UNL     1       3.758  10.646   2.983  0.00  0.00    +0.000 A 
ATOM      6  C   UNL     1       4.946   9.923   2.879  0.00  0.00    +0.000 A 
ATOM      7  F   UNL     1       6.066  10.491   2.402  0.00  0.00    +0.000 F 
ATOM      8  C   UNL     1       5.012   8.584   3.269  0.00  0.00    +0.000 A 
BRANCH   5   9
ATOM      9  C   UNL     1       3.636  12.070   2.574  0.00  0.00    +0.000 C 
ATOM     10  N   UNL     1       4.742  12.700   2.083  0.00  0.00    +0.000 N 
ATOM     11  O   UNL     1       2.573  12.670   2.670  0.00  0.00    +0.000 OA
ATOM     12  H   UNL     1       5.642  12.246   1.987  0.00  0.00    +0.000 HD
ATOM     13  H   UNL     1       4.653  13.669   1.805  0.00  0.00    +0.000 HD
ENDBRANCH   5   9
ENDBRANCH   1   2
BRANCH   1  14
ATOM     14  C   UNL     1       3.594   5.550   3.034  0.00  0.00    +0.000 C 
BRANCH  14  15
ATOM     15  O   UNL     1       3.703   4.197   3.484  0.00  0.00    +0.000 OA
BRANCH  15  19
ATOM     16  C   UNL     1       2.745   1.065   0.874  0.00  0.00    +0.000 A 
ATOM     17  C   UNL     1       2.690   2.384   0.407  0.00  0.00    +0.000 A 
ATOM     18  C   UNL     1       3.011   3.456   1.244  0.00  0.00    +0.000 A 
ATOM     19  C   UNL     1       3.389   3.228   2.567  0.00  0.00    +0.000 A 
ATOM     20  C   UNL     1       3.460   1.914   3.035  0.00  0.00    +0.000 A 
ATOM     21  C   UNL     1       3.141   0.839   2.198  0.00  0.00    +0.000 A 
BRANCH  16  22
ATOM     22  C   UNL     1       2.343  -0.075  -0.028  0.00  0.00    +0.000 C 
BRANCH  22  23
ATOM     23  N   UNL     1       3.137  -0.102  -1.251  0.00  0.00    +0.000 NA
ATOM     24  H   UNL     1       2.910  -0.944  -1.776  0.00  0.00    +0.000 HD
ATOM     25  H   UNL     1       4.122  -0.174  -0.999  0.00  0.00    +0.000 HD
ENDBRANCH  22  23
ENDBRANCH  16  22
ENDBRANCH  15  19
ENDBRANCH  14  15
ENDBRANCH   1  14
TORSDOF 7
