REMARK  Name = 
REMARK  8 active torsions:
REMARK  status: ('A' for Active; 'I' for Inactive)
REMARK    1  A    between atoms: C_1  and  O_2
REMARK    2  A    between atoms: O_2  and  C_3
REMARK    3  A    between atoms: C_10  and  C_11
REMARK    4  A    between atoms: N_13  and  C_14
REMARK    5  A    between atoms: C_14  and  C_15
REMARK    6  A    between atoms: C_18  and  C_19
REMARK    7  A    between atoms: C_19  and  C_20
REMARK    8  A    between atoms: C_20  and  N_21
REMARK                            x       y       z     vdW  Elec       q    Type
REMARK                         _______ _______ _______ _____ _____    ______ ____
ROOT
ATOM      1  C   UNL     1       2.651   3.275  -1.153  0.00  0.00    +0.000 C 
ENDROOT
BRANCH   1   2
ATOM      2  C   UNL     1       1.428   2.737  -1.850  0.00  0.00    +0.000 A 
ATOM      3  C   UNL     1       1.384   1.404  -2.270  0.00  0.00    +0.000 A 
ATOM      4  C   UNL     1       0.233   0.879  -2.865  0.00  0.00    +0.000 A 
ATOM      5  C   UNL     1      -0.906   1.674  -3.074  0.00  0.00    +0.000 A 
ATOM      6  C   UNL     1      -0.836   3.025  -2.703  0.00  0.00    +0.000 A 
ATOM      7  C   UNL     1       0.317   3.552  -2.105  0.00  0.00    +0.000 A 
BRANCH   5   8
ATOM      8  C   UNL     1      -2.205   1.129  -3.652  0.00  0.00    +0.000 C 
BRANCH   8   9
ATOM      9  C   UNL     1      -2.171  -0.361  -4.017  0.00  0.00    +0.000 C 
BRANCH   9  10
ATOM     10  N   UNL     1      -3.446  -0.843  -4.559  0.00  0.00    +0.000 N 
ATOM     11  C   UNL     1      -3.374  -2.216  -4.900  0.00  0.00    +0.000 A 
ATOM     12  C   UNL     1      -4.503  -2.833  -5.437  0.00  0.00    +0.000 A 
ATOM     13  C   UNL     1      -4.452  -4.187  -5.767  0.00  0.00    +0.000 A 
ATOM     14  C   UNL     1      -3.280  -4.897  -5.554  0.00  0.00    +0.000 A 
ATOM     15  C   UNL     1      -2.207  -4.220  -5.011  0.00  0.00    +0.000 A 
ATOM     16  N   UNL     1      -2.236  -2.910  -4.681  0.00  0.00    +0.000 NA
ATOM     17  H   UNL     1      -3.736  -0.328  -5.386  0.00  0.00    +0.000 HD
ENDBRANCH   9  10
ENDBRANCH   8   9
ENDBRANCH   5   8
ENDBRANCH   1   2
BRANCH   1  20
ATOM     18  C   UNL     1       4.803   4.336  -1.699  0.00  0.00    +0.000 C 
ATOM     19  O   UNL     1       5.146   4.330  -0.518  0.00  0.00    +0.000 OA
ATOM     20  N   UNL     1       3.590   3.837  -2.089  0.00  0.00    +0.000 N 
ATOM     21  H   UNL     1       3.316   3.867  -3.060  0.00  0.00    +0.000 HD
BRANCH  18  29
ATOM     22  C   UNL     1       4.546   4.537  -5.124  0.00  0.00    +0.000 A 
ATOM     23  N   UNL     1       4.682   4.773  -6.444  0.00  0.00    +0.000 NA
ATOM     24  C   UNL     1       5.787   5.401  -6.856  0.00  0.00    +0.000 A 
ATOM     25  N   UNL     1       6.795   5.831  -6.101  0.00  0.00    +0.000 NA
ATOM     26  C   UNL     1       6.611   5.588  -4.791  0.00  0.00    +0.000 A 
ATOM     27  S   UNL     1       7.799   6.062  -3.675  0.00  0.00    +0.000 S 
ATOM     28  C   UNL     1       6.890   5.455  -2.374  0.00  0.00    +0.000 A 
ATOM     29  C   UNL     1       5.677   4.888  -2.748  0.00  0.00    +0.000 A 
ATOM     30  C   UNL     1       5.519   4.959  -4.201  0.00  0.00    +0.000 A 
BRANCH  22  32
ATOM     31  C   UNL     1       2.807   3.076  -5.692  0.00  0.00    +0.000 C 
ATOM     32  O   UNL     1       3.402   3.899  -4.694  0.00  0.00    +0.000 OA
ENDBRANCH  22  32
ENDBRANCH  18  29
ENDBRANCH   1  20
TORSDOF 7
