REMARK  Name = 
REMARK  5 active torsions:
REMARK  status: ('A' for Active; 'I' for Inactive)
REMARK    1  A    between atoms: C_2  and  C_4
REMARK    2  A    between atoms: C_7  and  O_8
REMARK    3  A    between atoms: O_8  and  C_9
REMARK    4  A    between atoms: C_9  and  C_10
REMARK    5  A    between atoms: C_15  and  C_16
REMARK                            x       y       z     vdW  Elec       q    Type
REMARK                         _______ _______ _______ _____ _____    ______ ____
ROOT
ATOM      1  C   UNL     1       5.852  -1.817   5.068  0.00  0.00    +0.000 C 
ENDROOT
BRANCH   1   2
ATOM      2  C   UNL     1       6.203  -2.668   6.263  0.00  0.00    +0.000 A 
ATOM      3  C   UNL     1       6.682  -2.090   7.444  0.00  0.00    +0.000 A 
ATOM      4  C   UNL     1       6.959  -2.893   8.548  0.00  0.00    +0.000 A 
ATOM      5  F   UNL     1       7.408  -2.323   9.675  0.00  0.00    +0.000 F 
ATOM      6  C   UNL     1       6.769  -4.270   8.509  0.00  0.00    +0.000 A 
ATOM      7  C   UNL     1       6.303  -4.864   7.334  0.00  0.00    +0.000 A 
ATOM      8  C   UNL     1       6.024  -4.061   6.218  0.00  0.00    +0.000 A 
BRANCH   7   9
ATOM      9  C   UNL     1       6.058  -6.306   7.254  0.00  0.00    +0.000 C 
ATOM     10  C   UNL     1       4.853  -6.815   7.561  0.00  0.00    +0.000 C 
ATOM     11  C   UNL     1       4.528  -8.270   7.390  0.00  0.00    +0.000 C 
ATOM     12  O   UNL     1       5.503  -8.958   6.601  0.00  0.00    +0.000 OA
ATOM     13  C   UNL     1       6.837  -8.666   7.023  0.00  0.00    +0.000 C 
ATOM     14  C   UNL     1       7.165  -7.195   6.758  0.00  0.00    +0.000 C 
ENDBRANCH   7   9
ENDBRANCH   1   2
BRANCH   1  15
ATOM     15  O   UNL     1       6.666  -2.220   3.967  0.00  0.00    +0.000 OA
BRANCH  15  19
ATOM     16  C   UNL     1       6.270  -0.452   0.326  0.00  0.00    +0.000 A 
ATOM     17  N   UNL     1       5.468   0.044   1.301  0.00  0.00    +0.000 NA
ATOM     18  C   UNL     1       5.597  -0.540   2.514  0.00  0.00    +0.000 A 
ATOM     19  C   UNL     1       6.474  -1.571   2.789  0.00  0.00    +0.000 A 
ATOM     20  C   UNL     1       7.242  -1.979   1.715  0.00  0.00    +0.000 A 
ATOM     21  N   UNL     1       7.165  -1.446   0.478  0.00  0.00    +0.000 NA
BRANCH  16  23
ATOM     22  N   UNL     1       5.171   1.145  -1.167  0.00  0.00    +0.000 N 
ATOM     23  C   UNL     1       6.121   0.157  -1.049  0.00  0.00    +0.000 C 
ATOM     24  O   UNL     1       6.783  -0.181  -2.024  0.00  0.00    +0.000 OA
ATOM     25  H   UNL     1       5.045   1.593  -2.063  0.00  0.00    +0.000 HD
ATOM     26  H   UNL     1       4.641   1.447  -0.358  0.00  0.00    +0.000 HD
ENDBRANCH  16  23
ENDBRANCH  15  19
ENDBRANCH   1  15
TORSDOF 5
