REMARK  Name = 
REMARK  5 active torsions:
REMARK  status: ('A' for Active; 'I' for Inactive)
REMARK    1  A    between atoms: C_2  and  C_4
REMARK    2  A    between atoms: C_7  and  O_8
REMARK    3  A    between atoms: O_8  and  C_9
REMARK    4  A    between atoms: C_9  and  C_10
REMARK    5  A    between atoms: C_15  and  C_16
REMARK                            x       y       z     vdW  Elec       q    Type
REMARK                         _______ _______ _______ _____ _____    ______ ____
ROOT
ATOM      1  C   UNL     1       5.038  -5.810  -0.647  0.00  0.00    +0.000 C 
ENDROOT
BRANCH   1   2
ATOM      2  C   UNL     1       6.014  -6.943  -0.404  0.00  0.00    +0.000 A 
ATOM      3  C   UNL     1       7.366  -6.703  -0.145  0.00  0.00    +0.000 A 
ATOM      4  C   UNL     1       8.243  -7.771   0.023  0.00  0.00    +0.000 A 
ATOM      5  C   UNL     1       7.777  -9.081  -0.083  0.00  0.00    +0.000 A 
ATOM      6  F   UNL     1       8.677 -10.065   0.066  0.00  0.00    +0.000 F 
ATOM      7  C   UNL     1       6.430  -9.379  -0.353  0.00  0.00    +0.000 A 
ATOM      8  C   UNL     1       5.565  -8.276  -0.514  0.00  0.00    +0.000 A 
BRANCH   7   9
ATOM      9  C   UNL     1       5.933 -10.771  -0.460  0.00  0.00    +0.000 A 
ATOM     10  C   UNL     1       4.893 -11.136  -1.331  0.00  0.00    +0.000 A 
ATOM     11  C   UNL     1       4.444 -12.456  -1.399  0.00  0.00    +0.000 A 
ATOM     12  C   UNL     1       5.053 -13.400  -0.594  0.00  0.00    +0.000 A 
ATOM     13  N   UNL     1       6.053 -13.111   0.260  0.00  0.00    +0.000 NA
ATOM     14  C   UNL     1       6.461 -11.816   0.305  0.00  0.00    +0.000 A 
ENDBRANCH   7   9
ENDBRANCH   1   2
BRANCH   1  15
ATOM     15  O   UNL     1       5.417  -4.643   0.088  0.00  0.00    +0.000 OA
BRANCH  15  19
ATOM     16  C   UNL     1       2.857  -1.469  -0.473  0.00  0.00    +0.000 A 
ATOM     17  C   UNL     1       3.967  -1.322   0.361  0.00  0.00    +0.000 A 
ATOM     18  C   UNL     1       4.827  -2.407   0.543  0.00  0.00    +0.000 A 
ATOM     19  C   UNL     1       4.545  -3.593  -0.117  0.00  0.00    +0.000 A 
ATOM     20  N   UNL     1       3.476  -3.764  -0.925  0.00  0.00    +0.000 NA
ATOM     21  C   UNL     1       2.649  -2.701  -1.076  0.00  0.00    +0.000 A 
BRANCH  16  23
ATOM     22  N   UNL     1       2.319   0.897  -0.620  0.00  0.00    +0.000 N 
ATOM     23  C   UNL     1       1.879  -0.392  -0.725  0.00  0.00    +0.000 C 
ATOM     24  O   UNL     1       0.727  -0.643  -1.056  0.00  0.00    +0.000 OA
ATOM     25  H   UNL     1       1.665   1.616  -0.906  0.00  0.00    +0.000 HD
ATOM     26  H   UNL     1       3.299   1.141  -0.600  0.00  0.00    +0.000 HD
ENDBRANCH  16  23
ENDBRANCH  15  19
ENDBRANCH   1  15
TORSDOF 5
