REMARK  Name = 
REMARK  7 active torsions:
REMARK  status: ('A' for Active; 'I' for Inactive)
REMARK    1  A    between atoms: N_1  and  C_2
REMARK    2  A    between atoms: C_2  and  C_3
REMARK    3  A    between atoms: C_6  and  C_7
REMARK    4  A    between atoms: C_7  and  C_8
REMARK    5  A    between atoms: C_11  and  C_12
REMARK    6  A    between atoms: C_12  and  N_13
REMARK    7  A    between atoms: C_14  and  C_16
REMARK                            x       y       z     vdW  Elec       q    Type
REMARK                         _______ _______ _______ _____ _____    ______ ____
ROOT
ATOM      1  C   UNL     1      -0.102   3.757   3.488  0.00  0.00    +0.000 A 
ATOM      2  C   UNL     1       0.504   3.709   4.741  0.00  0.00    +0.000 A 
ATOM      3  C   UNL     1      -0.290   3.552   5.876  0.00  0.00    +0.000 A 
ATOM      4  C   UNL     1      -1.677   3.476   5.748  0.00  0.00    +0.000 A 
ATOM      5  C   UNL     1      -2.196   3.547   4.460  0.00  0.00    +0.000 A 
ATOM      6  N   UNL     1      -1.446   3.678   3.337  0.00  0.00    +0.000 NA
ENDROOT
BRANCH   1   7
ATOM      7  C   UNL     1       0.747   3.805   2.236  0.00  0.00    +0.000 C 
BRANCH   7  11
ATOM      8  C   UNL     1       3.157   6.461   1.012  0.00  0.00    +0.000 C 
ATOM      9  C   UNL     1       2.308   6.557   2.293  0.00  0.00    +0.000 C 
ATOM     10  C   UNL     1       0.815   6.367   2.024  0.00  0.00    +0.000 C 
ATOM     11  C   UNL     1       0.510   5.032   1.326  0.00  0.00    +0.000 C 
ATOM     12  C   UNL     1       1.342   4.928   0.031  0.00  0.00    +0.000 C 
ATOM     13  C   UNL     1       2.840   5.162   0.250  0.00  0.00    +0.000 C 
BRANCH   8  14
ATOM     14  C   UNL     1       3.001   7.700   0.106  0.00  0.00    +0.000 C 
BRANCH  14  15
ATOM     15  N   UNL     1       3.426   8.914   0.797  0.00  0.00    +0.000 NA
ATOM     16  H   UNL     1       3.376   9.709   0.162  0.00  0.00    +0.000 HD
ATOM     17  H   UNL     1       4.401   8.827   1.080  0.00  0.00    +0.000 HD
ENDBRANCH  14  15
ENDBRANCH   8  14
ENDBRANCH   7  11
ENDBRANCH   1   7
BRANCH   4  18
ATOM     18  C   UNL     1      -2.562   3.292   6.949  0.00  0.00    +0.000 C 
BRANCH  18  19
ATOM     19  N   UNL     1      -2.765   1.899   7.262  0.00  0.00    +0.000 N 
ATOM     20  C   UNL     1      -3.626   1.524   8.265  0.00  0.00    +0.000 C 
ATOM     21  O   UNL     1      -4.276   2.345   8.902  0.00  0.00    +0.000 OA
ATOM     22  H   UNL     1      -2.075   1.234   6.922  0.00  0.00    +0.000 HD
BRANCH  20  23
ATOM     23  C   UNL     1      -3.778   0.077   8.501  0.00  0.00    +0.000 A 
ATOM     24  C   UNL     1      -4.939  -0.397   9.096  0.00  0.00    +0.000 A 
ATOM     25  S   UNL     1      -4.973  -2.092   9.274  0.00  0.00    +0.000 S 
ATOM     26  C   UNL     1      -3.417  -2.249   8.604  0.00  0.00    +0.000 A 
ATOM     27  N   UNL     1      -2.823  -3.467   8.494  0.00  0.00    +0.000 NA
ATOM     28  C   UNL     1      -1.635  -3.437   7.990  0.00  0.00    +0.000 A 
ATOM     29  N   UNL     1      -0.990  -2.299   7.580  0.00  0.00    +0.000 N 
ATOM     30  C   UNL     1      -1.563  -1.050   7.645  0.00  0.00    +0.000 A 
ATOM     31  O   UNL     1      -0.977  -0.056   7.225  0.00  0.00    +0.000 OA
ATOM     32  C   UNL     1      -2.891  -1.026   8.224  0.00  0.00    +0.000 A 
ATOM     33  H   UNL     1      -0.064  -2.348   7.177  0.00  0.00    +0.000 HD
ENDBRANCH  20  23
ENDBRANCH  18  19
ENDBRANCH   4  18
TORSDOF 7
