REMARK  Name = 
REMARK  5 active torsions:
REMARK  status: ('A' for Active; 'I' for Inactive)
REMARK    1  A    between atoms: C_2  and  C_4
REMARK    2  A    between atoms: N_8  and  C_9
REMARK    3  A    between atoms: C_9  and  C_10
REMARK    4  A    between atoms: C_10  and  C_13
REMARK    5  A    between atoms: C_16  and  N_17
REMARK                            x       y       z     vdW  Elec       q    Type
REMARK                         _______ _______ _______ _____ _____    ______ ____
ROOT
ATOM      1  C   UNL     1       6.118   1.281   6.954  0.00  0.00    +0.000 C 
ATOM      2  F   UNL     1       6.981   0.506   6.228  0.00  0.00    +0.000 F 
ATOM      3  F   UNL     1       6.731   2.499   7.055  0.00  0.00    +0.000 F 
ENDROOT
BRANCH   1   4
ATOM      4  C   UNL     1       5.838   0.687   8.322  0.00  0.00    +0.000 A 
ATOM      5  C   UNL     1       5.849  -0.694   8.526  0.00  0.00    +0.000 A 
ATOM      6  C   UNL     1       5.620  -1.230   9.803  0.00  0.00    +0.000 A 
ATOM      7  C   UNL     1       5.365  -0.419  10.919  0.00  0.00    +0.000 A 
ATOM      8  C   UNL     1       5.349   0.965  10.691  0.00  0.00    +0.000 A 
ATOM      9  C   UNL     1       5.577   1.512   9.423  0.00  0.00    +0.000 A 
BRANCH   7  10
ATOM     10  N   UNL     1       5.168  -0.949  12.182  0.00  0.00    +0.000 N 
ATOM     11  C   UNL     1       5.769  -2.217  12.599  0.00  0.00    +0.000 C 
ATOM     12  C   UNL     1       4.674  -3.250  12.851  0.00  0.00    +0.000 C 
ATOM     13  C   UNL     1       3.644  -2.723  13.851  0.00  0.00    +0.000 C 
ATOM     14  C   UNL     1       3.091  -1.368  13.406  0.00  0.00    +0.000 C 
ATOM     15  C   UNL     1       4.207  -0.361  13.118  0.00  0.00    +0.000 C 
ENDBRANCH   7  10
ENDBRANCH   1   4
BRANCH   1  16
ATOM     16  C   UNL     1       4.813   1.448   6.129  0.00  0.00    +0.000 C 
BRANCH  16  21
ATOM     17  C   UNL     1       2.055   2.798   2.034  0.00  0.00    +0.000 A 
ATOM     18  C   UNL     1       1.699   2.770   3.376  0.00  0.00    +0.000 A 
ATOM     19  C   UNL     1       2.679   2.517   4.339  0.00  0.00    +0.000 A 
ATOM     20  C   UNL     1       3.996   2.296   3.946  0.00  0.00    +0.000 A 
ATOM     21  N   UNL     1       5.028   2.148   4.852  0.00  0.00    +0.000 N 
ATOM     22  N   UNL     1       4.348   2.295   2.646  0.00  0.00    +0.000 NA
ATOM     23  C   UNL     1       3.379   2.532   1.718  0.00  0.00    +0.000 A 
ATOM     24  H   UNL     1       5.884   1.907   4.354  0.00  0.00    +0.000 HD
BRANCH  17  26
ATOM     25  N   UNL     1       0.015   3.876   1.282  0.00  0.00    +0.000 N 
ATOM     26  C   UNL     1       1.084   3.086   0.958  0.00  0.00    +0.000 C 
ATOM     27  O   UNL     1       1.242   2.663  -0.179  0.00  0.00    +0.000 OA
ATOM     28  H   UNL     1      -0.593   4.149   0.518  0.00  0.00    +0.000 HD
ATOM     29  H   UNL     1      -0.014   4.439   2.119  0.00  0.00    +0.000 HD
ENDBRANCH  17  26
ENDBRANCH  16  21
ENDBRANCH   1  16
TORSDOF 5
