REMARK  Name = 
REMARK  9 active torsions:
REMARK  status: ('A' for Active; 'I' for Inactive)
REMARK    1  A    between atoms: C_1  and  C_2
REMARK    2  A    between atoms: C_2  and  N_3
REMARK    3  A    between atoms: C_2  and  C_19
REMARK    4  A    between atoms: N_3  and  C_4
REMARK    5  A    between atoms: C_4  and  C_5
REMARK    6  A    between atoms: C_8  and  C_9
REMARK    7  A    between atoms: C_9  and  N_10
REMARK    8  A    between atoms: C_9  and  C_11
REMARK    9  A    between atoms: C_11  and  C_12
REMARK                            x       y       z     vdW  Elec       q    Type
REMARK                         _______ _______ _______ _____ _____    ______ ____
ROOT
ATOM      1  C   UNL     1       2.922   1.061   3.404  0.00  0.00    +0.000 A 
ATOM      2  C   UNL     1       3.171   2.241   4.105  0.00  0.00    +0.000 A 
ATOM      3  C   UNL     1       3.575   2.180   5.434  0.00  0.00    +0.000 A 
ATOM      4  C   UNL     1       3.719   0.932   6.042  0.00  0.00    +0.000 A 
ATOM      5  N   UNL     1       3.468  -0.224   5.384  0.00  0.00    +0.000 NA
ATOM      6  C   UNL     1       3.082  -0.136   4.093  0.00  0.00    +0.000 A 
ENDROOT
BRANCH   1   7
ATOM      7  C   UNL     1       2.451   1.063   1.979  0.00  0.00    +0.000 C 
BRANCH   7   8
ATOM      8  N   UNL     1       3.398   1.720   1.080  0.00  0.00    +0.000 NA
ATOM      9  H   UNL     1       3.538   2.680   1.394  0.00  0.00    +0.000 HD
BRANCH   8  11
ATOM     10  C   UNL     1       2.691   0.378  -0.909  0.00  0.00    +0.000 C 
ATOM     11  C   UNL     1       2.905   1.774  -0.305  0.00  0.00    +0.000 C 
BRANCH  11  12
ATOM     12  C   UNL     1       3.923   2.552  -1.110  0.00  0.00    +0.000 A 
ATOM     13  C   UNL     1       5.240   2.152  -1.293  0.00  0.00    +0.000 A 
ATOM     14  S   UNL     1       6.125   3.189  -2.318  0.00  0.00    +0.000 S 
ATOM     15  C   UNL     1       4.786   4.220  -2.524  0.00  0.00    +0.000 A 
ATOM     16  N   UNL     1       4.869   5.327  -3.318  0.00  0.00    +0.000 NA
ATOM     17  C   UNL     1       3.779   6.013  -3.375  0.00  0.00    +0.000 A 
ATOM     18  N   UNL     1       2.619   5.708  -2.711  0.00  0.00    +0.000 N 
ATOM     19  C   UNL     1       2.490   4.609  -1.894  0.00  0.00    +0.000 A 
ATOM     20  O   UNL     1       1.447   4.385  -1.288  0.00  0.00    +0.000 OA
ATOM     21  C   UNL     1       3.684   3.788  -1.814  0.00  0.00    +0.000 A 
ATOM     22  H   UNL     1       1.807   6.303  -2.792  0.00  0.00    +0.000 HD
ENDBRANCH  11  12
ENDBRANCH   8  11
ENDBRANCH   7   8
ENDBRANCH   1   7
BRANCH   4  23
ATOM     23  C   UNL     1       4.299   0.794   7.441  0.00  0.00    +0.000 C 
BRANCH  23  24
ATOM     24  N   UNL     1       5.683   1.318   7.473  0.00  0.00    +0.000 NA
ATOM     25  H   UNL     1       5.672   2.315   7.266  0.00  0.00    +0.000 HD
ATOM     26  H   UNL     1       6.187   0.883   6.697  0.00  0.00    +0.000 HD
ENDBRANCH  23  24
BRANCH  23  27
ATOM     27  C   UNL     1       3.477   1.490   8.540  0.00  0.00    +0.000 C 
BRANCH  27  28
ATOM     28  C   UNL     1       2.010   1.028   8.712  0.00  0.00    +0.000 C 
ATOM     29  C   UNL     1       1.367   1.806   9.861  0.00  0.00    +0.000 C 
ATOM     30  C   UNL     1       1.735   0.983  11.080  0.00  0.00    +0.000 C 
ATOM     31  N   UNL     1       1.622  -0.406  10.635  0.00  0.00    +0.000 NA
ATOM     32  C   UNL     1       1.807  -0.420   9.172  0.00  0.00    +0.000 C 
ATOM     33  H   UNL     1       0.681  -0.744  10.846  0.00  0.00    +0.000 HD
ENDBRANCH  27  28
ENDBRANCH  23  27
ENDBRANCH   4  23
TORSDOF 8
