REMARK  Name = 
REMARK  6 active torsions:
REMARK  status: ('A' for Active; 'I' for Inactive)
REMARK    1  A    between atoms: C_2  and  C_19
REMARK    2  A    between atoms: N_3  and  C_4
REMARK    3  A    between atoms: C_4  and  C_5
REMARK    4  A    between atoms: C_8  and  C_9
REMARK    5  A    between atoms: C_9  and  N_10
REMARK    6  A    between atoms: N_10  and  C_11
REMARK                            x       y       z     vdW  Elec       q    Type
REMARK                         _______ _______ _______ _____ _____    ______ ____
ROOT
ATOM      1  C   UNL     1       2.132  -1.776   1.666  0.00  0.00    +0.000 C 
ENDROOT
BRANCH   1   2
ATOM      2  C   UNL     1       3.089  -2.648   2.493  0.00  0.00    +0.000 C 
ATOM      3  C   UNL     1       2.602  -4.105   2.555  0.00  0.00    +0.000 C 
ATOM      4  C   UNL     1       3.480  -4.964   3.458  0.00  0.00    +0.000 C 
ATOM      5  C   UNL     1       3.589  -4.380   4.874  0.00  0.00    +0.000 C 
ATOM      6  C   UNL     1       4.094  -2.928   4.810  0.00  0.00    +0.000 C 
ATOM      7  C   UNL     1       3.223  -2.063   3.905  0.00  0.00    +0.000 C 
BRANCH   5   8
ATOM      8  C   UNL     1       4.515  -5.266   5.727  0.00  0.00    +0.000 C 
BRANCH   8   9
ATOM      9  N   UNL     1       4.629  -4.743   7.087  0.00  0.00    +0.000 NA
ATOM     10  H   UNL     1       3.702  -4.686   7.508  0.00  0.00    +0.000 HD
BRANCH   9  11
ATOM     11  C   UNL     1       5.519  -5.519   7.959  0.00  0.00    +0.000 C 
ATOM     12  C   UNL     1       5.516  -4.844   9.343  0.00  0.00    +0.000 C 
ATOM     13  C   UNL     1       6.472  -5.529  10.317  0.00  0.00    +0.000 C 
ATOM     14  C   UNL     1       7.886  -5.607   9.753  0.00  0.00    +0.000 C 
ATOM     15  C   UNL     1       7.899  -6.295   8.395  0.00  0.00    +0.000 C 
ATOM     16  C   UNL     1       6.954  -5.613   7.412  0.00  0.00    +0.000 C 
ENDBRANCH   9  11
ENDBRANCH   8   9
ENDBRANCH   5   8
ENDBRANCH   1   2
BRANCH   1  19
ATOM     17  O   UNL     1       3.731  -0.782  -0.412  0.00  0.00    +0.000 OA
ATOM     18  C   UNL     1       2.918  -1.664  -0.668  0.00  0.00    +0.000 C 
ATOM     19  N   UNL     1       2.066  -2.189   0.280  0.00  0.00    +0.000 N 
ATOM     20  H   UNL     1       1.500  -2.992   0.046  0.00  0.00    +0.000 HD
BRANCH  18  21
ATOM     21  C   UNL     1       2.750  -2.199  -2.018  0.00  0.00    +0.000 A 
ATOM     22  C   UNL     1       1.536  -2.623  -2.537  0.00  0.00    +0.000 A 
ATOM     23  S   UNL     1       1.625  -3.056  -4.188  0.00  0.00    +0.000 S 
ATOM     24  C   UNL     1       3.286  -2.688  -4.255  0.00  0.00    +0.000 A 
ATOM     25  N   UNL     1       3.986  -2.799  -5.416  0.00  0.00    +0.000 NA
ATOM     26  C   UNL     1       5.229  -2.460  -5.317  0.00  0.00    +0.000 A 
ATOM     27  N   UNL     1       5.840  -2.044  -4.161  0.00  0.00    +0.000 N 
ATOM     28  C   UNL     1       5.200  -2.028  -2.940  0.00  0.00    +0.000 A 
ATOM     29  O   UNL     1       5.836  -1.884  -1.903  0.00  0.00    +0.000 OA
ATOM     30  C   UNL     1       3.775  -2.291  -3.025  0.00  0.00    +0.000 A 
ATOM     31  H   UNL     1       6.833  -1.869  -4.133  0.00  0.00    +0.000 HD
ENDBRANCH  18  21
ENDBRANCH   1  19
TORSDOF 6
