REMARK  Name = 
REMARK  8 active torsions:
REMARK  status: ('A' for Active; 'I' for Inactive)
REMARK    1  A    between atoms: C_1  and  N_2
REMARK    2  A    between atoms: C_4  and  C_5
REMARK    3  A    between atoms: N_7  and  C_8
REMARK    4  A    between atoms: C_8  and  C_9
REMARK    5  A    between atoms: C_12  and  C_13
REMARK    6  A    between atoms: C_13  and  O_14
REMARK    7  A    between atoms: O_14  and  C_15
REMARK    8  A    between atoms: C_15  and  C_16
REMARK                            x       y       z     vdW  Elec       q    Type
REMARK                         _______ _______ _______ _____ _____    ______ ____
ROOT
ATOM      1  C   UNL     1       6.497   4.025  -0.019  0.00  0.00    +0.000 C 
ENDROOT
BRANCH   1   2
ATOM      2  C   UNL     1       6.003   5.439  -0.096  0.00  0.00    +0.000 A 
ATOM      3  C   UNL     1       4.713   5.745  -0.534  0.00  0.00    +0.000 A 
ATOM      4  C   UNL     1       4.327   7.076  -0.669  0.00  0.00    +0.000 A 
ATOM      5  C   UNL     1       5.239   8.077  -0.345  0.00  0.00    +0.000 A 
ATOM      6  N   UNL     1       6.474   7.805   0.142  0.00  0.00    +0.000 NA
ATOM      7  C   UNL     1       6.827   6.503   0.248  0.00  0.00    +0.000 A 
BRANCH   5   8
ATOM      8  C   UNL     1       4.858   9.533  -0.497  0.00  0.00    +0.000 C 
BRANCH   8   9
ATOM      9  O   UNL     1       3.667   9.868   0.221  0.00  0.00    +0.000 OA
BRANCH   9  10
ATOM     10  C   UNL     1       3.841   9.779   1.636  0.00  0.00    +0.000 C 
BRANCH  10  11
ATOM     11  C   UNL     1       2.565  10.154   2.315  0.00  0.00    +0.000 A 
ATOM     12  C   UNL     1       2.180   9.575   3.508  0.00  0.00    +0.000 A 
ATOM     13  N   UNL     1       1.051   9.892   4.171  0.00  0.00    +0.000 NA
ATOM     14  C   UNL     1       0.294  10.843   3.602  0.00  0.00    +0.000 A 
ATOM     15  N   UNL     1       0.568  11.491   2.460  0.00  0.00    +0.000 NA
ATOM     16  C   UNL     1       1.710  11.128   1.842  0.00  0.00    +0.000 A 
ENDBRANCH  10  11
ENDBRANCH   9  10
ENDBRANCH   8   9
ENDBRANCH   5   8
ENDBRANCH   1   2
BRANCH   1  19
ATOM     17  C   UNL     1       6.569   2.088   1.465  0.00  0.00    +0.000 C 
ATOM     18  O   UNL     1       7.134   1.419   0.609  0.00  0.00    +0.000 OA
ATOM     19  N   UNL     1       6.212   3.401   1.247  0.00  0.00    +0.000 N 
ATOM     20  H   UNL     1       5.798   3.947   1.988  0.00  0.00    +0.000 HD
BRANCH  17  24
ATOM     21  C   UNL     1       4.785   1.612   6.120  0.00  0.00    +0.000 C 
ATOM     22  N   UNL     1       5.437   1.308   4.865  0.00  0.00    +0.000 N 
ATOM     23  C   UNL     1       5.564   2.183   3.817  0.00  0.00    +0.000 A 
ATOM     24  C   UNL     1       6.230   1.545   2.783  0.00  0.00    +0.000 A 
ATOM     25  C   UNL     1       6.519   0.214   3.252  0.00  0.00    +0.000 A 
ATOM     26  C   UNL     1       7.161  -0.901   2.689  0.00  0.00    +0.000 A 
ATOM     27  N   UNL     1       7.281  -2.060   3.386  0.00  0.00    +0.000 NA
ATOM     28  C   UNL     1       6.771  -2.127   4.633  0.00  0.00    +0.000 A 
ATOM     29  C   UNL     1       6.122  -1.088   5.280  0.00  0.00    +0.000 A 
ATOM     30  C   UNL     1       6.009   0.098   4.549  0.00  0.00    +0.000 A 
ENDBRANCH  17  24
ENDBRANCH   1  19
TORSDOF 7
