REMARK  Name = 
REMARK  5 active torsions:
REMARK  status: ('A' for Active; 'I' for Inactive)
REMARK    1  A    between atoms: C_2  and  C_4
REMARK    2  A    between atoms: C_7  and  O_8
REMARK    3  A    between atoms: O_8  and  C_9
REMARK    4  A    between atoms: C_9  and  C_10
REMARK    5  A    between atoms: C_14  and  C_15
REMARK                            x       y       z     vdW  Elec       q    Type
REMARK                         _______ _______ _______ _____ _____    ______ ____
ROOT
ATOM      1  C   UNL     1       6.314  -3.607  -3.534  0.00  0.00    +0.000 C 
ATOM      2  C   UNL     1       6.449  -4.888  -2.724  0.00  0.00    +0.000 C 
ATOM      3  C   UNL     1       7.191  -3.664  -2.302  0.00  0.00    +0.000 C 
ENDROOT
BRANCH   1   4
ATOM      4  C   UNL     1       6.947  -3.528  -4.914  0.00  0.00    +0.000 A 
ATOM      5  C   UNL     1       6.415  -4.231  -6.004  0.00  0.00    +0.000 A 
ATOM      6  C   UNL     1       6.925  -4.064  -7.293  0.00  0.00    +0.000 A 
ATOM      7  C   UNL     1       7.981  -3.180  -7.519  0.00  0.00    +0.000 A 
ATOM      8  C   UNL     1       8.568  -2.464  -6.464  0.00  0.00    +0.000 A 
ATOM      9  C   UNL     1       8.040  -2.677  -5.173  0.00  0.00    +0.000 A 
BRANCH   8  10
ATOM     10  C   UNL     1       9.657  -1.490  -6.687  0.00  0.00    +0.000 A 
ATOM     11  N   UNL     1       9.960  -1.155  -7.957  0.00  0.00    +0.000 NA
ATOM     12  C   UNL     1      10.905  -0.210  -8.121  0.00  0.00    +0.000 A 
ATOM     13  C   UNL     1      11.560   0.400  -7.079  0.00  0.00    +0.000 A 
ATOM     14  C   UNL     1      11.190  -0.017  -5.824  0.00  0.00    +0.000 A 
ATOM     15  N   UNL     1      10.247  -0.950  -5.599  0.00  0.00    +0.000 NA
ENDBRANCH   8  10
ENDBRANCH   1   4
BRANCH   1  16
ATOM     16  O   UNL     1       4.960  -3.115  -3.425  0.00  0.00    +0.000 OA
BRANCH  16  20
ATOM     17  C   UNL     1       3.845   0.756  -2.922  0.00  0.00    +0.000 A 
ATOM     18  N   UNL     1       5.188   0.538  -2.882  0.00  0.00    +0.000 NA
ATOM     19  C   UNL     1       5.576  -0.751  -3.082  0.00  0.00    +0.000 A 
ATOM     20  C   UNL     1       4.700  -1.790  -3.290  0.00  0.00    +0.000 A 
ATOM     21  C   UNL     1       3.367  -1.430  -3.320  0.00  0.00    +0.000 A 
ATOM     22  N   UNL     1       2.904  -0.177  -3.141  0.00  0.00    +0.000 NA
BRANCH  17  24
ATOM     23  N   UNL     1       4.350   3.090  -2.389  0.00  0.00    +0.000 N 
ATOM     24  C   UNL     1       3.367   2.163  -2.645  0.00  0.00    +0.000 C 
ATOM     25  O   UNL     1       2.187   2.496  -2.631  0.00  0.00    +0.000 OA
ATOM     26  H   UNL     1       4.080   4.039  -2.178  0.00  0.00    +0.000 HD
ATOM     27  H   UNL     1       5.324   2.814  -2.388  0.00  0.00    +0.000 HD
ENDBRANCH  17  24
ENDBRANCH  16  20
ENDBRANCH   1  16
TORSDOF 5
