REMARK  Name = 
REMARK  5 active torsions:
REMARK  status: ('A' for Active; 'I' for Inactive)
REMARK    1  A    between atoms: C_2  and  C_18
REMARK    2  A    between atoms: N_3  and  C_4
REMARK    3  A    between atoms: C_4  and  C_5
REMARK    4  A    between atoms: C_8  and  O_9
REMARK    5  A    between atoms: O_9  and  C_10
REMARK                            x       y       z     vdW  Elec       q    Type
REMARK                         _______ _______ _______ _____ _____    ______ ____
ROOT
ATOM      1  O   UNL     1       1.534   3.115  -0.599  0.00  0.00    +0.000 OA
ATOM      2  C   UNL     1       2.373   2.219  -0.642  0.00  0.00    +0.000 C 
ATOM      3  N   UNL     1       2.730   1.496   0.466  0.00  0.00    +0.000 N 
ATOM      4  H   UNL     1       3.541   0.888   0.428  0.00  0.00    +0.000 HD
ENDROOT
BRANCH   2   5
ATOM      5  C   UNL     1       3.006   1.830  -1.908  0.00  0.00    +0.000 A 
ATOM      6  C   UNL     1       2.386   2.151  -3.108  0.00  0.00    +0.000 A 
ATOM      7  S   UNL     1       3.246   1.629  -4.484  0.00  0.00    +0.000 S 
ATOM      8  C   UNL     1       4.500   0.994  -3.526  0.00  0.00    +0.000 A 
ATOM      9  N   UNL     1       5.595   0.426  -4.098  0.00  0.00    +0.000 NA
ATOM     10  C   UNL     1       6.487   0.022  -3.256  0.00  0.00    +0.000 A 
ATOM     11  N   UNL     1       6.375   0.120  -1.894  0.00  0.00    +0.000 N 
ATOM     12  C   UNL     1       5.249   0.613  -1.269  0.00  0.00    +0.000 A 
ATOM     13  O   UNL     1       5.125   0.556  -0.051  0.00  0.00    +0.000 OA
ATOM     14  C   UNL     1       4.246   1.139  -2.173  0.00  0.00    +0.000 A 
ATOM     15  H   UNL     1       7.095  -0.245  -1.290  0.00  0.00    +0.000 HD
ENDBRANCH   2   5
BRANCH   3  16
ATOM     16  C   UNL     1       2.192   1.770   1.772  0.00  0.00    +0.000 C 
BRANCH  16  17
ATOM     17  C   UNL     1       3.106   2.656   2.576  0.00  0.00    +0.000 A 
ATOM     18  C   UNL     1       3.063   4.046   2.404  0.00  0.00    +0.000 A 
ATOM     19  C   UNL     1       3.864   4.881   3.182  0.00  0.00    +0.000 A 
ATOM     20  C   UNL     1       4.677   4.339   4.180  0.00  0.00    +0.000 A 
ATOM     21  C   UNL     1       4.789   2.954   4.301  0.00  0.00    +0.000 A 
ATOM     22  C   UNL     1       4.013   2.114   3.498  0.00  0.00    +0.000 A 
BRANCH  20  23
ATOM     23  O   UNL     1       5.434   5.093   5.049  0.00  0.00    +0.000 OA
BRANCH  23  24
ATOM     24  C   UNL     1       4.940   6.290   5.512  0.00  0.00    +0.000 A 
ATOM     25  C   UNL     1       3.592   6.582   5.718  0.00  0.00    +0.000 A 
ATOM     26  C   UNL     1       3.223   7.857   6.142  0.00  0.00    +0.000 A 
ATOM     27  C   UNL     1       4.223   8.779   6.403  0.00  0.00    +0.000 A 
ATOM     28  N   UNL     1       5.541   8.511   6.279  0.00  0.00    +0.000 NA
ATOM     29  C   UNL     1       5.867   7.271   5.840  0.00  0.00    +0.000 A 
ENDBRANCH  23  24
ENDBRANCH  20  23
ENDBRANCH  16  17
ENDBRANCH   3  16
TORSDOF 5
