REMARK  Name = 
REMARK  4 active torsions:
REMARK  status: ('A' for Active; 'I' for Inactive)
REMARK    1  A    between atoms: N_1  and  C_2
REMARK    2  A    between atoms: C_2  and  C_3
REMARK    3  A    between atoms: C_6  and  C_7
REMARK    4  A    between atoms: C_7  and  C_8
REMARK                            x       y       z     vdW  Elec       q    Type
REMARK                         _______ _______ _______ _____ _____    ______ ____
ROOT
ATOM      1  C   UNL     1       3.904  -4.655   3.048  0.00  0.00    +0.000 C 
ENDROOT
BRANCH   1   2
ATOM      2  C   UNL     1       2.702  -5.029   3.856  0.00  0.00    +0.000 A 
ATOM      3  N   UNL     1       1.768  -5.853   3.350  0.00  0.00    +0.000 NA
ATOM      4  N   UNL     1       0.902  -6.022   4.364  0.00  0.00    +0.000 N 
ATOM      5  C   UNL     1       1.263  -5.392   5.521  0.00  0.00    +0.000 A 
ATOM      6  C   UNL     1       0.687  -5.369   6.781  0.00  0.00    +0.000 A 
ATOM      7  N   UNL     1       1.288  -4.648   7.756  0.00  0.00    +0.000 NA
ATOM      8  C   UNL     1       2.422  -3.969   7.468  0.00  0.00    +0.000 A 
ATOM      9  C   UNL     1       3.047  -3.955   6.227  0.00  0.00    +0.000 A 
ATOM     10  C   UNL     1       2.433  -4.708   5.219  0.00  0.00    +0.000 A 
ATOM     11  H   UNL     1       0.088  -6.606   4.204  0.00  0.00    +0.000 HD
ENDBRANCH   1   2
BRANCH   1  15
ATOM     12  C   UNL     1       2.914  -1.154   0.682  0.00  0.00    +0.000 A 
ATOM     13  C   UNL     1       3.493  -1.017   1.951  0.00  0.00    +0.000 A 
ATOM     14  C   UNL     1       3.810  -2.141   2.720  0.00  0.00    +0.000 A 
ATOM     15  C   UNL     1       3.551  -3.431   2.238  0.00  0.00    +0.000 A 
ATOM     16  C   UNL     1       2.977  -3.568   0.965  0.00  0.00    +0.000 A 
ATOM     17  C   UNL     1       2.664  -2.444   0.196  0.00  0.00    +0.000 A 
BRANCH  12  18
ATOM     18  C   UNL     1       2.523   0.059  -0.124  0.00  0.00    +0.000 C 
BRANCH  18  19
ATOM     19  N   UNL     1       3.662   0.931  -0.389  0.00  0.00    +0.000 NA
ATOM     20  H   UNL     1       3.374   1.666  -1.032  0.00  0.00    +0.000 HD
ATOM     21  H   UNL     1       4.378   0.391  -0.875  0.00  0.00    +0.000 HD
ENDBRANCH  18  19
ENDBRANCH  12  18
ENDBRANCH   1  15
TORSDOF 4
