REMARK  Name = 
REMARK  9 active torsions:
REMARK  status: ('A' for Active; 'I' for Inactive)
REMARK    1  A    between atoms: C_1  and  C_2
REMARK    2  A    between atoms: N_6  and  C_7
REMARK    3  A    between atoms: C_11  and  C_12
REMARK    4  A    between atoms: C_12  and  C_13
REMARK    5  A    between atoms: C_12  and  C_14
REMARK    6  A    between atoms: C_12  and  C_15
REMARK    7  A    between atoms: C_15  and  N_16
REMARK    8  A    between atoms: N_16  and  C_17
REMARK    9  A    between atoms: C_20  and  C_21
REMARK                            x       y       z     vdW  Elec       q    Type
REMARK                         _______ _______ _______ _____ _____    ______ ____
ROOT
ATOM      1  C   UNL     1      -1.628  -4.033  -1.084  0.00  0.00    +0.000 C 
ATOM      2  C   UNL     1      -1.479  -4.148   0.446  0.00  0.00    +0.000 C 
ATOM      3  C   UNL     1      -2.384  -2.733  -1.441  0.00  0.00    +0.000 C 
ENDROOT
BRANCH   1   8
ATOM      4  C   UNL     1       1.904  -2.781  -2.013  0.00  0.00    +0.000 A 
ATOM      5  C   UNL     1       2.253  -3.770  -2.923  0.00  0.00    +0.000 A 
ATOM      6  C   UNL     1       1.363  -4.802  -3.168  0.00  0.00    +0.000 A 
ATOM      7  N   UNL     1       0.141  -4.913  -2.596  0.00  0.00    +0.000 NA
ATOM      8  C   UNL     1      -0.222  -3.959  -1.715  0.00  0.00    +0.000 A 
ATOM      9  C   UNL     1       0.651  -2.909  -1.402  0.00  0.00    +0.000 A 
BRANCH   4  15
ATOM     10  C   UNL     1       2.141   0.454  -3.893  0.00  0.00    +0.000 C 
ATOM     11  C   UNL     1       2.750   0.627  -2.497  0.00  0.00    +0.000 C 
ATOM     12  C   UNL     1       4.282   0.545  -2.550  0.00  0.00    +0.000 C 
ATOM     13  C   UNL     1       4.770  -0.882  -2.801  0.00  0.00    +0.000 C 
ATOM     14  C   UNL     1       4.196  -1.862  -1.784  0.00  0.00    +0.000 C 
ATOM     15  N   UNL     1       2.743  -1.723  -1.714  0.00  0.00    +0.000 N 
ATOM     16  C   UNL     1       2.206  -0.383  -1.470  0.00  0.00    +0.000 C 
ENDBRANCH   4  15
ENDBRANCH   1   8
BRANCH   1  17
ATOM     17  C   UNL     1      -2.430  -5.269  -1.602  0.00  0.00    +0.000 C 
BRANCH  17  18
ATOM     18  N   UNL     1      -3.777  -5.378  -1.012  0.00  0.00    +0.000 N 
ATOM     19  H   UNL     1      -4.240  -4.508  -0.769  0.00  0.00    +0.000 HD
BRANCH  18  20
ATOM     20  C   UNL     1      -4.640  -6.407  -1.382  0.00  0.00    +0.000 A 
ATOM     21  C   UNL     1      -4.274  -7.436  -2.249  0.00  0.00    +0.000 A 
ATOM     22  C   UNL     1      -5.131  -8.513  -2.482  0.00  0.00    +0.000 A 
ATOM     23  C   UNL     1      -6.347  -8.542  -1.818  0.00  0.00    +0.000 A 
ATOM     24  N   UNL     1      -6.773  -7.559  -0.981  0.00  0.00    +0.000 NA
ATOM     25  C   UNL     1      -5.904  -6.534  -0.787  0.00  0.00    +0.000 A 
BRANCH  23  26
ATOM     26  C   UNL     1      -7.246  -9.736  -1.985  0.00  0.00    +0.000 C 
ATOM     27  N   UNL     1      -8.427  -9.675  -1.282  0.00  0.00    +0.000 N 
ATOM     28  O   UNL     1      -6.957 -10.693  -2.675  0.00  0.00    +0.000 OA
ATOM     29  H   UNL     1      -8.618  -8.877  -0.692  0.00  0.00    +0.000 HD
ATOM     30  H   UNL     1      -9.059 -10.462  -1.312  0.00  0.00    +0.000 HD
ENDBRANCH  23  26
ENDBRANCH  18  20
ENDBRANCH  17  18
ENDBRANCH   1  17
TORSDOF 6
