REMARK  Name = 
REMARK  5 active torsions:
REMARK  status: ('A' for Active; 'I' for Inactive)
REMARK    1  A    between atoms: C_1  and  O_2
REMARK    2  A    between atoms: O_2  and  C_3
REMARK    3  A    between atoms: C_5  and  C_6
REMARK    4  A    between atoms: C_6  and  N_7
REMARK    5  A    between atoms: C_11  and  C_12
REMARK                            x       y       z     vdW  Elec       q    Type
REMARK                         _______ _______ _______ _____ _____    ______ ____
ROOT
ATOM      1  N   UNL     1       3.455  -0.852   5.876  0.00  0.00    +0.000 N 
ATOM      2  C   UNL     1       4.667  -0.804   6.555  0.00  0.00    +0.000 A 
ATOM      3  C   UNL     1       5.895  -1.096   5.976  0.00  0.00    +0.000 A 
ATOM      4  C   UNL     1       7.061  -0.974   6.740  0.00  0.00    +0.000 A 
ATOM      5  C   UNL     1       6.971  -0.561   8.068  0.00  0.00    +0.000 A 
ATOM      6  C   UNL     1       5.706  -0.301   8.571  0.00  0.00    +0.000 A 
ATOM      7  N   UNL     1       4.567  -0.405   7.841  0.00  0.00    +0.000 NA
ATOM      8  H   UNL     1       2.715  -0.667   6.546  0.00  0.00    +0.000 HD
ENDROOT
BRANCH   5   9
ATOM      9  C   UNL     1       8.134  -0.412   8.966  0.00  0.00    +0.000 C 
ATOM     10  N   UNL     1       9.355  -0.196   8.389  0.00  0.00    +0.000 N 
ATOM     11  O   UNL     1       8.010  -0.447  10.183  0.00  0.00    +0.000 OA
ATOM     12  H   UNL     1       9.466   0.078   7.424  0.00  0.00    +0.000 HD
ATOM     13  H   UNL     1      10.121  -0.000   9.022  0.00  0.00    +0.000 HD
ENDBRANCH   5   9
BRANCH   1  14
ATOM     14  C   UNL     1       3.159  -1.615   4.661  0.00  0.00    +0.000 C 
ATOM     15  C   UNL     1       3.119  -3.130   4.677  0.00  0.00    +0.000 C 
ATOM     16  C   UNL     1       1.832  -2.375   4.690  0.00  0.00    +0.000 C 
BRANCH  14  19
ATOM     17  C   UNL     1       4.561  -0.601   1.235  0.00  0.00    +0.000 A 
ATOM     18  C   UNL     1       4.376  -1.325   2.406  0.00  0.00    +0.000 A 
ATOM     19  C   UNL     1       3.457  -0.868   3.363  0.00  0.00    +0.000 A 
ATOM     20  C   UNL     1       2.791   0.331   3.072  0.00  0.00    +0.000 A 
ATOM     21  C   UNL     1       3.043   0.989   1.881  0.00  0.00    +0.000 A 
ATOM     22  N   UNL     1       3.910   0.544   0.953  0.00  0.00    +0.000 NA
BRANCH  17  24
ATOM     23  C   UNL     1       5.537  -0.343  -0.871  0.00  0.00    +0.000 C 
ATOM     24  O   UNL     1       5.478  -1.104   0.334  0.00  0.00    +0.000 OA
ENDBRANCH  17  24
ENDBRANCH  14  19
ENDBRANCH   1  14
TORSDOF 4
