REMARK  Name = 
REMARK  7 active torsions:
REMARK  status: ('A' for Active; 'I' for Inactive)
REMARK    1  A    between atoms: C_2  and  C_4
REMARK    2  A    between atoms: C_7  and  O_8
REMARK    3  A    between atoms: O_8  and  C_9
REMARK    4  A    between atoms: C_9  and  C_10
REMARK    5  A    between atoms: C_10  and  C_13
REMARK    6  A    between atoms: C_18  and  S_19
REMARK    7  A    between atoms: S_19  and  C_20
REMARK                            x       y       z     vdW  Elec       q    Type
REMARK                         _______ _______ _______ _____ _____    ______ ____
ROOT
ATOM      1  C   UNL     1       5.849   7.073  -1.020  0.00  0.00    +0.000 C 
ATOM      2  F   UNL     1       5.758   7.100  -2.382  0.00  0.00    +0.000 F 
ATOM      3  F   UNL     1       4.947   6.134  -0.611  0.00  0.00    +0.000 F 
ENDROOT
BRANCH   1   4
ATOM      4  C   UNL     1       5.571   8.439  -0.411  0.00  0.00    +0.000 A 
ATOM      5  C   UNL     1       4.913   8.551   0.818  0.00  0.00    +0.000 A 
ATOM      6  C   UNL     1       4.717   9.808   1.384  0.00  0.00    +0.000 A 
ATOM      7  F   UNL     1       4.076   9.906   2.557  0.00  0.00    +0.000 F 
ATOM      8  C   UNL     1       5.171  10.963   0.755  0.00  0.00    +0.000 A 
ATOM      9  C   UNL     1       5.832  10.868  -0.470  0.00  0.00    +0.000 A 
ATOM     10  C   UNL     1       6.019   9.608  -1.053  0.00  0.00    +0.000 A 
BRANCH   9  11
ATOM     11  S   UNL     1       6.332  12.335  -1.343  0.00  0.00    +0.000 S 
BRANCH  11  12
ATOM     12  C   UNL     1       7.975  12.601  -0.581  0.00  0.00    +0.000 C 
ATOM     13  C   UNL     1       8.647  13.871  -1.166  0.00  0.00    +0.000 C 
ATOM     14  C   UNL     1       9.952  13.065  -1.287  0.00  0.00    +0.000 C 
ATOM     15  C   UNL     1       9.102  11.779  -1.249  0.00  0.00    +0.000 C 
ENDBRANCH  11  12
ENDBRANCH   9  11
ENDBRANCH   1   4
BRANCH   1  16
ATOM     16  C   UNL     1       7.259   6.621  -0.621  0.00  0.00    +0.000 C 
BRANCH  16  17
ATOM     17  O   UNL     1       7.593   5.341  -1.184  0.00  0.00    +0.000 OA
BRANCH  17  21
ATOM     18  C   UNL     1      11.420   4.166  -0.209  0.00  0.00    +0.000 A 
ATOM     19  C   UNL     1      10.632   3.347  -1.020  0.00  0.00    +0.000 A 
ATOM     20  C   UNL     1       9.334   3.750  -1.342  0.00  0.00    +0.000 A 
ATOM     21  C   UNL     1       8.874   4.957  -0.839  0.00  0.00    +0.000 A 
ATOM     22  N   UNL     1       9.611   5.762  -0.042  0.00  0.00    +0.000 NA
ATOM     23  C   UNL     1      10.862   5.345   0.264  0.00  0.00    +0.000 A 
BRANCH  18  25
ATOM     24  N   UNL     1      13.531   3.054  -0.666  0.00  0.00    +0.000 N 
ATOM     25  C   UNL     1      12.808   3.844   0.182  0.00  0.00    +0.000 C 
ATOM     26  O   UNL     1      13.307   4.304   1.200  0.00  0.00    +0.000 OA
ATOM     27  H   UNL     1      14.513   2.943  -0.442  0.00  0.00    +0.000 HD
ATOM     28  H   UNL     1      13.249   2.873  -1.619  0.00  0.00    +0.000 HD
ENDBRANCH  18  25
ENDBRANCH  17  21
ENDBRANCH  16  17
ENDBRANCH   1  16
TORSDOF 7
