REMARK  Name = 
REMARK  6 active torsions:
REMARK  status: ('A' for Active; 'I' for Inactive)
REMARK    1  A    between atoms: N_1  and  C_2
REMARK    2  A    between atoms: C_2  and  C_3
REMARK    3  A    between atoms: C_3  and  O_4
REMARK    4  A    between atoms: O_4  and  C_5
REMARK    5  A    between atoms: C_8  and  C_9
REMARK    6  A    between atoms: C_9  and  N_10
REMARK                            x       y       z     vdW  Elec       q    Type
REMARK                         _______ _______ _______ _____ _____    ______ ____
ROOT
ATOM      1  C   UNL     1       5.084  -1.805  -2.165  0.00  0.00    +0.000 A 
ATOM      2  C   UNL     1       4.792  -1.962  -3.517  0.00  0.00    +0.000 A 
ATOM      3  C   UNL     1       5.566  -2.824  -4.310  0.00  0.00    +0.000 A 
ATOM      4  C   UNL     1       6.641  -3.528  -3.755  0.00  0.00    +0.000 A 
ATOM      5  C   UNL     1       6.938  -3.348  -2.404  0.00  0.00    +0.000 A 
ATOM      6  C   UNL     1       6.158  -2.506  -1.614  0.00  0.00    +0.000 A 
ENDROOT
BRANCH   1   7
ATOM      7  O   UNL     1       4.400  -1.000  -1.291  0.00  0.00    +0.000 OA
BRANCH   7   8
ATOM      8  C   UNL     1       3.383  -0.164  -1.849  0.00  0.00    +0.000 C 
BRANCH   8   9
ATOM      9  C   UNL     1       2.835   0.744  -0.743  0.00  0.00    +0.000 C 
BRANCH   9  10
ATOM     10  N   UNL     1       1.778   1.630  -1.230  0.00  0.00    +0.000 NA
ATOM     11  H   UNL     1       1.468   2.230  -0.466  0.00  0.00    +0.000 HD
ATOM     12  H   UNL     1       0.965   1.078  -1.502  0.00  0.00    +0.000 HD
ENDBRANCH   9  10
ENDBRANCH   8   9
ENDBRANCH   7   8
ENDBRANCH   1   7
BRANCH   4  13
ATOM     13  C   UNL     1       7.425  -4.497  -4.597  0.00  0.00    +0.000 C 
BRANCH  13  14
ATOM     14  N   UNL     1       8.619  -3.915  -5.206  0.00  0.00    +0.000 N 
ATOM     15  C   UNL     1       8.593  -2.930  -6.166  0.00  0.00    +0.000 A 
ATOM     16  C   UNL     1       9.863  -2.788  -6.672  0.00  0.00    +0.000 A 
ATOM     17  C   UNL     1      10.618  -3.888  -6.193  0.00  0.00    +0.000 A 
ATOM     18  C   UNL     1      11.845  -4.461  -6.577  0.00  0.00    +0.000 A 
ATOM     19  C   UNL     1      12.302  -5.588  -5.892  0.00  0.00    +0.000 A 
ATOM     20 CL   UNL     1      13.670  -6.444  -6.495  0.00  0.00    +0.000 Cl
ATOM     21  C   UNL     1      11.643  -6.058  -4.761  0.00  0.00    +0.000 A 
ATOM     22  C   UNL     1      10.426  -5.497  -4.358  0.00  0.00    +0.000 A 
ATOM     23  C   UNL     1       9.886  -4.477  -5.157  0.00  0.00    +0.000 A 
ENDBRANCH  13  14
ENDBRANCH   4  13
TORSDOF 6
