REMARK  Name = 
REMARK  8 active torsions:
REMARK  status: ('A' for Active; 'I' for Inactive)
REMARK    1  A    between atoms: C_1  and  C_2
REMARK    2  A    between atoms: C_2  and  C_3
REMARK    3  A    between atoms: C_2  and  C_4
REMARK    4  A    between atoms: C_2  and  C_16
REMARK    5  A    between atoms: C_4  and  N_5
REMARK    6  A    between atoms: N_5  and  C_6
REMARK    7  A    between atoms: C_9  and  C_10
REMARK    8  A    between atoms: C_14  and  N_15
REMARK                            x       y       z     vdW  Elec       q    Type
REMARK                         _______ _______ _______ _____ _____    ______ ____
ROOT
ATOM      1  C   UNL     1       5.407  -0.735  -2.322  0.00  0.00    +0.000 A 
ATOM      2  N   UNL     1       6.539  -0.000  -2.450  0.00  0.00    +0.000 NA
ATOM      3  C   UNL     1       7.504  -0.506  -3.256  0.00  0.00    +0.000 A 
ATOM      4  C   UNL     1       7.354  -1.705  -3.925  0.00  0.00    +0.000 A 
ATOM      5  N   UNL     1       6.226  -2.465  -3.829  0.00  0.00    +0.000 NA
ATOM      6  C   UNL     1       5.265  -1.968  -3.016  0.00  0.00    +0.000 A 
ENDROOT
BRANCH   4   7
ATOM      7  C   UNL     1       8.474  -2.229  -4.756  0.00  0.00    +0.000 C 
ATOM      8  N   UNL     1       8.272  -3.457  -5.328  0.00  0.00    +0.000 N 
ATOM      9  O   UNL     1       9.514  -1.610  -4.913  0.00  0.00    +0.000 OA
ATOM     10  H   UNL     1       7.405  -3.959  -5.174  0.00  0.00    +0.000 HD
ATOM     11  H   UNL     1       9.004  -3.864  -5.895  0.00  0.00    +0.000 HD
ENDBRANCH   4   7
BRANCH   6  12
ATOM     12  N   UNL     1       4.136  -2.785  -2.896  0.00  0.00    +0.000 N 
ATOM     13  H   UNL     1       4.320  -3.641  -3.406  0.00  0.00    +0.000 HD
ATOM     14  H   UNL     1       3.940  -2.951  -1.917  0.00  0.00    +0.000 HD
ENDBRANCH   6  12
BRANCH   1  15
ATOM     15  N   UNL     1       4.553  -0.219  -1.374  0.00  0.00    +0.000 N 
ATOM     16  H   UNL     1       4.960   0.680  -1.121  0.00  0.00    +0.000 HD
BRANCH  15  17
ATOM     17  C   UNL     1       3.099  -0.190  -1.463  0.00  0.00    +0.000 C 
BRANCH  17  19
ATOM     18  C   UNL     1       0.961  -0.094  -0.098  0.00  0.00    +0.000 C 
ATOM     19  C   UNL     1       2.503  -0.014  -0.019  0.00  0.00    +0.000 C 
ATOM     20  C   UNL     1       2.969  -1.226   0.829  0.00  0.00    +0.000 C 
BRANCH  19  21
ATOM     21  C   UNL     1       2.976   1.344   0.639  0.00  0.00    +0.000 C 
ATOM     22  C   UNL     1       2.529   1.525   2.107  0.00  0.00    +0.000 C 
ATOM     23  C   UNL     1       2.940   2.884   2.660  0.00  0.00    +0.000 C 
ATOM     24  O   UNL     1       2.440   3.936   1.840  0.00  0.00    +0.000 OA
ATOM     25  C   UNL     1       2.986   3.883   0.526  0.00  0.00    +0.000 C 
ATOM     26  C   UNL     1       2.574   2.594  -0.174  0.00  0.00    +0.000 C 
ENDBRANCH  19  21
ENDBRANCH  17  19
ENDBRANCH  15  17
ENDBRANCH   1  15
TORSDOF 6
