REMARK  Name = 
REMARK  9 active torsions:
REMARK  status: ('A' for Active; 'I' for Inactive)
REMARK    1  A    between atoms: C_1  and  N_2
REMARK    2  A    between atoms: N_2  and  C_3
REMARK    3  A    between atoms: N_2  and  C_4
REMARK    4  A    between atoms: C_4  and  C_5
REMARK    5  A    between atoms: C_5  and  N_6
REMARK    6  A    between atoms: C_5  and  C_27
REMARK    7  A    between atoms: C_10  and  C_11
REMARK    8  A    between atoms: C_11  and  N_12
REMARK    9  A    between atoms: C_13  and  C_15
REMARK                            x       y       z     vdW  Elec       q    Type
REMARK                         _______ _______ _______ _____ _____    ______ ____
ROOT
ATOM      1  N   UNL     1       5.127   1.115   0.224  0.00  0.00    +0.000 N 
ATOM      2  C   UNL     1       4.929   1.205  -1.143  0.00  0.00    +0.000 A 
ATOM      3  C   UNL     1       3.997   0.359  -1.730  0.00  0.00    +0.000 A 
ATOM      4  C   UNL     1       3.619   0.547  -3.061  0.00  0.00    +0.000 A 
ATOM      5  C   UNL     1       4.214   1.562  -3.792  0.00  0.00    +0.000 A 
ATOM      6  N   UNL     1       5.169   2.332  -3.231  0.00  0.00    +0.000 NA
ATOM      7  N   UNL     1       5.513   2.151  -1.902  0.00  0.00    +0.000 NA
ATOM      8  H   UNL     1       5.278   0.179   0.578  0.00  0.00    +0.000 HD
ENDROOT
BRANCH   1   9
ATOM      9  C   UNL     1       5.693   2.187   1.057  0.00  0.00    +0.000 C 
BRANCH   9  10
ATOM     10  C   UNL     1       7.210   2.126   1.239  0.00  0.00    +0.000 A 
ATOM     11  C   UNL     1       8.086   2.409   0.191  0.00  0.00    +0.000 A 
ATOM     12  C   UNL     1       9.446   2.554   0.458  0.00  0.00    +0.000 A 
ATOM     13  C   UNL     1       9.907   2.397   1.757  0.00  0.00    +0.000 A 
ATOM     14  C   UNL     1       8.987   2.082   2.739  0.00  0.00    +0.000 A 
ATOM     15  N   UNL     1       7.661   1.944   2.512  0.00  0.00    +0.000 NA
ENDBRANCH   9  10
BRANCH   9  16
ATOM     16  C   UNL     1       5.257   3.645   0.705  0.00  0.00    +0.000 C 
BRANCH  16  18
ATOM     17  C   UNL     1       3.038   3.759   1.730  0.00  0.00    +0.000 C 
ATOM     18  N   UNL     1       3.813   3.906   0.502  0.00  0.00    +0.000 NA
ATOM     19  C   UNL     1       3.635   5.251  -0.049  0.00  0.00    +0.000 C 
ENDBRANCH  16  18
ENDBRANCH   9  16
ENDBRANCH   1   9
BRANCH   5  20
ATOM     20  C   UNL     1       3.797   1.872  -5.207  0.00  0.00    +0.000 C 
BRANCH  20  21
ATOM     21  N   UNL     1       2.726   2.848  -5.289  0.00  0.00    +0.000 N 
ATOM     22  C   UNL     1       1.406   2.497  -5.177  0.00  0.00    +0.000 C 
ATOM     23  O   UNL     1       1.062   1.332  -4.990  0.00  0.00    +0.000 OA
ATOM     24  H   UNL     1       2.986   3.809  -5.488  0.00  0.00    +0.000 HD
BRANCH  22  25
ATOM     25  C   UNL     1       0.415   3.579  -5.257  0.00  0.00    +0.000 A 
ATOM     26  C   UNL     1      -0.847   3.388  -4.708  0.00  0.00    +0.000 A 
ATOM     27  S   UNL     1      -1.892   4.721  -4.899  0.00  0.00    +0.000 S 
ATOM     28  C   UNL     1      -0.713   5.587  -5.767  0.00  0.00    +0.000 A 
ATOM     29  N   UNL     1      -0.988   6.817  -6.277  0.00  0.00    +0.000 NA
ATOM     30  C   UNL     1      -0.020   7.348  -6.945  0.00  0.00    +0.000 A 
ATOM     31  N   UNL     1       1.206   6.765  -7.136  0.00  0.00    +0.000 N 
ATOM     32  C   UNL     1       1.545   5.552  -6.588  0.00  0.00    +0.000 A 
ATOM     33  O   UNL     1       2.683   5.099  -6.696  0.00  0.00    +0.000 OA
ATOM     34  C   UNL     1       0.477   4.888  -5.870  0.00  0.00    +0.000 A 
ATOM     35  H   UNL     1       1.930   7.244  -7.649  0.00  0.00    +0.000 HD
ENDBRANCH  22  25
ENDBRANCH  20  21
ENDBRANCH   5  20
TORSDOF 7
