REMARK  Name = 
REMARK  9 active torsions:
REMARK  status: ('A' for Active; 'I' for Inactive)
REMARK    1  A    between atoms: C_1  and  O_2
REMARK    2  A    between atoms: O_2  and  C_3
REMARK    3  A    between atoms: C_10  and  C_11
REMARK    4  A    between atoms: N_13  and  C_14
REMARK    5  A    between atoms: C_14  and  C_15
REMARK    6  A    between atoms: C_18  and  C_19
REMARK    7  A    between atoms: C_19  and  O_20
REMARK    8  A    between atoms: O_20  and  C_21
REMARK    9  A    between atoms: C_21  and  C_22
REMARK                            x       y       z     vdW  Elec       q    Type
REMARK                         _______ _______ _______ _____ _____    ______ ____
ROOT
ATOM      1  C   UNL     1       2.891   1.092  -3.109  0.00  0.00    +0.000 C 
ENDROOT
BRANCH   1   2
ATOM      2  C   UNL     1       1.723   0.138  -3.172  0.00  0.00    +0.000 A 
ATOM      3  C   UNL     1       1.926  -1.248  -3.222  0.00  0.00    +0.000 A 
ATOM      4  C   UNL     1       0.838  -2.129  -3.279  0.00  0.00    +0.000 A 
ATOM      5  C   UNL     1      -0.477  -1.643  -3.298  0.00  0.00    +0.000 A 
ATOM      6  C   UNL     1      -0.677  -0.256  -3.273  0.00  0.00    +0.000 A 
ATOM      7  C   UNL     1       0.409   0.624  -3.217  0.00  0.00    +0.000 A 
BRANCH   5   8
ATOM      8  C   UNL     1      -1.653  -2.588  -3.369  0.00  0.00    +0.000 C 
BRANCH   8   9
ATOM      9  O   UNL     1      -1.645  -3.449  -2.233  0.00  0.00    +0.000 OA
BRANCH   9  10
ATOM     10  C   UNL     1      -2.761  -4.341  -2.237  0.00  0.00    +0.000 C 
BRANCH  10  11
ATOM     11  C   UNL     1      -2.736  -5.223  -1.019  0.00  0.00    +0.000 A 
ATOM     12  C   UNL     1      -1.546  -5.607  -0.396  0.00  0.00    +0.000 A 
ATOM     13  C   UNL     1      -1.581  -6.444   0.716  0.00  0.00    +0.000 A 
ATOM     14  C   UNL     1      -2.814  -6.888   1.163  0.00  0.00    +0.000 A 
ATOM     15  N   UNL     1      -3.985  -6.562   0.576  0.00  0.00    +0.000 NA
ATOM     16  C   UNL     1      -3.918  -5.742  -0.498  0.00  0.00    +0.000 A 
ENDBRANCH  10  11
ENDBRANCH   9  10
ENDBRANCH   8   9
ENDBRANCH   5   8
ENDBRANCH   1   2
BRANCH   1  19
ATOM     17  C   UNL     1       4.436   2.236  -4.656  0.00  0.00    +0.000 C 
ATOM     18  O   UNL     1       5.066   2.737  -3.728  0.00  0.00    +0.000 OA
ATOM     19  N   UNL     1       3.357   1.426  -4.432  0.00  0.00    +0.000 N 
ATOM     20  H   UNL     1       2.808   1.094  -5.210  0.00  0.00    +0.000 HD
BRANCH  17  28
ATOM     21  C   UNL     1       3.215   1.080  -7.664  0.00  0.00    +0.000 A 
ATOM     22  N   UNL     1       2.967   0.767  -8.951  0.00  0.00    +0.000 NA
ATOM     23  C   UNL     1       3.753   1.296  -9.890  0.00  0.00    +0.000 A 
ATOM     24  N   UNL     1       4.776   2.123  -9.703  0.00  0.00    +0.000 NA
ATOM     25  C   UNL     1       4.988   2.414  -8.408  0.00  0.00    +0.000 A 
ATOM     26  S   UNL     1       6.251   3.466  -7.983  0.00  0.00    +0.000 S 
ATOM     27  C   UNL     1       5.888   3.315  -6.330  0.00  0.00    +0.000 A 
ATOM     28  C   UNL     1       4.815   2.472  -6.062  0.00  0.00    +0.000 A 
ATOM     29  C   UNL     1       4.267   1.946  -7.313  0.00  0.00    +0.000 A 
BRANCH  21  31
ATOM     30  C   UNL     1       1.743  -0.646  -7.098  0.00  0.00    +0.000 C 
ATOM     31  O   UNL     1       2.365   0.574  -6.703  0.00  0.00    +0.000 OA
ENDBRANCH  21  31
ENDBRANCH  17  28
ENDBRANCH   1  19
TORSDOF 8
