REMARK  Name = 
REMARK  5 active torsions:
REMARK  status: ('A' for Active; 'I' for Inactive)
REMARK    1  A    between atoms: C_2  and  C_4
REMARK    2  A    between atoms: C_7  and  N_8
REMARK    3  A    between atoms: N_8  and  C_9
REMARK    4  A    between atoms: C_9  and  C_10
REMARK    5  A    between atoms: C_14  and  C_15
REMARK                            x       y       z     vdW  Elec       q    Type
REMARK                         _______ _______ _______ _____ _____    ______ ____
ROOT
ATOM      1  N   UNL     1       5.246   4.074  -2.816  0.00  0.00    +0.000 N 
ATOM      2  H   UNL     1       5.645   3.623  -3.638  0.00  0.00    +0.000 HD
ENDROOT
BRANCH   1   6
ATOM      3  C   UNL     1       3.581   1.309  -0.082  0.00  0.00    +0.000 A 
ATOM      4  C   UNL     1       2.928   2.517  -0.322  0.00  0.00    +0.000 A 
ATOM      5  C   UNL     1       3.460   3.432  -1.238  0.00  0.00    +0.000 A 
ATOM      6  C   UNL     1       4.634   3.156  -1.954  0.00  0.00    +0.000 A 
ATOM      7  C   UNL     1       5.288   1.946  -1.683  0.00  0.00    +0.000 A 
ATOM      8  C   UNL     1       4.774   1.031  -0.753  0.00  0.00    +0.000 A 
BRANCH   3  10
ATOM      9  N   UNL     1       1.709   0.329   1.130  0.00  0.00    +0.000 N 
ATOM     10  C   UNL     1       3.057   0.331   0.908  0.00  0.00    +0.000 C 
ATOM     11  O   UNL     1       3.796  -0.458   1.483  0.00  0.00    +0.000 OA
ATOM     12  H   UNL     1       1.355  -0.399   1.737  0.00  0.00    +0.000 HD
ATOM     13  H   UNL     1       1.054   0.787   0.514  0.00  0.00    +0.000 HD
ENDBRANCH   3  10
ENDBRANCH   1   6
BRANCH   1  14
ATOM     14  C   UNL     1       4.574   5.336  -3.098  0.00  0.00    +0.000 C 
BRANCH  14  15
ATOM     15  C   UNL     1       5.376   6.195  -4.034  0.00  0.00    +0.000 A 
ATOM     16  C   UNL     1       4.825   6.639  -5.229  0.00  0.00    +0.000 A 
ATOM     17  N   UNL     1       5.451   7.474  -6.082  0.00  0.00    +0.000 NA
ATOM     18  C   UNL     1       6.688   7.897  -5.722  0.00  0.00    +0.000 A 
ATOM     19  C   UNL     1       7.354   7.541  -4.546  0.00  0.00    +0.000 A 
ATOM     20  C   UNL     1       6.658   6.659  -3.702  0.00  0.00    +0.000 A 
BRANCH  19  21
ATOM     21  C   UNL     1       8.692   8.070  -4.209  0.00  0.00    +0.000 A 
ATOM     22  C   UNL     1       9.632   7.325  -3.482  0.00  0.00    +0.000 A 
ATOM     23  C   UNL     1      10.887   7.856  -3.182  0.00  0.00    +0.000 A 
ATOM     24  C   UNL     1      11.184   9.131  -3.624  0.00  0.00    +0.000 A 
ATOM     25  N   UNL     1      10.321   9.894  -4.322  0.00  0.00    +0.000 NA
ATOM     26  C   UNL     1       9.107   9.351  -4.588  0.00  0.00    +0.000 A 
ENDBRANCH  19  21
ENDBRANCH  14  15
ENDBRANCH   1  14
TORSDOF 5
