REMARK  Name = 
REMARK  6 active torsions:
REMARK  status: ('A' for Active; 'I' for Inactive)
REMARK    1  A    between atoms: C_2  and  C_25
REMARK    2  A    between atoms: N_3  and  C_4
REMARK    3  A    between atoms: C_4  and  C_5
REMARK    4  A    between atoms: C_8  and  C_9
REMARK    5  A    between atoms: C_9  and  N_10
REMARK    6  A    between atoms: C_11  and  C_13
REMARK                            x       y       z     vdW  Elec       q    Type
REMARK                         _______ _______ _______ _____ _____    ______ ____
ROOT
ATOM      1  C   UNL     1       3.333   2.953  -2.128  0.00  0.00    +0.000 A 
ATOM      2  C   UNL     1       3.018   4.307  -2.048  0.00  0.00    +0.000 A 
ATOM      3  C   UNL     1       3.826   5.231  -2.710  0.00  0.00    +0.000 A 
ATOM      4  C   UNL     1       4.944   4.794  -3.423  0.00  0.00    +0.000 A 
ATOM      5  C   UNL     1       5.186   3.426  -3.442  0.00  0.00    +0.000 A 
ATOM      6  N   UNL     1       4.419   2.506  -2.808  0.00  0.00    +0.000 NA
ENDROOT
BRANCH   1   7
ATOM      7  C   UNL     1       2.430   1.918  -1.501  0.00  0.00    +0.000 C 
BRANCH   7  10
ATOM      8  O   UNL     1       0.917   0.206   0.057  0.00  0.00    +0.000 OA
ATOM      9  C   UNL     1       1.889   0.752   0.574  0.00  0.00    +0.000 C 
ATOM     10  N   UNL     1       2.684   1.661  -0.099  0.00  0.00    +0.000 N 
ATOM     11  H   UNL     1       3.557   1.951   0.332  0.00  0.00    +0.000 HD
BRANCH   9  12
ATOM     12  C   UNL     1       2.254   0.454   1.985  0.00  0.00    +0.000 A 
ATOM     13  C   UNL     1       1.527  -0.500   2.688  0.00  0.00    +0.000 A 
ATOM     14  N   UNL     1       1.767  -0.791   3.989  0.00  0.00    +0.000 NA
ATOM     15  C   UNL     1       2.769  -0.083   4.558  0.00  0.00    +0.000 A 
ATOM     16  C   UNL     1       3.505   0.864   3.856  0.00  0.00    +0.000 A 
ATOM     17  N   UNL     1       3.274   1.157   2.552  0.00  0.00    +0.000 NA
ENDBRANCH   9  12
ENDBRANCH   7  10
ENDBRANCH   1   7
BRANCH   4  18
ATOM     18  C   UNL     1       5.830   5.751  -4.165  0.00  0.00    +0.000 C 
BRANCH  18  19
ATOM     19  N   UNL     1       5.383   5.953  -5.522  0.00  0.00    +0.000 N 
ATOM     20  C   UNL     1       6.142   6.678  -6.410  0.00  0.00    +0.000 C 
ATOM     21  O   UNL     1       7.243   7.128  -6.100  0.00  0.00    +0.000 OA
ATOM     22  H   UNL     1       4.401   5.792  -5.723  0.00  0.00    +0.000 HD
BRANCH  20  23
ATOM     23  C   UNL     1       5.604   6.841  -7.766  0.00  0.00    +0.000 A 
ATOM     24  C   UNL     1       6.466   7.135  -8.814  0.00  0.00    +0.000 A 
ATOM     25  S   UNL     1       5.692   7.246 -10.330  0.00  0.00    +0.000 S 
ATOM     26  C   UNL     1       4.168   6.956  -9.632  0.00  0.00    +0.000 A 
ATOM     27  N   UNL     1       3.042   6.944 -10.396  0.00  0.00    +0.000 NA
ATOM     28  C   UNL     1       1.951   6.747  -9.734  0.00  0.00    +0.000 A 
ATOM     29  N   UNL     1       1.885   6.553  -8.378  0.00  0.00    +0.000 N 
ATOM     30  C   UNL     1       2.998   6.524  -7.572  0.00  0.00    +0.000 A 
ATOM     31  O   UNL     1       2.909   6.305  -6.368  0.00  0.00    +0.000 OA
ATOM     32  C   UNL     1       4.251   6.758  -8.265  0.00  0.00    +0.000 A 
ATOM     33  H   UNL     1       0.998   6.396  -7.923  0.00  0.00    +0.000 HD
ENDBRANCH  20  23
ENDBRANCH  18  19
ENDBRANCH   4  18
TORSDOF 6
