REMARK  Name = 
REMARK  6 active torsions:
REMARK  status: ('A' for Active; 'I' for Inactive)
REMARK    1  A    between atoms: C_2  and  C_25
REMARK    2  A    between atoms: N_3  and  C_4
REMARK    3  A    between atoms: C_4  and  C_5
REMARK    4  A    between atoms: C_8  and  C_9
REMARK    5  A    between atoms: C_9  and  N_10
REMARK    6  A    between atoms: C_11  and  C_13
REMARK                            x       y       z     vdW  Elec       q    Type
REMARK                         _______ _______ _______ _____ _____    ______ ____
ROOT
ATOM      1  C   UNL     1       3.342   1.581   3.406  0.00  0.00    +0.000 C 
ATOM      2  C   UNL     1       3.267   0.596   4.584  0.00  0.00    +0.000 C 
ATOM      3  C   UNL     1       4.044   1.097   5.799  0.00  0.00    +0.000 C 
ATOM      4  C   UNL     1       3.570   2.481   6.271  0.00  0.00    +0.000 C 
ATOM      5  C   UNL     1       3.638   3.479   5.103  0.00  0.00    +0.000 C 
ATOM      6  C   UNL     1       2.901   2.986   3.855  0.00  0.00    +0.000 C 
ENDROOT
BRANCH   1   7
ATOM      7  C   UNL     1       4.747   1.623   2.773  0.00  0.00    +0.000 C 
BRANCH   7  10
ATOM      8  O   UNL     1       4.199   0.717   0.180  0.00  0.00    +0.000 OA
ATOM      9  C   UNL     1       4.816  -0.035   0.933  0.00  0.00    +0.000 C 
ATOM     10  N   UNL     1       5.142   0.343   2.219  0.00  0.00    +0.000 N 
ATOM     11  H   UNL     1       5.617  -0.324   2.812  0.00  0.00    +0.000 HD
BRANCH   9  12
ATOM     12  C   UNL     1       5.247  -1.357   0.528  0.00  0.00    +0.000 A 
ATOM     13  C   UNL     1       5.139  -1.912  -0.733  0.00  0.00    +0.000 A 
ATOM     14  N   UNL     1       5.619  -3.200  -0.872  0.00  0.00    +0.000 NA
ATOM     15  C   UNL     1       6.083  -3.611   0.287  0.00  0.00    +0.000 A 
ATOM     16  S   UNL     1       5.980  -2.493   1.584  0.00  0.00    +0.000 S 
ENDBRANCH   9  12
ENDBRANCH   7  10
ENDBRANCH   1   7
BRANCH   4  17
ATOM     17  C   UNL     1       2.157   2.447   6.885  0.00  0.00    +0.000 C 
BRANCH  17  18
ATOM     18  N   UNL     1       2.091   1.602   8.059  0.00  0.00    +0.000 N 
ATOM     19  C   UNL     1       2.269   2.095   9.326  0.00  0.00    +0.000 C 
ATOM     20  O   UNL     1       2.470   3.287   9.542  0.00  0.00    +0.000 OA
ATOM     21  H   UNL     1       2.068   0.597   7.914  0.00  0.00    +0.000 HD
BRANCH  19  22
ATOM     22  C   UNL     1       2.150   1.133  10.427  0.00  0.00    +0.000 A 
ATOM     23  C   UNL     1       1.780   1.588  11.686  0.00  0.00    +0.000 A 
ATOM     24  S   UNL     1       1.696   0.358  12.861  0.00  0.00    +0.000 S 
ATOM     25  C   UNL     1       2.195  -0.821  11.741  0.00  0.00    +0.000 A 
ATOM     26  N   UNL     1       2.375  -2.114  12.123  0.00  0.00    +0.000 NA
ATOM     27  C   UNL     1       2.800  -2.893  11.186  0.00  0.00    +0.000 A 
ATOM     28  N   UNL     1       3.046  -2.500   9.896  0.00  0.00    +0.000 N 
ATOM     29  C   UNL     1       2.784  -1.228   9.445  0.00  0.00    +0.000 A 
ATOM     30  O   UNL     1       2.852  -0.952   8.252  0.00  0.00    +0.000 OA
ATOM     31  C   UNL     1       2.378  -0.292  10.475  0.00  0.00    +0.000 A 
ATOM     32  H   UNL     1       3.336  -3.171   9.200  0.00  0.00    +0.000 HD
ENDBRANCH  19  22
ENDBRANCH  17  18
ENDBRANCH   4  17
TORSDOF 6
