REMARK  Name = 
REMARK  8 active torsions:
REMARK  status: ('A' for Active; 'I' for Inactive)
REMARK    1  A    between atoms: C_1  and  C_2
REMARK    2  A    between atoms: C_2  and  N_3
REMARK    3  A    between atoms: C_2  and  C_25
REMARK    4  A    between atoms: N_3  and  C_4
REMARK    5  A    between atoms: C_4  and  C_5
REMARK    6  A    between atoms: C_8  and  C_9
REMARK    7  A    between atoms: C_9  and  N_10
REMARK    8  A    between atoms: C_11  and  C_13
REMARK                            x       y       z     vdW  Elec       q    Type
REMARK                         _______ _______ _______ _____ _____    ______ ____
ROOT
ATOM      1  C   UNL     1       2.861  -1.991   3.089  0.00  0.00    +0.000 A 
ATOM      2  C   UNL     1       3.297  -1.735   4.397  0.00  0.00    +0.000 A 
ATOM      3  C   UNL     1       3.599  -2.787   5.269  0.00  0.00    +0.000 A 
ATOM      4  C   UNL     1       3.472  -4.118   4.851  0.00  0.00    +0.000 A 
ATOM      5  C   UNL     1       3.024  -4.376   3.549  0.00  0.00    +0.000 A 
ATOM      6  C   UNL     1       2.731  -3.325   2.677  0.00  0.00    +0.000 A 
ENDROOT
BRANCH   1   7
ATOM      7  C   UNL     1       2.462  -0.868   2.156  0.00  0.00    +0.000 C 
BRANCH   7   8
ATOM      8  N   UNL     1       3.562   0.062   1.894  0.00  0.00    +0.000 NA
ATOM      9  H   UNL     1       3.874   0.445   2.788  0.00  0.00    +0.000 HD
BRANCH   8  11
ATOM     10  C   UNL     1       2.684   0.781  -0.349  0.00  0.00    +0.000 C 
ATOM     11  C   UNL     1       3.155   1.205   1.049  0.00  0.00    +0.000 C 
BRANCH  11  12
ATOM     12  C   UNL     1       4.293   2.209   0.911  0.00  0.00    +0.000 A 
ATOM     13  C   UNL     1       5.500   1.851   0.312  0.00  0.00    +0.000 A 
ATOM     14  N   UNL     1       6.525   2.719   0.129  0.00  0.00    +0.000 NA
ATOM     15  C   UNL     1       6.304   3.970   0.585  0.00  0.00    +0.000 A 
ATOM     16  C   UNL     1       5.117   4.337   1.196  0.00  0.00    +0.000 A 
ATOM     17  N   UNL     1       4.090   3.473   1.374  0.00  0.00    +0.000 NA
ENDBRANCH  11  12
ENDBRANCH   8  11
ENDBRANCH   7   8
ENDBRANCH   1   7
BRANCH   4  18
ATOM     18  C   UNL     1       3.750  -5.258   5.793  0.00  0.00    +0.000 C 
BRANCH  18  19
ATOM     19  N   UNL     1       2.556  -5.641   6.504  0.00  0.00    +0.000 N 
ATOM     20  C   UNL     1       2.584  -6.609   7.472  0.00  0.00    +0.000 C 
ATOM     21  O   UNL     1       3.628  -7.162   7.811  0.00  0.00    +0.000 OA
ATOM     22  H   UNL     1       1.668  -5.371   6.091  0.00  0.00    +0.000 HD
BRANCH  20  23
ATOM     23  C   UNL     1       1.309  -6.915   8.132  0.00  0.00    +0.000 A 
ATOM     24  C   UNL     1       1.310  -7.466   9.407  0.00  0.00    +0.000 A 
ATOM     25  S   UNL     1      -0.252  -7.733  10.037  0.00  0.00    +0.000 S 
ATOM     26  C   UNL     1      -0.985  -7.163   8.614  0.00  0.00    +0.000 A 
ATOM     27  N   UNL     1      -2.339  -7.150   8.478  0.00  0.00    +0.000 NA
ATOM     28  C   UNL     1      -2.758  -6.718   7.340  0.00  0.00    +0.000 A 
ATOM     29  N   UNL     1      -1.948  -6.285   6.320  0.00  0.00    +0.000 N 
ATOM     30  C   UNL     1      -0.579  -6.250   6.421  0.00  0.00    +0.000 A 
ATOM     31  O   UNL     1       0.114  -5.810   5.510  0.00  0.00    +0.000 OA
ATOM     32  C   UNL     1      -0.055  -6.748   7.679  0.00  0.00    +0.000 A 
ATOM     33  H   UNL     1      -2.342  -5.941   5.458  0.00  0.00    +0.000 HD
ENDBRANCH  20  23
ENDBRANCH  18  19
ENDBRANCH   4  18
TORSDOF 7
