REMARK  Name = 
REMARK  6 active torsions:
REMARK  status: ('A' for Active; 'I' for Inactive)
REMARK    1  A    between atoms: C_2  and  C_3
REMARK    2  A    between atoms: N_7  and  C_8
REMARK    3  A    between atoms: C_8  and  C_9
REMARK    4  A    between atoms: C_9  and  C_10
REMARK    5  A    between atoms: C_14  and  O_15
REMARK    6  A    between atoms: O_15  and  C_16
REMARK                            x       y       z     vdW  Elec       q    Type
REMARK                         _______ _______ _______ _____ _____    ______ ____
ROOT
ATOM      1  C   UNL     1      -5.860   1.137  -0.255  0.00  0.00    +0.000 C 
ENDROOT
BRANCH   1   2
ATOM      2  C   UNL     1      -6.646   2.429  -0.236  0.00  0.00    +0.000 A 
ATOM      3  C   UNL     1      -8.033   2.404  -0.346  0.00  0.00    +0.000 A 
ATOM      4  C   UNL     1      -8.728   3.611  -0.321  0.00  0.00    +0.000 A 
ATOM      5  C   UNL     1      -8.023   4.805  -0.199  0.00  0.00    +0.000 A 
ATOM      6  C   UNL     1      -6.647   4.740  -0.088  0.00  0.00    +0.000 A 
ATOM      7  N   UNL     1      -5.953   3.587  -0.101  0.00  0.00    +0.000 NA
BRANCH   6   8
ATOM      8  O   UNL     1      -5.953   5.929   0.005  0.00  0.00    +0.000 OA
BRANCH   8   9
ATOM      9  C   UNL     1      -4.680   5.868   0.690  0.00  0.00    +0.000 C 
ATOM     10  C   UNL     1      -3.888   7.203   0.691  0.00  0.00    +0.000 C 
ATOM     11  C   UNL     1      -2.599   6.389   0.503  0.00  0.00    +0.000 C 
ATOM     12  C   UNL     1      -3.467   5.249  -0.051  0.00  0.00    +0.000 C 
ENDBRANCH   8   9
ENDBRANCH   6   8
ENDBRANCH   1   2
BRANCH   1  13
ATOM     13  C   UNL     1      -4.358   1.397  -0.158  0.00  0.00    +0.000 C 
BRANCH  13  18
ATOM     14  C   UNL     1       0.535  -0.025   0.180  0.00  0.00    +0.000 A 
ATOM     15  C   UNL     1      -0.058   1.231   0.168  0.00  0.00    +0.000 A 
ATOM     16  C   UNL     1      -1.445   1.320   0.060  0.00  0.00    +0.000 A 
ATOM     17  C   UNL     1      -2.216   0.163  -0.040  0.00  0.00    +0.000 A 
ATOM     18  N   UNL     1      -3.581   0.176  -0.151  0.00  0.00    +0.000 N 
ATOM     19  N   UNL     1      -1.646  -1.057  -0.029  0.00  0.00    +0.000 NA
ATOM     20  C   UNL     1      -0.296  -1.128   0.081  0.00  0.00    +0.000 A 
ATOM     21  H   UNL     1      -4.011  -0.735  -0.238  0.00  0.00    +0.000 HD
BRANCH  14  23
ATOM     22  N   UNL     1       3.098  -0.294   0.377  0.00  0.00    +0.000 NA
ATOM     23  C   UNL     1       1.949  -0.177   0.288  0.00  0.00    +0.000 C 
ENDBRANCH  14  23
ENDBRANCH  13  18
ENDBRANCH   1  13
TORSDOF 6
