REMARK  Name = 
REMARK  5 active torsions:
REMARK  status: ('A' for Active; 'I' for Inactive)
REMARK    1  A    between atoms: C_2  and  C_5
REMARK    2  A    between atoms: C_9  and  C_10
REMARK    3  A    between atoms: C_10  and  C_11
REMARK    4  A    between atoms: C_11  and  C_12
REMARK    5  A    between atoms: C_16  and  C_17
REMARK                            x       y       z     vdW  Elec       q    Type
REMARK                         _______ _______ _______ _____ _____    ______ ____
ROOT
ATOM      1  C   UNL     1       3.341   1.309   5.956  0.00  0.00    +0.000 C 
ENDROOT
BRANCH   1   2
ATOM      2  C   UNL     1       3.350   0.614   7.297  0.00  0.00    +0.000 A 
ATOM      3  C   UNL     1       3.999  -0.596   7.513  0.00  0.00    +0.000 A 
ATOM      4  N   UNL     1       4.035  -1.237   8.697  0.00  0.00    +0.000 NA
ATOM      5  C   UNL     1       3.408  -0.637   9.733  0.00  0.00    +0.000 A 
ATOM      6  C   UNL     1       2.754   0.595   9.674  0.00  0.00    +0.000 A 
ATOM      7  C   UNL     1       2.742   1.215   8.412  0.00  0.00    +0.000 A 
BRANCH   6   8
ATOM      8  C   UNL     1       2.122   1.191  10.863  0.00  0.00    +0.000 A 
ATOM      9  C   UNL     1       2.613   1.024  12.151  0.00  0.00    +0.000 A 
ATOM     10  N   UNL     1       2.053   1.542  13.268  0.00  0.00    +0.000 NA
ATOM     11  C   UNL     1       0.949   2.271  13.077  0.00  0.00    +0.000 A 
ATOM     12  N   UNL     1       0.370   2.520  11.894  0.00  0.00    +0.000 NA
ATOM     13  C   UNL     1       0.975   1.967  10.818  0.00  0.00    +0.000 A 
ENDBRANCH   6   8
ENDBRANCH   1   2
BRANCH   1  14
ATOM     14  C   UNL     1       3.389   0.368   4.742  0.00  0.00    +0.000 C 
BRANCH  14  19
ATOM     15  C   UNL     1       2.082   2.214   1.663  0.00  0.00    +0.000 A 
ATOM     16  C   UNL     1       3.286   2.581   1.045  0.00  0.00    +0.000 A 
ATOM     17  C   UNL     1       4.509   2.229   1.616  0.00  0.00    +0.000 A 
ATOM     18  C   UNL     1       4.542   1.510   2.810  0.00  0.00    +0.000 A 
ATOM     19  C   UNL     1       3.351   1.124   3.438  0.00  0.00    +0.000 A 
ATOM     20  C   UNL     1       2.127   1.473   2.855  0.00  0.00    +0.000 A 
BRANCH  15  22
ATOM     21  F   UNL     1       0.848   3.412  -0.017  0.00  0.00    +0.000 F 
ATOM     22  C   UNL     1       0.749   2.612   1.080  0.00  0.00    +0.000 C 
ATOM     23  F   UNL     1      -0.020   3.298   1.972  0.00  0.00    +0.000 F 
ATOM     24  F   UNL     1       0.004   1.539   0.696  0.00  0.00    +0.000 F 
ENDBRANCH  15  22
ENDBRANCH  14  19
ENDBRANCH   1  14
TORSDOF 5
