REMARK  Name = 
REMARK  5 active torsions:
REMARK  status: ('A' for Active; 'I' for Inactive)
REMARK    1  A    between atoms: C_2  and  C_17
REMARK    2  A    between atoms: N_3  and  C_4
REMARK    3  A    between atoms: C_4  and  C_5
REMARK    4  A    between atoms: C_8  and  C_9
REMARK    5  A    between atoms: C_9  and  C_10
REMARK                            x       y       z     vdW  Elec       q    Type
REMARK                         _______ _______ _______ _____ _____    ______ ____
ROOT
ATOM      1  O   UNL     1       0.972  -0.007  -0.347  0.00  0.00    +0.000 OA
ATOM      2  C   UNL     1       1.645   0.639  -1.145  0.00  0.00    +0.000 C 
ATOM      3  N   UNL     1       2.408   1.711  -0.757  0.00  0.00    +0.000 N 
ATOM      4  H   UNL     1       2.767   2.346  -1.462  0.00  0.00    +0.000 HD
ENDROOT
BRANCH   2   5
ATOM      5  C   UNL     1       1.712   0.273  -2.565  0.00  0.00    +0.000 A 
ATOM      6  C   UNL     1       1.424  -1.026  -2.958  0.00  0.00    +0.000 A 
ATOM      7  S   UNL     1       1.582  -1.281  -4.637  0.00  0.00    +0.000 S 
ATOM      8  C   UNL     1       1.995   0.348  -4.902  0.00  0.00    +0.000 A 
ATOM      9  N   UNL     1       2.238   0.816  -6.156  0.00  0.00    +0.000 NA
ATOM     10  C   UNL     1       2.510   2.075  -6.215  0.00  0.00    +0.000 A 
ATOM     11  N   UNL     1       2.561   2.911  -5.131  0.00  0.00    +0.000 N 
ATOM     12  C   UNL     1       2.345   2.485  -3.846  0.00  0.00    +0.000 A 
ATOM     13  O   UNL     1       2.436   3.253  -2.895  0.00  0.00    +0.000 OA
ATOM     14  C   UNL     1       2.028   1.072  -3.725  0.00  0.00    +0.000 A 
ATOM     15  H   UNL     1       2.789   3.890  -5.244  0.00  0.00    +0.000 HD
ENDBRANCH   2   5
BRANCH   3  16
ATOM     16  C   UNL     1       2.345   2.214   0.590  0.00  0.00    +0.000 C 
BRANCH  16  17
ATOM     17  C   UNL     1       3.252   3.401   0.772  0.00  0.00    +0.000 A 
ATOM     18  C   UNL     1       2.793   4.681   0.448  0.00  0.00    +0.000 A 
ATOM     19  C   UNL     1       3.620   5.794   0.604  0.00  0.00    +0.000 A 
ATOM     20  C   UNL     1       4.919   5.665   1.110  0.00  0.00    +0.000 A 
ATOM     21  C   UNL     1       5.393   4.375   1.390  0.00  0.00    +0.000 A 
ATOM     22  C   UNL     1       4.572   3.254   1.214  0.00  0.00    +0.000 A 
BRANCH  20  23
ATOM     23  C   UNL     1       5.826   6.870   1.262  0.00  0.00    +0.000 C 
BRANCH  23  24
ATOM     24  C   UNL     1       5.392   7.942   2.287  0.00  0.00    +0.000 C 
ATOM     25  C   UNL     1       4.101   8.669   1.939  0.00  0.00    +0.000 C 
ATOM     26  C   UNL     1       4.232  10.023   2.603  0.00  0.00    +0.000 C 
ATOM     27  C   UNL     1       5.724  10.279   2.660  0.00  0.00    +0.000 C 
ATOM     28  N   UNL     1       6.393   9.025   2.319  0.00  0.00    +0.000 NA
ATOM     29  H   UNL     1       7.126   8.813   2.995  0.00  0.00    +0.000 HD
ENDBRANCH  23  24
ENDBRANCH  20  23
ENDBRANCH  16  17
ENDBRANCH   3  16
TORSDOF 5
