REMARK  Name = 
REMARK  8 active torsions:
REMARK  status: ('A' for Active; 'I' for Inactive)
REMARK    1  A    between atoms: C_1  and  C_2
REMARK    2  A    between atoms: C_2  and  C_3
REMARK    3  A    between atoms: C_7  and  C_8
REMARK    4  A    between atoms: C_8  and  C_9
REMARK    5  A    between atoms: C_9  and  N_10
REMARK    6  A    between atoms: C_14  and  C_15
REMARK    7  A    between atoms: N_24  and  C_25
REMARK    8  A    between atoms: C_25  and  C_26
REMARK                            x       y       z     vdW  Elec       q    Type
REMARK                         _______ _______ _______ _____ _____    ______ ____
ROOT
ATOM      1  C   UNL     1       2.982   0.465   1.465  0.00  0.00    +0.000 A 
ATOM      2  C   UNL     1       2.735   1.729   2.024  0.00  0.00    +0.000 A 
ATOM      3  C   UNL     1       3.061   2.004   3.357  0.00  0.00    +0.000 A 
ATOM      4  C   UNL     1       3.626   1.017   4.167  0.00  0.00    +0.000 A 
ATOM      5  C   UNL     1       3.891  -0.252   3.647  0.00  0.00    +0.000 A 
ATOM      6  C   UNL     1       3.588  -0.490   2.293  0.00  0.00    +0.000 A 
ENDROOT
BRANCH   1   8
ATOM      7  C   UNL     1       0.973   0.193   0.026  0.00  0.00    +0.000 C 
ATOM      8  C   UNL     1       2.520   0.114   0.031  0.00  0.00    +0.000 C 
ATOM      9  C   UNL     1       3.137   1.109  -0.982  0.00  0.00    +0.000 C 
ATOM     10  C   UNL     1       2.820   0.740  -2.431  0.00  0.00    +0.000 C 
ATOM     11  C   UNL     1       3.197  -0.706  -2.753  0.00  0.00    +0.000 C 
ATOM     12  N   UNL     1       2.545  -1.638  -1.824  0.00  0.00    +0.000 NA
ATOM     13  C   UNL     1       2.934  -1.326  -0.432  0.00  0.00    +0.000 C 
BRANCH  12  14
ATOM     14  C   UNL     1       2.873  -3.057  -2.139  0.00  0.00    +0.000 C 
BRANCH  14  15
ATOM     15  C   UNL     1       2.423  -3.655  -3.496  0.00  0.00    +0.000 C 
ATOM     16  F   UNL     1       1.687  -2.804  -4.242  0.00  0.00    +0.000 F 
ATOM     17  F   UNL     1       3.500  -4.014  -4.236  0.00  0.00    +0.000 F 
ATOM     18  F   UNL     1       1.677  -4.771  -3.309  0.00  0.00    +0.000 F 
ENDBRANCH  14  15
ENDBRANCH  12  14
ENDBRANCH   1   8
BRANCH   5  19
ATOM     19  C   UNL     1       4.441  -1.344   4.553  0.00  0.00    +0.000 C 
BRANCH  19  20
ATOM     20  C   UNL     1       4.672  -2.679   3.832  0.00  0.00    +0.000 C 
BRANCH  20  21
ATOM     21  N   UNL     1       5.142  -3.746   4.714  0.00  0.00    +0.000 N 
ATOM     22  C   UNL     1       5.314  -4.954   3.993  0.00  0.00    +0.000 A 
ATOM     23  C   UNL     1       5.736  -6.085   4.684  0.00  0.00    +0.000 A 
ATOM     24  C   UNL     1       5.920  -7.290   3.997  0.00  0.00    +0.000 A 
ATOM     25  C   UNL     1       5.674  -7.338   2.627  0.00  0.00    +0.000 A 
ATOM     26  C   UNL     1       5.251  -6.175   2.009  0.00  0.00    +0.000 A 
ATOM     27  N   UNL     1       5.084  -4.996   2.660  0.00  0.00    +0.000 NA
ATOM     28  H   UNL     1       4.488  -3.926   5.471  0.00  0.00    +0.000 HD
BRANCH  25  29
ATOM     29  C   UNL     1       5.819  -8.561   1.811  0.00  0.00    +0.000 C 
ATOM     30  N   UNL     1       6.665  -9.530   2.272  0.00  0.00    +0.000 N 
ATOM     31  O   UNL     1       5.228  -8.689   0.748  0.00  0.00    +0.000 OA
ATOM     32  H   UNL     1       7.346  -9.363   2.999  0.00  0.00    +0.000 HD
ATOM     33  H   UNL     1       6.824 -10.317   1.653  0.00  0.00    +0.000 HD
ENDBRANCH  25  29
ENDBRANCH  20  21
ENDBRANCH  19  20
ENDBRANCH   5  19
TORSDOF 7
