REMARK  Name = 
REMARK  4 active torsions:
REMARK  status: ('A' for Active; 'I' for Inactive)
REMARK    1  A    between atoms: C_2  and  C_3
REMARK    2  A    between atoms: C_6  and  C_7
REMARK    3  A    between atoms: C_7  and  N_8
REMARK    4  A    between atoms: C_13  and  C_14
REMARK                            x       y       z     vdW  Elec       q    Type
REMARK                         _______ _______ _______ _____ _____    ______ ____
ROOT
ATOM      1  N   UNL     1       4.039   1.232   0.935  0.00  0.00    +0.000 N 
ATOM      2  C   UNL     1       5.248   1.879   1.150  0.00  0.00    +0.000 A 
ATOM      3  C   UNL     1       6.184   2.144   0.166  0.00  0.00    +0.000 A 
ATOM      4  C   UNL     1       7.352   2.824   0.511  0.00  0.00    +0.000 A 
ATOM      5  C   UNL     1       7.550   3.228   1.828  0.00  0.00    +0.000 A 
ATOM      6  C   UNL     1       6.564   2.940   2.761  0.00  0.00    +0.000 A 
ATOM      7  N   UNL     1       5.432   2.276   2.426  0.00  0.00    +0.000 NA
ATOM      8  H   UNL     1       3.592   1.106   1.838  0.00  0.00    +0.000 HD
ENDROOT
BRANCH   6   9
ATOM      9  C   UNL     1       6.689   3.380   4.205  0.00  0.00    +0.000 C 
ATOM     10  C   UNL     1       6.595   2.178   5.156  0.00  0.00    +0.000 C 
ATOM     11  C   UNL     1       6.547   2.635   6.606  0.00  0.00    +0.000 C 
ATOM     12  O   UNL     1       5.480   3.556   6.816  0.00  0.00    +0.000 OA
ATOM     13  C   UNL     1       5.629   4.742   6.038  0.00  0.00    +0.000 C 
ATOM     14  C   UNL     1       5.614   4.421   4.551  0.00  0.00    +0.000 C 
ENDBRANCH   6   9
BRANCH   1  15
ATOM     15  C   UNL     1       3.713   0.333  -0.170  0.00  0.00    +0.000 C 
ATOM     16  C   UNL     1       4.381  -1.021  -0.312  0.00  0.00    +0.000 C 
ATOM     17  C   UNL     1       2.996  -0.953   0.238  0.00  0.00    +0.000 C 
BRANCH  15  21
ATOM     18  C   UNL     1       2.027   2.248  -3.704  0.00  0.00    +0.000 A 
ATOM     19  C   UNL     1       3.245   1.576  -3.796  0.00  0.00    +0.000 A 
ATOM     20  C   UNL     1       3.806   0.983  -2.656  0.00  0.00    +0.000 A 
ATOM     21  C   UNL     1       3.160   1.035  -1.408  0.00  0.00    +0.000 A 
ATOM     22  C   UNL     1       1.952   1.754  -1.338  0.00  0.00    +0.000 A 
ATOM     23  C   UNL     1       1.387   2.352  -2.468  0.00  0.00    +0.000 A 
BRANCH  18  25
ATOM     24  N   UNL     1       0.938   3.264  -5.829  0.00  0.00    +0.000 NA
ATOM     25  C   UNL     1       1.428   2.816  -4.874  0.00  0.00    +0.000 C 
ENDBRANCH  18  25
ENDBRANCH  15  21
ENDBRANCH   1  15
TORSDOF 4
