REMARK  Name = 
REMARK  11 active torsions:
REMARK  status: ('A' for Active; 'I' for Inactive)
REMARK    1  A    between atoms: C_1  and  C_2
REMARK    2  A    between atoms: C_2  and  C_3
REMARK    3  A    between atoms: C_3  and  N_4
REMARK    4  A    between atoms: C_3  and  C_21
REMARK    5  A    between atoms: N_4  and  C_5
REMARK    6  A    between atoms: C_5  and  C_6
REMARK    7  A    between atoms: C_9  and  C_10
REMARK    8  A    between atoms: C_10  and  O_11
REMARK    9  A    between atoms: C_10  and  C_12
REMARK   10  A    between atoms: C_12  and  N_13
REMARK   11  A    between atoms: N_13  and  C_14
REMARK                            x       y       z     vdW  Elec       q    Type
REMARK                         _______ _______ _______ _____ _____    ______ ____
ROOT
ATOM      1  C   UNL     1       3.325  -9.247   0.995  0.00  0.00    +0.000 A 
ATOM      2  C   UNL     1       3.495  -8.958  -0.361  0.00  0.00    +0.000 A 
ATOM      3  C   UNL     1       2.487  -9.283  -1.264  0.00  0.00    +0.000 A 
ATOM      4  C   UNL     1       1.339  -9.904  -0.786  0.00  0.00    +0.000 A 
ATOM      5  N   UNL     1       1.179 -10.256   0.518  0.00  0.00    +0.000 NA
ATOM      6  C   UNL     1       2.153  -9.890   1.374  0.00  0.00    +0.000 A 
ENDROOT
BRANCH   1   7
ATOM      7  C   UNL     1       4.349  -8.826   2.008  0.00  0.00    +0.000 C 
BRANCH   7   8
ATOM      8  N   UNL     1       4.933  -9.965   2.707  0.00  0.00    +0.000 NA
ATOM      9  H   UNL     1       4.202 -10.498   3.169  0.00  0.00    +0.000 HD
BRANCH   8  10
ATOM     10  C   UNL     1       5.958  -9.616   3.704  0.00  0.00    +0.000 C 
BRANCH  10  11
ATOM     11  C   UNL     1       7.156  -9.003   2.984  0.00  0.00    +0.000 A 
ATOM     12  C   UNL     1       7.335  -7.638   2.799  0.00  0.00    +0.000 A 
ATOM     13  S   UNL     1       8.711  -7.238   1.875  0.00  0.00    +0.000 S 
ATOM     14  C   UNL     1       9.137  -8.881   1.703  0.00  0.00    +0.000 A 
ATOM     15  N   UNL     1      10.243  -9.232   0.999  0.00  0.00    +0.000 NA
ATOM     16  C   UNL     1      10.445 -10.506   0.942  0.00  0.00    +0.000 A 
ATOM     17  N   UNL     1       9.649 -11.454   1.533  0.00  0.00    +0.000 N 
ATOM     18  C   UNL     1       8.532 -11.144   2.279  0.00  0.00    +0.000 A 
ATOM     19  O   UNL     1       7.887 -12.013   2.853  0.00  0.00    +0.000 OA
ATOM     20  C   UNL     1       8.247  -9.719   2.352  0.00  0.00    +0.000 A 
ATOM     21  H   UNL     1       9.882 -12.433   1.470  0.00  0.00    +0.000 HD
ENDBRANCH  10  11
BRANCH  10  23
ATOM     22  C   UNL     1       4.226  -9.279   5.619  0.00  0.00    +0.000 C 
ATOM     23  C   UNL     1       5.437  -8.733   4.868  0.00  0.00    +0.000 C 
ENDBRANCH  10  23
ENDBRANCH   8  10
ENDBRANCH   7   8
ENDBRANCH   1   7
BRANCH   4  24
ATOM     24  C   UNL     1       0.187 -10.229  -1.721  0.00  0.00    +0.000 C 
BRANCH  24  25
ATOM     25  O   UNL     1      -0.041 -11.644  -1.708  0.00  0.00    +0.000 OA
ATOM     26  H   UNL     1       0.296 -11.946  -0.841  0.00  0.00    +0.000 HD
ENDBRANCH  24  25
BRANCH  24  27
ATOM     27  C   UNL     1      -1.109  -9.499  -1.289  0.00  0.00    +0.000 C 
BRANCH  27  28
ATOM     28  N   UNL     1      -0.964  -8.038  -1.297  0.00  0.00    +0.000 NA
ATOM     29  H   UNL     1      -0.649  -7.729  -2.216  0.00  0.00    +0.000 HD
BRANCH  28  30
ATOM     30  C   UNL     1      -2.179  -7.311  -0.935  0.00  0.00    +0.000 C 
ATOM     31  C   UNL     1      -2.761  -7.574   0.447  0.00  0.00    +0.000 C 
ATOM     32  C   UNL     1      -3.581  -6.316   0.674  0.00  0.00    +0.000 C 
ATOM     33  N   UNL     1      -2.723  -5.224   0.197  0.00  0.00    +0.000 NA
ATOM     34  C   UNL     1      -1.918  -5.793  -0.901  0.00  0.00    +0.000 C 
ATOM     35  H   UNL     1      -2.076  -4.985   0.951  0.00  0.00    +0.000 HD
ENDBRANCH  28  30
ENDBRANCH  27  28
ENDBRANCH  24  27
ENDBRANCH   4  24
TORSDOF 10
