REMARK  Name = 
REMARK  6 active torsions:
REMARK  status: ('A' for Active; 'I' for Inactive)
REMARK    1  A    between atoms: C_1  and  C_2
REMARK    2  A    between atoms: C_2  and  C_3
REMARK    3  A    between atoms: C_2  and  C_14
REMARK    4  A    between atoms: C_3  and  N_4
REMARK    5  A    between atoms: N_4  and  C_5
REMARK    6  A    between atoms: C_8  and  C_9
REMARK                            x       y       z     vdW  Elec       q    Type
REMARK                         _______ _______ _______ _____ _____    ______ ____
ROOT
ATOM      1  N   UNL     1       2.874   2.311   0.194  0.00  0.00    +0.000 N 
ATOM      2  H   UNL     1       3.000   2.127  -0.797  0.00  0.00    +0.000 HD
ENDROOT
BRANCH   1   3
ATOM      3  C   UNL     1       3.513   3.488   0.596  0.00  0.00    +0.000 A 
ATOM      4  C   UNL     1       4.132   3.654   1.842  0.00  0.00    +0.000 A 
ATOM      5  C   UNL     1       4.710   4.875   2.213  0.00  0.00    +0.000 A 
ATOM      6  C   UNL     1       4.658   5.971   1.349  0.00  0.00    +0.000 A 
ATOM      7  C   UNL     1       3.997   5.842   0.125  0.00  0.00    +0.000 A 
ATOM      8  C   UNL     1       3.430   4.612  -0.239  0.00  0.00    +0.000 A 
BRANCH   6   9
ATOM      9  C   UNL     1       5.279   7.244   1.794  0.00  0.00    +0.000 C 
ATOM     10  N   UNL     1       5.659   8.134   0.827  0.00  0.00    +0.000 N 
ATOM     11  O   UNL     1       5.485   7.483   2.977  0.00  0.00    +0.000 OA
ATOM     12  H   UNL     1       5.718   7.889  -0.150  0.00  0.00    +0.000 HD
ATOM     13  H   UNL     1       6.175   8.945   1.145  0.00  0.00    +0.000 HD
ENDBRANCH   6   9
ENDBRANCH   1   3
BRANCH   1  14
ATOM     14  C   UNL     1       2.984   1.122   1.018  0.00  0.00    +0.000 C 
BRANCH  14  16
ATOM     15  C   UNL     1       0.843   0.118   0.003  0.00  0.00    +0.000 C 
ATOM     16  C   UNL     1       2.303  -0.031   0.333  0.00  0.00    +0.000 C 
BRANCH  16  17
ATOM     17  C   UNL     1       2.843  -1.411   0.682  0.00  0.00    +0.000 C 
ATOM     18  C   UNL     1       2.661  -2.444  -0.443  0.00  0.00    +0.000 C 
ATOM     19  C   UNL     1       3.158  -3.830  -0.028  0.00  0.00    +0.000 C 
ATOM     20  C   UNL     1       2.498  -4.293   1.266  0.00  0.00    +0.000 C 
ATOM     21  C   UNL     1       2.740  -3.294   2.391  0.00  0.00    +0.000 C 
ATOM     22  C   UNL     1       2.243  -1.903   2.011  0.00  0.00    +0.000 C 
ENDBRANCH  16  17
ENDBRANCH  14  16
ENDBRANCH   1  14
TORSDOF 5
