REMARK  Name = 
REMARK  10 active torsions:
REMARK  status: ('A' for Active; 'I' for Inactive)
REMARK    1  A    between atoms: C_1  and  C_2
REMARK    2  A    between atoms: C_2  and  C_3
REMARK    3  A    between atoms: C_2  and  C_4
REMARK    4  A    between atoms: C_2  and  C_5
REMARK    5  A    between atoms: C_5  and  N_6
REMARK    6  A    between atoms: N_6  and  C_7
REMARK    7  A    between atoms: C_7  and  C_8
REMARK    8  A    between atoms: C_11  and  C_12
REMARK    9  A    between atoms: C_12  and  N_13
REMARK   10  A    between atoms: C_18  and  C_19
REMARK                            x       y       z     vdW  Elec       q    Type
REMARK                         _______ _______ _______ _____ _____    ______ ____
ROOT
ATOM      1  C   UNL     1      11.015   2.223   1.869  0.00  0.00    +0.000 C 
ENDROOT
BRANCH   1   2
ATOM      2  N   UNL     1      11.381   1.374   2.990  0.00  0.00    +0.000 N 
ATOM      3  N   UNL     1      11.507   0.043   2.774  0.00  0.00    +0.000 NA
ATOM      4  N   UNL     1      11.067  -0.571   3.865  0.00  0.00    +0.000 NA
ATOM      5  C   UNL     1      10.794   0.389   4.804  0.00  0.00    +0.000 A 
ATOM      6  C   UNL     1      10.209   0.279   6.070  0.00  0.00    +0.000 A 
ATOM      7  C   UNL     1      10.068   1.439   6.854  0.00  0.00    +0.000 A 
ATOM      8  C   UNL     1      10.555   2.670   6.386  0.00  0.00    +0.000 A 
ATOM      9  C   UNL     1      11.100   2.804   5.097  0.00  0.00    +0.000 A 
ATOM     10  C   UNL     1      11.157   1.639   4.322  0.00  0.00    +0.000 A 
BRANCH   7  11
ATOM     11  C   UNL     1       9.346   1.279   8.152  0.00  0.00    +0.000 C 
ATOM     12  N   UNL     1       9.230   2.347   8.984  0.00  0.00    +0.000 N 
ATOM     13  O   UNL     1       8.846   0.204   8.470  0.00  0.00    +0.000 OA
ATOM     14  H   UNL     1       9.613   3.264   8.827  0.00  0.00    +0.000 HD
ATOM     15  H   UNL     1       8.715   2.191   9.843  0.00  0.00    +0.000 HD
ENDBRANCH   7  11
ENDBRANCH   1   2
BRANCH   1  19
ATOM     16  C   UNL     1       6.683   2.395   1.701  0.00  0.00    +0.000 A 
ATOM     17  C   UNL     1       7.420   3.411   2.327  0.00  0.00    +0.000 A 
ATOM     18  C   UNL     1       8.814   3.389   2.335  0.00  0.00    +0.000 A 
ATOM     19  C   UNL     1       9.507   2.312   1.765  0.00  0.00    +0.000 A 
ATOM     20  C   UNL     1       8.769   1.262   1.197  0.00  0.00    +0.000 A 
ATOM     21  C   UNL     1       7.373   1.302   1.164  0.00  0.00    +0.000 A 
BRANCH  16  22
ATOM     22  C   UNL     1       5.172   2.430   1.634  0.00  0.00    +0.000 C 
BRANCH  22  23
ATOM     23  N   UNL     1       4.586   3.774   1.597  0.00  0.00    +0.000 NA
ATOM     24  H   UNL     1       3.574   3.674   1.627  0.00  0.00    +0.000 HD
BRANCH  23  25
ATOM     25  C   UNL     1       4.960   4.545   0.405  0.00  0.00    +0.000 C 
BRANCH  25  27
ATOM     26  C   UNL     1       4.900   6.728   1.712  0.00  0.00    +0.000 C 
ATOM     27  C   UNL     1       4.398   5.993   0.454  0.00  0.00    +0.000 C 
ATOM     28  C   UNL     1       2.860   5.985   0.443  0.00  0.00    +0.000 C 
ATOM     29  C   UNL     1       4.895   6.762  -0.785  0.00  0.00    +0.000 C 
ENDBRANCH  25  27
ENDBRANCH  23  25
ENDBRANCH  22  23
ENDBRANCH  16  22
ENDBRANCH   1  19
TORSDOF 7
