REMARK  Name = 
REMARK  8 active torsions:
REMARK  status: ('A' for Active; 'I' for Inactive)
REMARK    1  A    between atoms: C_1  and  O_2
REMARK    2  A    between atoms: O_2  and  C_3
REMARK    3  A    between atoms: C_5  and  C_6
REMARK    4  A    between atoms: C_6  and  C_7
REMARK    5  A    between atoms: C_10  and  O_11
REMARK    6  A    between atoms: O_11  and  C_12
REMARK    7  A    between atoms: C_12  and  C_13
REMARK    8  A    between atoms: C_13  and  O_14
REMARK                            x       y       z     vdW  Elec       q    Type
REMARK                         _______ _______ _______ _____ _____    ______ ____
ROOT
ATOM      1  C   UNL     1       2.830   4.192  -1.868  0.00  0.00    +0.000 C 
ATOM      2  C   UNL     1       2.734   5.091  -0.634  0.00  0.00    +0.000 C 
ATOM      3  C   UNL     1       1.554   4.988  -1.541  0.00  0.00    +0.000 C 
ENDROOT
BRANCH   1   6
ATOM      4  C   UNL     1       3.501   0.630  -0.830  0.00  0.00    +0.000 A 
ATOM      5  C   UNL     1       3.571   2.002  -0.817  0.00  0.00    +0.000 A 
ATOM      6  C   UNL     1       2.753   2.676  -1.710  0.00  0.00    +0.000 A 
ATOM      7  N   UNL     1       1.898   1.995  -2.511  0.00  0.00    +0.000 NA
ATOM      8  C   UNL     1       1.897   0.662  -2.417  0.00  0.00    +0.000 A 
ATOM      9  N   UNL     1       2.670  -0.072  -1.614  0.00  0.00    +0.000 NA
BRANCH   4  11
ATOM     10  C   UNL     1       4.588  -1.382  -0.393  0.00  0.00    +0.000 C 
ATOM     11  O   UNL     1       4.344  -0.043   0.030  0.00  0.00    +0.000 OA
ENDBRANCH   4  11
ENDBRANCH   1   6
BRANCH   1  12
ATOM     12  C   UNL     1       3.556   4.715  -3.100  0.00  0.00    +0.000 A 
ATOM     13  C   UNL     1       2.951   4.665  -4.365  0.00  0.00    +0.000 A 
ATOM     14  C   UNL     1       3.447   5.428  -5.414  0.00  0.00    +0.000 A 
ATOM     15  C   UNL     1       4.574   6.191  -5.178  0.00  0.00    +0.000 A 
ATOM     16  N   UNL     1       5.284   6.147  -4.034  0.00  0.00    +0.000 NA
ATOM     17  C   UNL     1       4.763   5.406  -3.027  0.00  0.00    +0.000 A 
BRANCH  15  18
ATOM     18  O   UNL     1       4.879   7.133  -6.140  0.00  0.00    +0.000 OA
BRANCH  18  19
ATOM     19  C   UNL     1       6.126   7.795  -5.911  0.00  0.00    +0.000 C 
BRANCH  19  20
ATOM     20  C   UNL     1       6.168   9.039  -6.794  0.00  0.00    +0.000 C 
BRANCH  20  21
ATOM     21  O   UNL     1       5.309  10.057  -6.276  0.00  0.00    +0.000 OA
ATOM     22  H   UNL     1       4.443   9.639  -6.120  0.00  0.00    +0.000 HD
ENDBRANCH  20  21
ENDBRANCH  19  20
ENDBRANCH  18  19
ENDBRANCH  15  18
ENDBRANCH   1  12
TORSDOF 7
