REMARK  Name = 
REMARK  10 active torsions:
REMARK  status: ('A' for Active; 'I' for Inactive)
REMARK    1  A    between atoms: C_1  and  C_2
REMARK    2  A    between atoms: C_2  and  C_3
REMARK    3  A    between atoms: C_2  and  C_4
REMARK    4  A    between atoms: C_4  and  N_5
REMARK    5  A    between atoms: C_6  and  C_8
REMARK    6  A    between atoms: C_11  and  O_12
REMARK    7  A    between atoms: O_12  and  C_13
REMARK    8  A    between atoms: C_13  and  C_14
REMARK    9  A    between atoms: C_14  and  C_15
REMARK   10  A    between atoms: C_19  and  C_20
REMARK                            x       y       z     vdW  Elec       q    Type
REMARK                         _______ _______ _______ _____ _____    ______ ____
ROOT
ATOM      1  C   UNL     1       6.682  -2.739   0.259  0.00  0.00    +0.000 A 
ATOM      2  C   UNL     1       7.380  -1.783   0.982  0.00  0.00    +0.000 A 
ATOM      3  C   UNL     1       8.775  -1.810   0.944  0.00  0.00    +0.000 A 
ATOM      4  C   UNL     1       9.390  -2.775   0.167  0.00  0.00    +0.000 A 
ATOM      5  N   UNL     1       8.681  -3.704  -0.515  0.00  0.00    +0.000 NA
ATOM      6  N   UNL     1       7.312  -3.691  -0.472  0.00  0.00    +0.000 NA
ENDROOT
BRANCH   1   8
ATOM      7  N   UNL     1       4.618  -3.809  -0.463  0.00  0.00    +0.000 N 
ATOM      8  C   UNL     1       5.188  -2.762   0.239  0.00  0.00    +0.000 C 
ATOM      9  O   UNL     1       4.542  -1.896   0.815  0.00  0.00    +0.000 OA
ATOM     10  H   UNL     1       5.243  -4.465  -0.919  0.00  0.00    +0.000 HD
BRANCH   7  11
ATOM     11  C   UNL     1       3.185  -3.967  -0.616  0.00  0.00    +0.000 C 
BRANCH  11  13
ATOM     12  C   UNL     1       3.194  -3.633  -3.135  0.00  0.00    +0.000 C 
ATOM     13  C   UNL     1       2.613  -3.167  -1.798  0.00  0.00    +0.000 C 
ATOM     14  C   UNL     1       1.087  -3.291  -1.833  0.00  0.00    +0.000 C 
ENDBRANCH  11  13
ENDBRANCH   7  11
ENDBRANCH   1   8
BRANCH   4  15
ATOM     15  O   UNL     1      10.773  -2.794   0.119  0.00  0.00    +0.000 OA
BRANCH  15  16
ATOM     16  C   UNL     1      11.249  -3.432  -1.076  0.00  0.00    +0.000 C 
BRANCH  16  17
ATOM     17  C   UNL     1      12.776  -3.525  -1.051  0.00  0.00    +0.000 C 
BRANCH  17  18
ATOM     18  C   UNL     1      13.335  -4.095  -2.331  0.00  0.00    +0.000 A 
ATOM     19  C   UNL     1      13.502  -5.474  -2.508  0.00  0.00    +0.000 A 
ATOM     20  C   UNL     1      14.034  -5.940  -3.706  0.00  0.00    +0.000 A 
ATOM     21  N   UNL     1      14.410  -5.142  -4.729  0.00  0.00    +0.000 NA
ATOM     22  C   UNL     1      14.226  -3.806  -4.543  0.00  0.00    +0.000 A 
ATOM     23  C   UNL     1      13.688  -3.250  -3.387  0.00  0.00    +0.000 A 
BRANCH  22  24
ATOM     24  C   UNL     1      14.669  -2.900  -5.651  0.00  0.00    +0.000 C 
ATOM     25  N   UNL     1      15.246  -3.516  -6.730  0.00  0.00    +0.000 N 
ATOM     26  O   UNL     1      14.543  -1.683  -5.599  0.00  0.00    +0.000 OA
ATOM     27  H   UNL     1      15.364  -4.523  -6.730  0.00  0.00    +0.000 HD
ATOM     28  H   UNL     1      15.607  -2.954  -7.487  0.00  0.00    +0.000 HD
ENDBRANCH  22  24
ENDBRANCH  17  18
ENDBRANCH  16  17
ENDBRANCH  15  16
ENDBRANCH   4  15
TORSDOF 8
