REMARK  Name = 
REMARK  7 active torsions:
REMARK  status: ('A' for Active; 'I' for Inactive)
REMARK    1  A    between atoms: N_1  and  C_2
REMARK    2  A    between atoms: C_2  and  C_3
REMARK    3  A    between atoms: C_7  and  O_8
REMARK    4  A    between atoms: O_8  and  C_9
REMARK    5  A    between atoms: C_9  and  C_10
REMARK    6  A    between atoms: C_10  and  C_11
REMARK    7  A    between atoms: C_15  and  C_16
REMARK                            x       y       z     vdW  Elec       q    Type
REMARK                         _______ _______ _______ _____ _____    ______ ____
ROOT
ATOM      1  C   UNL     1       3.098  -5.916  -1.725  0.00  0.00    +0.000 C 
ENDROOT
BRANCH   1   2
ATOM      2  O   UNL     1       2.402  -4.792  -1.171  0.00  0.00    +0.000 OA
BRANCH   2   7
ATOM      3  C   UNL     1       2.519  -1.148  -1.340  0.00  0.00    +0.000 A 
ATOM      4  C   UNL     1       3.465  -0.937  -2.350  0.00  0.00    +0.000 A 
ATOM      5  C   UNL     1       4.069  -2.016  -2.991  0.00  0.00    +0.000 A 
ATOM      6  C   UNL     1       3.740  -3.322  -2.625  0.00  0.00    +0.000 A 
ATOM      7  C   UNL     1       2.804  -3.557  -1.616  0.00  0.00    +0.000 A 
ATOM      8  C   UNL     1       2.196  -2.467  -0.981  0.00  0.00    +0.000 A 
BRANCH   3   9
ATOM      9  C   UNL     1       1.886   0.024  -0.631  0.00  0.00    +0.000 C 
BRANCH   9  10
ATOM     10  N   UNL     1       1.182   0.903  -1.558  0.00  0.00    +0.000 NA
ATOM     11  H   UNL     1       0.716   1.639  -1.030  0.00  0.00    +0.000 HD
ATOM     12  H   UNL     1       0.448   0.371  -2.022  0.00  0.00    +0.000 HD
ENDBRANCH   9  10
ENDBRANCH   3   9
ENDBRANCH   2   7
ENDBRANCH   1   2
BRANCH   1  13
ATOM     13  C   UNL     1       2.578  -7.215  -1.114  0.00  0.00    +0.000 C 
BRANCH  13  14
ATOM     14  C   UNL     1       2.907  -7.335   0.352  0.00  0.00    +0.000 A 
ATOM     15  C   UNL     1       2.005  -6.915   1.313  0.00  0.00    +0.000 A 
ATOM     16  C   UNL     1       2.391  -7.064   2.627  0.00  0.00    +0.000 A 
ATOM     17  N   UNL     1       3.569  -7.587   3.004  0.00  0.00    +0.000 NA
ATOM     18  C   UNL     1       4.382  -7.964   1.987  0.00  0.00    +0.000 A 
ATOM     19  N   UNL     1       4.105  -7.863   0.671  0.00  0.00    +0.000 NA
BRANCH  18  20
ATOM     20  C   UNL     1       5.716  -8.560   2.380  0.00  0.00    +0.000 C 
ATOM     21  N   UNL     1       5.953  -8.649   3.733  0.00  0.00    +0.000 N 
ATOM     22  O   UNL     1       6.557  -8.950   1.577  0.00  0.00    +0.000 OA
ATOM     23  H   UNL     1       5.257  -8.322   4.393  0.00  0.00    +0.000 HD
ATOM     24  H   UNL     1       6.829  -9.037   4.053  0.00  0.00    +0.000 HD
ENDBRANCH  18  20
ENDBRANCH  13  14
ENDBRANCH   1  13
TORSDOF 7
