REMARK  Name = 
REMARK  6 active torsions:
REMARK  status: ('A' for Active; 'I' for Inactive)
REMARK    1  A    between atoms: C_2  and  C_20
REMARK    2  A    between atoms: N_3  and  C_4
REMARK    3  A    between atoms: C_4  and  C_5
REMARK    4  A    between atoms: C_9  and  C_10
REMARK    5  A    between atoms: C_10  and  N_11
REMARK    6  A    between atoms: C_12  and  C_14
REMARK                            x       y       z     vdW  Elec       q    Type
REMARK                         _______ _______ _______ _____ _____    ______ ____
ROOT
ATOM      1  C   UNL     1       3.136  -1.256   3.414  0.00  0.00    +0.000 A 
ATOM      2  C   UNL     1       3.329  -2.584   3.804  0.00  0.00    +0.000 A 
ATOM      3  C   UNL     1       4.216  -2.846   4.836  0.00  0.00    +0.000 A 
ATOM      4  N   UNL     1       4.916  -1.895   5.492  0.00  0.00    +0.000 NA
ATOM      5  C   UNL     1       4.733  -0.608   5.099  0.00  0.00    +0.000 A 
ATOM      6  C   UNL     1       3.876  -0.260   4.057  0.00  0.00    +0.000 A 
ENDROOT
BRANCH   1   7
ATOM      7  C   UNL     1       2.155  -0.888   2.333  0.00  0.00    +0.000 C 
BRANCH   7  10
ATOM      8  O   UNL     1       3.271   1.350   1.052  0.00  0.00    +0.000 OA
ATOM      9  C   UNL     1       3.332   0.256   0.500  0.00  0.00    +0.000 C 
ATOM     10  N   UNL     1       2.766  -0.875   1.033  0.00  0.00    +0.000 N 
ATOM     11  H   UNL     1       2.978  -1.779   0.624  0.00  0.00    +0.000 HD
BRANCH   9  12
ATOM     12  C   UNL     1       3.984   0.089  -0.800  0.00  0.00    +0.000 A 
ATOM     13  C   UNL     1       4.081   1.163  -1.676  0.00  0.00    +0.000 A 
ATOM     14  S   UNL     1       4.893   0.782  -3.127  0.00  0.00    +0.000 S 
ATOM     15  C   UNL     1       5.162  -0.819  -2.622  0.00  0.00    +0.000 A 
ATOM     16  N   UNL     1       5.855  -1.697  -3.400  0.00  0.00    +0.000 NA
ATOM     17  C   UNL     1       6.024  -2.861  -2.868  0.00  0.00    +0.000 A 
ATOM     18  N   UNL     1       5.549  -3.236  -1.633  0.00  0.00    +0.000 N 
ATOM     19  C   UNL     1       4.764  -2.419  -0.864  0.00  0.00    +0.000 A 
ATOM     20  O   UNL     1       4.208  -2.848   0.140  0.00  0.00    +0.000 OA
ATOM     21  C   UNL     1       4.606  -1.071  -1.380  0.00  0.00    +0.000 A 
ATOM     22  H   UNL     1       5.675  -4.178  -1.299  0.00  0.00    +0.000 HD
ENDBRANCH   9  12
ENDBRANCH   7  10
ENDBRANCH   1   7
BRANCH   5  23
ATOM     23  C   UNL     1       5.468   0.465   5.865  0.00  0.00    +0.000 C 
BRANCH  23  24
ATOM     24  N   UNL     1       6.773   0.765   5.329  0.00  0.00    +0.000 N 
ATOM     25  C   UNL     1       7.001   1.780   4.432  0.00  0.00    +0.000 C 
ATOM     26  O   UNL     1       6.115   2.505   3.991  0.00  0.00    +0.000 OA
ATOM     27  H   UNL     1       7.530   0.095   5.442  0.00  0.00    +0.000 HD
BRANCH  25  28
ATOM     28  C   UNL     1       8.481   1.975   4.071  0.00  0.00    +0.000 C 
ATOM     29  C   UNL     1       8.764   1.759   2.599  0.00  0.00    +0.000 C 
ATOM     30  C   UNL     1      10.261   1.517   2.583  0.00  0.00    +0.000 C 
ATOM     31  C   UNL     1      10.565   0.861   3.922  0.00  0.00    +0.000 C 
ATOM     32  N   UNL     1       9.352   0.972   4.737  0.00  0.00    +0.000 NA
ATOM     33  H   UNL     1       9.581   1.299   5.676  0.00  0.00    +0.000 HD
ENDBRANCH  25  28
ENDBRANCH  23  24
ENDBRANCH   5  23
TORSDOF 6
