REMARK  Name = 
REMARK  11 active torsions:
REMARK  status: ('A' for Active; 'I' for Inactive)
REMARK    1  A    between atoms: C_1  and  O_2
REMARK    2  A    between atoms: O_2  and  C_3
REMARK    3  A    between atoms: C_6  and  C_7
REMARK    4  A    between atoms: C_7  and  C_8
REMARK    5  A    between atoms: C_7  and  C_9
REMARK    6  A    between atoms: C_7  and  C_10
REMARK    7  A    between atoms: C_10  and  N_11
REMARK    8  A    between atoms: C_15  and  C_16
REMARK    9  A    between atoms: C_22  and  O_23
REMARK   10  A    between atoms: O_23  and  C_24
REMARK   11  A    between atoms: N_26  and  C_27
REMARK                            x       y       z     vdW  Elec       q    Type
REMARK                         _______ _______ _______ _____ _____    ______ ____
ROOT
ATOM      1  C   UNL     1       5.133   4.533  -2.411  0.00  0.00    +0.000 C 
ATOM      2  C   UNL     1       6.621   4.539  -1.998  0.00  0.00    +0.000 C 
ATOM      3  C   UNL     1       5.058   4.336  -3.948  0.00  0.00    +0.000 C 
ENDROOT
BRANCH   1   7
ATOM      4  C   UNL     1       3.006   1.187  -0.509  0.00  0.00    +0.000 A 
ATOM      5  C   UNL     1       2.616   2.514  -0.302  0.00  0.00    +0.000 A 
ATOM      6  C   UNL     1       3.282   3.574  -0.913  0.00  0.00    +0.000 A 
ATOM      7  C   UNL     1       4.390   3.368  -1.734  0.00  0.00    +0.000 A 
ATOM      8  C   UNL     1       4.788   2.034  -1.928  0.00  0.00    +0.000 A 
ATOM      9  C   UNL     1       4.121   0.949  -1.322  0.00  0.00    +0.000 A 
BRANCH   4  11
ATOM     10  C   UNL     1       0.995   0.431   0.492  0.00  0.00    +0.000 C 
ATOM     11  O   UNL     1       2.326   0.139   0.056  0.00  0.00    +0.000 OA
ENDBRANCH   4  11
BRANCH   9  12
ATOM     12  O   UNL     1       4.652  -0.260  -1.708  0.00  0.00    +0.000 OA
BRANCH  12  13
ATOM     13  C   UNL     1       4.526  -1.438  -0.884  0.00  0.00    +0.000 C 
ATOM     14  C   UNL     1       5.272  -1.489   0.466  0.00  0.00    +0.000 C 
ATOM     15  N   UNL     1       5.954  -2.739   0.073  0.00  0.00    +0.000 NA
ATOM     16  C   UNL     1       5.335  -3.899   0.711  0.00  0.00    +0.000 C 
ATOM     17  C   UNL     1       5.464  -2.597  -1.308  0.00  0.00    +0.000 C 
ENDBRANCH  12  13
ENDBRANCH   9  12
ENDBRANCH   1   7
BRANCH   1  18
ATOM     18  C   UNL     1       4.526   5.945  -2.113  0.00  0.00    +0.000 C 
BRANCH  18  19
ATOM     19  N   UNL     1       4.541   6.302  -0.678  0.00  0.00    +0.000 N 
ATOM     20  C   UNL     1       3.945   7.538  -0.399  0.00  0.00    +0.000 A 
ATOM     21  C   UNL     1       3.830   7.999   0.922  0.00  0.00    +0.000 A 
ATOM     22  N   UNL     1       3.281   9.199   1.269  0.00  0.00    +0.000 NA
ATOM     23  C   UNL     1       2.826   9.932   0.216  0.00  0.00    +0.000 A 
ATOM     24  C   UNL     1       2.900   9.474  -1.088  0.00  0.00    +0.000 A 
ATOM     25  N   UNL     1       3.450   8.277  -1.413  0.00  0.00    +0.000 NA
ATOM     26  H   UNL     1       5.467   6.257  -0.264  0.00  0.00    +0.000 HD
BRANCH  23  27
ATOM     27  C   UNL     1       2.250  11.272   0.462  0.00  0.00    +0.000 C 
ATOM     28  N   UNL     1       2.207  11.677   1.775  0.00  0.00    +0.000 N 
ATOM     29  O   UNL     1       1.843  11.989  -0.435  0.00  0.00    +0.000 OA
ATOM     30  H   UNL     1       2.556  11.077   2.510  0.00  0.00    +0.000 HD
ATOM     31  H   UNL     1       1.839  12.590   1.995  0.00  0.00    +0.000 HD
ENDBRANCH  23  27
ENDBRANCH  18  19
ENDBRANCH   1  18
TORSDOF 7
