REMARK  Name = 
REMARK  3 active torsions:
REMARK  status: ('A' for Active; 'I' for Inactive)
REMARK    1  A    between atoms: C_2  and  C_4
REMARK    2  A    between atoms: N_8  and  C_9
REMARK    3  A    between atoms: C_9  and  C_10
REMARK                            x       y       z     vdW  Elec       q    Type
REMARK                         _______ _______ _______ _____ _____    ______ ____
ROOT
ATOM      1  C   UNL     1       4.396   0.837  -1.550  0.00  0.00    +0.000 A 
ATOM      2  C   UNL     1       5.460  -0.026  -1.318  0.00  0.00    +0.000 A 
ATOM      3  C   UNL     1       5.761  -0.991  -2.276  0.00  0.00    +0.000 A 
ATOM      4  C   UNL     1       5.025  -1.051  -3.460  0.00  0.00    +0.000 A 
ATOM      5  N   UNL     1       5.444  -1.974  -4.416  0.00  0.00    +0.000 N 
ATOM      6  N   UNL     1       3.982  -0.231  -3.689  0.00  0.00    +0.000 NA
ATOM      7  C   UNL     1       3.673   0.677  -2.724  0.00  0.00    +0.000 A 
ATOM      8  H   UNL     1       5.364  -2.921  -4.058  0.00  0.00    +0.000 HD
ENDROOT
BRANCH   1  10
ATOM      9  N   UNL     1       5.001   2.430   0.178  0.00  0.00    +0.000 N 
ATOM     10  C   UNL     1       4.011   1.901  -0.600  0.00  0.00    +0.000 C 
ATOM     11  O   UNL     1       2.863   2.320  -0.543  0.00  0.00    +0.000 OA
ATOM     12  H   UNL     1       4.749   3.232   0.743  0.00  0.00    +0.000 HD
ATOM     13  H   UNL     1       5.983   2.296  -0.024  0.00  0.00    +0.000 HD
ENDBRANCH   1  10
BRANCH   5  14
ATOM     14  C   UNL     1       4.956  -1.814  -5.778  0.00  0.00    +0.000 C 
BRANCH  14  15
ATOM     15  C   UNL     1       5.865  -2.637  -6.709  0.00  0.00    +0.000 C 
ATOM     16  C   UNL     1       7.342  -2.224  -6.574  0.00  0.00    +0.000 C 
ATOM     17  C   UNL     1       8.209  -2.953  -7.592  0.00  0.00    +0.000 C 
ATOM     18  C   UNL     1       7.632  -2.794  -8.989  0.00  0.00    +0.000 C 
ATOM     19  O   UNL     1       6.284  -3.261  -9.030  0.00  0.00    +0.000 OA
ATOM     20  C   UNL     1       5.423  -2.510  -8.169  0.00  0.00    +0.000 C 
ENDBRANCH  14  15
ENDBRANCH   5  14
TORSDOF 3
