REMARK  Name = 
REMARK  7 active torsions:
REMARK  status: ('A' for Active; 'I' for Inactive)
REMARK    1  A    between atoms: C_1  and  C_2
REMARK    2  A    between atoms: C_2  and  N_3
REMARK    3  A    between atoms: C_2  and  C_12
REMARK    4  A    between atoms: C_4  and  C_6
REMARK    5  A    between atoms: C_15  and  C_16
REMARK    6  A    between atoms: C_16  and  N_17
REMARK    7  A    between atoms: C_18  and  C_20
REMARK                            x       y       z     vdW  Elec       q    Type
REMARK                         _______ _______ _______ _____ _____    ______ ____
ROOT
ATOM      1  C   UNL     1       0.115   1.465  -5.182  0.00  0.00    +0.000 A 
ATOM      2  C   UNL     1       1.072   2.460  -5.434  0.00  0.00    +0.000 A 
ATOM      3  C   UNL     1       0.738   3.814  -5.342  0.00  0.00    +0.000 A 
ATOM      4  C   UNL     1      -0.561   4.201  -4.988  0.00  0.00    +0.000 A 
ATOM      5  C   UNL     1      -1.519   3.209  -4.741  0.00  0.00    +0.000 A 
ATOM      6  C   UNL     1      -1.184   1.857  -4.828  0.00  0.00    +0.000 A 
ENDROOT
BRANCH   1   8
ATOM      7  C   UNL     1       0.321  -0.770  -4.016  0.00  0.00    +0.000 C 
ATOM      8  C   UNL     1       0.493   0.004  -5.325  0.00  0.00    +0.000 C 
BRANCH   8   9
ATOM      9  N   UNL     1      -0.271  -0.609  -6.401  0.00  0.00    +0.000 N 
ATOM     10  C   UNL     1       0.253  -1.648  -7.143  0.00  0.00    +0.000 C 
ATOM     11  O   UNL     1       1.395  -2.063  -6.967  0.00  0.00    +0.000 OA
ATOM     12  H   UNL     1      -1.165  -0.214  -6.656  0.00  0.00    +0.000 HD
BRANCH  10  13
ATOM     13  C   UNL     1      -0.711  -2.223  -8.211  0.00  0.00    +0.000 C 
ATOM     14  C   UNL     1      -0.056  -3.338  -9.037  0.00  0.00    +0.000 C 
ATOM     15  C   UNL     1       0.154  -4.615  -8.224  0.00  0.00    +0.000 C 
ATOM     16  C   UNL     1      -1.135  -5.036  -7.530  0.00  0.00    +0.000 C 
ATOM     17  C   UNL     1      -1.779  -3.881  -6.766  0.00  0.00    +0.000 C 
ATOM     18  N   UNL     1      -1.978  -2.696  -7.605  0.00  0.00    +0.000 NA
ATOM     19  H   UNL     1      -2.394  -1.958  -7.043  0.00  0.00    +0.000 HD
ENDBRANCH  10  13
ENDBRANCH   8   9
ENDBRANCH   1   8
BRANCH   4  20
ATOM     20  C   UNL     1      -0.946   5.655  -4.935  0.00  0.00    +0.000 C 
BRANCH  20  21
ATOM     21  N   UNL     1      -1.421   6.102  -6.220  0.00  0.00    +0.000 N 
ATOM     22  C   UNL     1      -1.769   7.409  -6.437  0.00  0.00    +0.000 C 
ATOM     23  O   UNL     1      -1.680   8.263  -5.558  0.00  0.00    +0.000 OA
ATOM     24  H   UNL     1      -1.711   5.389  -6.880  0.00  0.00    +0.000 HD
BRANCH  22  25
ATOM     25  C   UNL     1      -2.188   7.752  -7.802  0.00  0.00    +0.000 A 
ATOM     26  C   UNL     1      -2.073   9.063  -8.246  0.00  0.00    +0.000 A 
ATOM     27  S   UNL     1      -2.533   9.276  -9.874  0.00  0.00    +0.000 S 
ATOM     28  C   UNL     1      -2.958   7.635 -10.025  0.00  0.00    +0.000 A 
ATOM     29  N   UNL     1      -3.455   7.148 -11.194  0.00  0.00    +0.000 NA
ATOM     30  C   UNL     1      -3.769   5.896 -11.158  0.00  0.00    +0.000 A 
ATOM     31  N   UNL     1      -3.627   5.086 -10.062  0.00  0.00    +0.000 N 
ATOM     32  C   UNL     1      -3.093   5.524  -8.872  0.00  0.00    +0.000 A 
ATOM     33  O   UNL     1      -2.931   4.759  -7.930  0.00  0.00    +0.000 OA
ATOM     34  C   UNL     1      -2.736   6.931  -8.855  0.00  0.00    +0.000 A 
ATOM     35  H   UNL     1      -3.886   4.111 -10.103  0.00  0.00    +0.000 HD
ENDBRANCH  22  25
ENDBRANCH  20  21
ENDBRANCH   4  20
TORSDOF 6
