REMARK  Name = 
REMARK  5 active torsions:
REMARK  status: ('A' for Active; 'I' for Inactive)
REMARK    1  A    between atoms: C_2  and  C_18
REMARK    2  A    between atoms: N_3  and  C_4
REMARK    3  A    between atoms: C_4  and  C_5
REMARK    4  A    between atoms: C_8  and  O_9
REMARK    5  A    between atoms: O_9  and  C_10
REMARK                            x       y       z     vdW  Elec       q    Type
REMARK                         _______ _______ _______ _____ _____    ______ ____
ROOT
ATOM      1  O   UNL     1       1.004   0.215  -0.239  0.00  0.00    +0.000 OA
ATOM      2  C   UNL     1       2.225   0.109  -0.153  0.00  0.00    +0.000 C 
ATOM      3  N   UNL     1       2.921  -0.847  -0.849  0.00  0.00    +0.000 N 
ATOM      4  H   UNL     1       3.859  -1.088  -0.541  0.00  0.00    +0.000 HD
ENDROOT
BRANCH   2   5
ATOM      5  C   UNL     1       3.019   1.043   0.656  0.00  0.00    +0.000 A 
ATOM      6  C   UNL     1       2.494   2.285   0.988  0.00  0.00    +0.000 A 
ATOM      7  S   UNL     1       3.563   3.260   1.893  0.00  0.00    +0.000 S 
ATOM      8  C   UNL     1       4.746   2.035   1.919  0.00  0.00    +0.000 A 
ATOM      9  N   UNL     1       5.929   2.218   2.565  0.00  0.00    +0.000 NA
ATOM     10  C   UNL     1       6.715   1.194   2.535  0.00  0.00    +0.000 A 
ATOM     11  N   UNL     1       6.427   0.007   1.917  0.00  0.00    +0.000 N 
ATOM     12  C   UNL     1       5.266  -0.206   1.214  0.00  0.00    +0.000 A 
ATOM     13  O   UNL     1       5.068  -1.256   0.612  0.00  0.00    +0.000 OA
ATOM     14  C   UNL     1       4.333   0.908   1.231  0.00  0.00    +0.000 A 
ATOM     15  H   UNL     1       7.085  -0.756   1.922  0.00  0.00    +0.000 HD
ENDBRANCH   2   5
BRANCH   3  16
ATOM     16  C   UNL     1       2.217  -1.886  -1.566  0.00  0.00    +0.000 C 
BRANCH  16  17
ATOM     17  C   UNL     1       3.159  -2.772  -2.347  0.00  0.00    +0.000 A 
ATOM     18  C   UNL     1       3.534  -2.433  -3.645  0.00  0.00    +0.000 A 
ATOM     19  C   UNL     1       4.388  -3.283  -4.349  0.00  0.00    +0.000 A 
ATOM     20  C   UNL     1       4.907  -4.412  -3.721  0.00  0.00    +0.000 A 
ATOM     21  C   UNL     1       4.482  -4.673  -2.426  0.00  0.00    +0.000 A 
ATOM     22  N   UNL     1       3.631  -3.883  -1.727  0.00  0.00    +0.000 NA
BRANCH  20  23
ATOM     23  O   UNL     1       5.750  -5.329  -4.296  0.00  0.00    +0.000 OA
BRANCH  23  24
ATOM     24  C   UNL     1       6.669  -4.931  -5.239  0.00  0.00    +0.000 A 
ATOM     25  C   UNL     1       7.314  -3.696  -5.238  0.00  0.00    +0.000 A 
ATOM     26  C   UNL     1       8.202  -3.425  -6.264  0.00  0.00    +0.000 A 
ATOM     27  N   UNL     1       8.520  -4.307  -7.234  0.00  0.00    +0.000 NA
ATOM     28  C   UNL     1       7.929  -5.520  -7.173  0.00  0.00    +0.000 A 
ATOM     29  C   UNL     1       7.006  -5.875  -6.204  0.00  0.00    +0.000 A 
ENDBRANCH  23  24
ENDBRANCH  20  23
ENDBRANCH  16  17
ENDBRANCH   3  16
TORSDOF 5
