REMARK  Name = 
REMARK  12 active torsions:
REMARK  status: ('A' for Active; 'I' for Inactive)
REMARK    1  A    between atoms: C_2  and  C_3
REMARK    2  A    between atoms: C_3  and  N_4
REMARK    3  A    between atoms: C_3  and  C_23
REMARK    4  A    between atoms: N_4  and  C_5
REMARK    5  A    between atoms: C_5  and  C_6
REMARK    6  A    between atoms: C_9  and  C_10
REMARK    7  A    between atoms: C_10  and  O_11
REMARK    8  A    between atoms: C_10  and  C_12
REMARK    9  A    between atoms: C_12  and  N_13
REMARK   10  A    between atoms: C_17  and  C_18
REMARK   11  A    between atoms: C_18  and  O_20
REMARK   12  A    between atoms: C_23  and  C_25
REMARK                            x       y       z     vdW  Elec       q    Type
REMARK                         _______ _______ _______ _____ _____    ______ ____
ROOT
ATOM      1  C   UNL     1       3.703   2.219   1.089  0.00  0.00    +0.000 C 
ENDROOT
BRANCH   1   2
ATOM      2  C   UNL     1       4.077   2.919   2.369  0.00  0.00    +0.000 A 
ATOM      3  C   UNL     1       4.149   4.320   2.420  0.00  0.00    +0.000 A 
ATOM      4  C   UNL     1       4.485   4.969   3.605  0.00  0.00    +0.000 A 
ATOM      5  C   UNL     1       4.735   4.232   4.770  0.00  0.00    +0.000 A 
ATOM      6  C   UNL     1       4.655   2.833   4.718  0.00  0.00    +0.000 A 
ATOM      7  C   UNL     1       4.332   2.183   3.529  0.00  0.00    +0.000 A 
BRANCH   5   8
ATOM      8  C   UNL     1       5.074   4.951   6.055  0.00  0.00    +0.000 C 
BRANCH   8   9
ATOM      9  O   UNL     1       4.085   4.633   7.035  0.00  0.00    +0.000 OA
ATOM     10  H   UNL     1       4.312   3.765   7.406  0.00  0.00    +0.000 HD
ENDBRANCH   8   9
BRANCH   8  11
ATOM     11  C   UNL     1       6.503   4.604   6.558  0.00  0.00    +0.000 C 
BRANCH  11  12
ATOM     12  N   UNL     1       6.882   5.234   7.851  0.00  0.00    +0.000 NA
ATOM     13  C   UNL     1       6.934   6.708   7.761  0.00  0.00    +0.000 C 
ATOM     14  C   UNL     1       8.311   7.025   7.223  0.00  0.00    +0.000 C 
ATOM     15  C   UNL     1       9.194   6.018   7.933  0.00  0.00    +0.000 C 
ATOM     16  C   UNL     1       8.289   4.819   8.212  0.00  0.00    +0.000 C 
BRANCH  16  17
ATOM     17  C   UNL     1       8.331   4.425   9.696  0.00  0.00    +0.000 C 
ATOM     18  O   UNL     1       9.337   4.085  10.297  0.00  0.00    +0.000 OA
BRANCH  17  19
ATOM     19  O   UNL     1       7.103   4.486  10.276  0.00  0.00    +0.000 OA
ATOM     20  H   UNL     1       6.479   4.795   9.575  0.00  0.00    +0.000 HD
ENDBRANCH  17  19
ENDBRANCH  16  17
ENDBRANCH  11  12
ENDBRANCH   8  11
ENDBRANCH   5   8
ENDBRANCH   1   2
BRANCH   1  21
ATOM     21  N   UNL     1       4.684   2.534   0.048  0.00  0.00    +0.000 NA
ATOM     22  H   UNL     1       4.699   3.545  -0.085  0.00  0.00    +0.000 HD
BRANCH  21  23
ATOM     23  C   UNL     1       4.358   1.909  -1.256  0.00  0.00    +0.000 C 
BRANCH  23  25
ATOM     24  N   UNL     1       1.861   2.703  -2.190  0.00  0.00    +0.000 NA
ATOM     25  C   UNL     1       2.994   2.343  -1.766  0.00  0.00    +0.000 C 
ENDBRANCH  23  25
BRANCH  23  26
ATOM     26  C   UNL     1       4.491   0.369  -1.227  0.00  0.00    +0.000 C 
ATOM     27  O   UNL     1       3.508  -0.359  -1.331  0.00  0.00    +0.000 OA
BRANCH  26  28
ATOM     28  C   UNL     1       5.823  -0.239  -1.011  0.00  0.00    +0.000 A 
ATOM     29  C   UNL     1       6.838   0.344  -0.264  0.00  0.00    +0.000 A 
ATOM     30  S   UNL     1       8.171  -0.685   0.005  0.00  0.00    +0.000 S 
ATOM     31  C   UNL     1       7.457  -1.937  -0.897  0.00  0.00    +0.000 A 
ATOM     32  N   UNL     1       8.056  -3.151  -1.017  0.00  0.00    +0.000 NA
ATOM     33  C   UNL     1       7.374  -4.012  -1.699  0.00  0.00    +0.000 A 
ATOM     34  N   UNL     1       6.171  -3.754  -2.307  0.00  0.00    +0.000 N 
ATOM     35  C   UNL     1       5.630  -2.488  -2.365  0.00  0.00    +0.000 A 
ATOM     36  O   UNL     1       4.781  -2.187  -3.196  0.00  0.00    +0.000 OA
ATOM     37  C   UNL     1       6.256  -1.543  -1.459  0.00  0.00    +0.000 A 
ATOM     38  H   UNL     1       5.756  -4.438  -2.921  0.00  0.00    +0.000 HD
ENDBRANCH  26  28
ENDBRANCH  23  26
ENDBRANCH  21  23
ENDBRANCH   1  21
TORSDOF 12
