REMARK  Name = 
REMARK  3 active torsions:
REMARK  status: ('A' for Active; 'I' for Inactive)
REMARK    1  A    between atoms: C_2  and  C_4
REMARK    2  A    between atoms: C_8  and  C_9
REMARK    3  A    between atoms: C_9  and  N_10
REMARK                            x       y       z     vdW  Elec       q    Type
REMARK                         _______ _______ _______ _____ _____    ______ ____
ROOT
ATOM      1  C   UNL     1       2.642   2.786  -0.812  0.00  0.00    +0.000 A 
ATOM      2  C   UNL     1       2.400   2.097   0.381  0.00  0.00    +0.000 A 
ATOM      3  C   UNL     1       3.471   1.688   1.177  0.00  0.00    +0.000 A 
ATOM      4  C   UNL     1       4.785   1.933   0.767  0.00  0.00    +0.000 A 
ATOM      5  C   UNL     1       5.048   2.573  -0.453  0.00  0.00    +0.000 A 
ATOM      6  C   UNL     1       3.962   3.019  -1.224  0.00  0.00    +0.000 A 
ENDROOT
BRANCH   1   8
ATOM      7  N   UNL     1       0.307   3.419  -1.140  0.00  0.00    +0.000 N 
ATOM      8  C   UNL     1       1.536   3.227  -1.707  0.00  0.00    +0.000 C 
ATOM      9  O   UNL     1       1.722   3.437  -2.897  0.00  0.00    +0.000 OA
ATOM     10  H   UNL     1      -0.407   3.812  -1.742  0.00  0.00    +0.000 HD
ATOM     11  H   UNL     1       0.171   3.495  -0.143  0.00  0.00    +0.000 HD
ENDBRANCH   1   8
BRANCH   5  12
ATOM     12  C   UNL     1       6.457   2.691  -0.977  0.00  0.00    +0.000 C 
BRANCH  12  13
ATOM     13  N   UNL     1       7.162   3.888  -0.529  0.00  0.00    +0.000 N 
ATOM     14  C   UNL     1       7.942   3.937   0.603  0.00  0.00    +0.000 A 
ATOM     15  C   UNL     1       8.621   5.133   0.605  0.00  0.00    +0.000 A 
ATOM     16  C   UNL     1       8.251   5.843  -0.568  0.00  0.00    +0.000 A 
ATOM     17  C   UNL     1       8.627   7.078  -1.114  0.00  0.00    +0.000 A 
ATOM     18  N   UNL     1       8.109   7.501  -2.292  0.00  0.00    +0.000 NA
ATOM     19  C   UNL     1       7.220   6.710  -2.929  0.00  0.00    +0.000 A 
ATOM     20  C   UNL     1       6.785   5.473  -2.477  0.00  0.00    +0.000 A 
ATOM     21  C   UNL     1       7.330   5.048  -1.261  0.00  0.00    +0.000 A 
ENDBRANCH  12  13
ENDBRANCH   5  12
TORSDOF 3
