REMARK  Name = 
REMARK  5 active torsions:
REMARK  status: ('A' for Active; 'I' for Inactive)
REMARK    1  A    between atoms: C_1  and  C_2
REMARK    2  A    between atoms: C_2  and  C_3
REMARK    3  A    between atoms: C_7  and  C_8
REMARK    4  A    between atoms: C_9  and  C_10
REMARK    5  A    between atoms: C_13  and  C_14
REMARK                            x       y       z     vdW  Elec       q    Type
REMARK                         _______ _______ _______ _____ _____    ______ ____
ROOT
ATOM      1  C   UNL     1       4.180   2.635  -3.937  0.00  0.00    +0.000 C 
ATOM      2  C   UNL     1       4.991   2.783  -4.998  0.00  0.00    +0.000 C 
ENDROOT
BRANCH   1   7
ATOM      3  C   UNL     1       2.834   0.048  -1.528  0.00  0.00    +0.000 A 
ATOM      4  C   UNL     1       2.576  -1.019  -2.406  0.00  0.00    +0.000 A 
ATOM      5  C   UNL     1       2.840  -0.906  -3.772  0.00  0.00    +0.000 A 
ATOM      6  C   UNL     1       3.379   0.273  -4.287  0.00  0.00    +0.000 A 
ATOM      7  C   UNL     1       3.664   1.349  -3.442  0.00  0.00    +0.000 A 
ATOM      8  C   UNL     1       3.370   1.229  -2.074  0.00  0.00    +0.000 A 
BRANCH   3  10
ATOM      9  C   UNL     1       0.953  -0.179   0.101  0.00  0.00    +0.000 C 
ATOM     10  C   UNL     1       2.476  -0.063  -0.042  0.00  0.00    +0.000 C 
ATOM     11  C   UNL     1       3.197  -1.215   0.670  0.00  0.00    +0.000 C 
ATOM     12  C   UNL     1       4.335  -0.573   1.436  0.00  0.00    +0.000 C 
ATOM     13  C   UNL     1       4.184   0.910   1.206  0.00  0.00    +0.000 C 
ATOM     14  O   UNL     1       2.871   1.121   0.683  0.00  0.00    +0.000 OA
ENDBRANCH   3  10
ENDBRANCH   1   7
BRANCH   2  15
ATOM     15  C   UNL     1       5.481   4.085  -5.480  0.00  0.00    +0.000 A 
ATOM     16  C   UNL     1       5.721   5.164  -4.617  0.00  0.00    +0.000 A 
ATOM     17  C   UNL     1       6.183   6.386  -5.114  0.00  0.00    +0.000 A 
ATOM     18  C   UNL     1       6.440   6.541  -6.478  0.00  0.00    +0.000 A 
ATOM     19  C   UNL     1       6.223   5.466  -7.348  0.00  0.00    +0.000 A 
ATOM     20  C   UNL     1       5.752   4.245  -6.846  0.00  0.00    +0.000 A 
BRANCH  18  21
ATOM     21  C   UNL     1       6.911   7.867  -6.958  0.00  0.00    +0.000 C 
ATOM     22  N   UNL     1       7.628   7.902  -8.121  0.00  0.00    +0.000 N 
ATOM     23  O   UNL     1       6.702   8.892  -6.321  0.00  0.00    +0.000 OA
ATOM     24  H   UNL     1       8.032   7.076  -8.536  0.00  0.00    +0.000 HD
ATOM     25  H   UNL     1       8.031   8.797  -8.366  0.00  0.00    +0.000 HD
ENDBRANCH  18  21
ENDBRANCH   2  15
TORSDOF 4
