REMARK  Name = 
REMARK  5 active torsions:
REMARK  status: ('A' for Active; 'I' for Inactive)
REMARK    1  A    between atoms: C_2  and  C_4
REMARK    2  A    between atoms: C_7  and  O_8
REMARK    3  A    between atoms: O_8  and  C_9
REMARK    4  A    between atoms: C_9  and  C_10
REMARK    5  A    between atoms: C_14  and  N_15
REMARK                            x       y       z     vdW  Elec       q    Type
REMARK                         _______ _______ _______ _____ _____    ______ ____
ROOT
ATOM      1  C   UNL     1       6.258   5.186   0.690  0.00  0.00    +0.000 C 
ENDROOT
BRANCH   1   2
ATOM      2  C   UNL     1       6.775   6.456   1.308  0.00  0.00    +0.000 A 
ATOM      3  C   UNL     1       7.838   6.430   2.198  0.00  0.00    +0.000 A 
ATOM      4  N   UNL     1       8.378   7.552   2.712  0.00  0.00    +0.000 NA
ATOM      5  C   UNL     1       7.800   8.707   2.289  0.00  0.00    +0.000 A 
ATOM      6  C   UNL     1       6.723   8.778   1.400  0.00  0.00    +0.000 A 
ATOM      7  N   UNL     1       6.207   7.627   0.915  0.00  0.00    +0.000 NA
BRANCH   6   8
ATOM      8  N   UNL     1       6.189   9.958   0.948  0.00  0.00    +0.000 N 
ATOM      9  C   UNL     1       4.766  10.031   0.602  0.00  0.00    +0.000 C 
ATOM     10  C   UNL     1       4.588  10.842  -0.690  0.00  0.00    +0.000 C 
ATOM     11  O   UNL     1       5.226  12.129  -0.603  0.00  0.00    +0.000 OA
ATOM     12  C   UNL     1       6.633  11.971  -0.357  0.00  0.00    +0.000 C 
ATOM     13  C   UNL     1       6.895  11.237   0.969  0.00  0.00    +0.000 C 
ENDBRANCH   6   8
ENDBRANCH   1   2
BRANCH   1  14
ATOM     14  O   UNL     1       5.805   4.302   1.718  0.00  0.00    +0.000 OA
BRANCH  14  18
ATOM     15  C   UNL     1       4.299   0.653   0.746  0.00  0.00    +0.000 A 
ATOM     16  N   UNL     1       4.703   1.410  -0.303  0.00  0.00    +0.000 NA
ATOM     17  C   UNL     1       5.197   2.627   0.017  0.00  0.00    +0.000 A 
ATOM     18  C   UNL     1       5.311   3.104   1.308  0.00  0.00    +0.000 A 
ATOM     19  C   UNL     1       4.865   2.237   2.286  0.00  0.00    +0.000 A 
ATOM     20  N   UNL     1       4.358   1.011   2.042  0.00  0.00    +0.000 NA
BRANCH  15  22
ATOM     21  N   UNL     1       3.714  -1.039  -0.921  0.00  0.00    +0.000 N 
ATOM     22  C   UNL     1       3.746  -0.713   0.415  0.00  0.00    +0.000 C 
ATOM     23  O   UNL     1       3.346  -1.513   1.255  0.00  0.00    +0.000 OA
ATOM     24  H   UNL     1       3.387  -1.956  -1.189  0.00  0.00    +0.000 HD
ATOM     25  H   UNL     1       4.083  -0.399  -1.614  0.00  0.00    +0.000 HD
ENDBRANCH  15  22
ENDBRANCH  14  18
ENDBRANCH   1  14
TORSDOF 5
