REMARK  Name = 
REMARK  9 active torsions:
REMARK  status: ('A' for Active; 'I' for Inactive)
REMARK    1  A    between atoms: N_1  and  C_2
REMARK    2  A    between atoms: C_2  and  N_3
REMARK    3  A    between atoms: C_2  and  C_19
REMARK    4  A    between atoms: N_3  and  C_4
REMARK    5  A    between atoms: C_4  and  C_5
REMARK    6  A    between atoms: C_8  and  C_9
REMARK    7  A    between atoms: C_9  and  N_10
REMARK    8  A    between atoms: N_10  and  C_11
REMARK    9  A    between atoms: C_11  and  C_12
REMARK                            x       y       z     vdW  Elec       q    Type
REMARK                         _______ _______ _______ _____ _____    ______ ____
ROOT
ATOM      1  N   UNL     1       3.408  -2.081  -0.720  0.00  0.00    +0.000 NA
ATOM      2  H   UNL     1       3.506  -3.089  -0.868  0.00  0.00    +0.000 HD
ENDROOT
BRANCH   1   3
ATOM      3  C   UNL     1       2.916  -1.933   0.633  0.00  0.00    +0.000 C 
BRANCH   3   4
ATOM      4  C   UNL     1       3.933  -2.559   1.571  0.00  0.00    +0.000 A 
ATOM      5  C   UNL     1       4.690  -1.879   2.522  0.00  0.00    +0.000 A 
ATOM      6  S   UNL     1       5.773  -2.875   3.387  0.00  0.00    +0.000 S 
ATOM      7  C   UNL     1       5.253  -4.261   2.551  0.00  0.00    +0.000 A 
ATOM      8  N   UNL     1       5.798  -5.481   2.800  0.00  0.00    +0.000 NA
ATOM      9  C   UNL     1       5.294  -6.440   2.095  0.00  0.00    +0.000 A 
ATOM     10  N   UNL     1       4.287  -6.292   1.172  0.00  0.00    +0.000 N 
ATOM     11  C   UNL     1       3.722  -5.071   0.870  0.00  0.00    +0.000 A 
ATOM     12  O   UNL     1       2.854  -4.948   0.008  0.00  0.00    +0.000 OA
ATOM     13  C   UNL     1       4.259  -3.966   1.636  0.00  0.00    +0.000 A 
ATOM     14  H   UNL     1       3.945  -7.086   0.657  0.00  0.00    +0.000 HD
ENDBRANCH   3   4
BRANCH   3  15
ATOM     15  N   UNL     1       2.868  -0.515   0.890  0.00  0.00    +0.000 NA
ATOM     16  H   UNL     1       2.115  -0.102   0.353  0.00  0.00    +0.000 HD
ATOM     17  H   UNL     1       3.729  -0.145   0.487  0.00  0.00    +0.000 HD
ENDBRANCH   3  15
ENDBRANCH   1   3
BRANCH   1  18
ATOM     18  C   UNL     1       2.491  -1.602  -1.756  0.00  0.00    +0.000 C 
BRANCH  18  19
ATOM     19  C   UNL     1       3.010  -1.913  -3.135  0.00  0.00    +0.000 A 
ATOM     20  C   UNL     1       3.435  -0.905  -4.006  0.00  0.00    +0.000 A 
ATOM     21  C   UNL     1       3.868  -1.232  -5.288  0.00  0.00    +0.000 A 
ATOM     22  C   UNL     1       3.869  -2.569  -5.673  0.00  0.00    +0.000 A 
ATOM     23  N   UNL     1       3.502  -3.572  -4.829  0.00  0.00    +0.000 NA
ATOM     24  C   UNL     1       3.070  -3.221  -3.599  0.00  0.00    +0.000 A 
BRANCH  22  25
ATOM     25  C   UNL     1       4.291  -2.953  -7.080  0.00  0.00    +0.000 C 
BRANCH  25  26
ATOM     26  N   UNL     1       3.698  -4.215  -7.555  0.00  0.00    +0.000 NA
ATOM     27  H   UNL     1       3.858  -4.892  -6.804  0.00  0.00    +0.000 HD
BRANCH  26  28
ATOM     28  C   UNL     1       2.241  -4.096  -7.738  0.00  0.00    +0.000 C 
BRANCH  28  29
ATOM     29  C   UNL     1       1.645  -5.430  -8.220  0.00  0.00    +0.000 C 
ATOM     30  C   UNL     1       2.176  -5.864  -9.578  0.00  0.00    +0.000 C 
ATOM     31  C   UNL     1       1.158  -6.897 -10.015  0.00  0.00    +0.000 C 
ATOM     32  C   UNL     1      -0.146  -6.448  -9.366  0.00  0.00    +0.000 C 
ATOM     33  N   UNL     1       0.194  -5.356  -8.453  0.00  0.00    +0.000 NA
ATOM     34  H   UNL     1      -0.312  -5.448  -7.573  0.00  0.00    +0.000 HD
ENDBRANCH  28  29
ENDBRANCH  26  28
ENDBRANCH  25  26
ENDBRANCH  22  25
ENDBRANCH  18  19
ENDBRANCH   1  18
TORSDOF 9
