REMARK  Name = 
REMARK  5 active torsions:
REMARK  status: ('A' for Active; 'I' for Inactive)
REMARK    1  A    between atoms: N_1  and  C_2
REMARK    2  A    between atoms: C_2  and  C_3
REMARK    3  A    between atoms: C_6  and  O_7
REMARK    4  A    between atoms: O_7  and  C_8
REMARK    5  A    between atoms: C_8  and  C_9
REMARK                            x       y       z     vdW  Elec       q    Type
REMARK                         _______ _______ _______ _____ _____    ______ ____
ROOT
ATOM      1  C   UNL     1       2.857   0.659  -1.258  0.00  0.00    +0.000 A 
ATOM      2  C   UNL     1       2.552   2.022  -1.378  0.00  0.00    +0.000 A 
ATOM      3  C   UNL     1       2.986   2.762  -2.482  0.00  0.00    +0.000 A 
ATOM      4  C   UNL     1       3.740   2.150  -3.482  0.00  0.00    +0.000 A 
ATOM      5  C   UNL     1       4.038   0.790  -3.376  0.00  0.00    +0.000 A 
ATOM      6  C   UNL     1       3.610   0.050  -2.269  0.00  0.00    +0.000 A 
ENDROOT
BRANCH   1   7
ATOM      7  C   UNL     1       2.380  -0.125  -0.063  0.00  0.00    +0.000 C 
BRANCH   7   8
ATOM      8  N   UNL     1       0.924  -0.126   0.029  0.00  0.00    +0.000 NA
ATOM      9  H   UNL     1       0.637  -0.732   0.794  0.00  0.00    +0.000 HD
ATOM     10  H   UNL     1       0.544  -0.535  -0.824  0.00  0.00    +0.000 HD
ENDBRANCH   7   8
ENDBRANCH   1   7
BRANCH   4  11
ATOM     11  O   UNL     1       4.186   2.760  -4.623  0.00  0.00    +0.000 OA
BRANCH  11  12
ATOM     12  C   UNL     1       4.452   4.163  -4.511  0.00  0.00    +0.000 C 
BRANCH  12  13
ATOM     13  C   UNL     1       4.935   4.706  -5.839  0.00  0.00    +0.000 A 
ATOM     14  N   UNL     1       4.006   5.222  -6.676  0.00  0.00    +0.000 NA
ATOM     15  C   UNL     1       4.454   5.706  -7.849  0.00  0.00    +0.000 A 
ATOM     16  C   UNL     1       5.778   5.705  -8.214  0.00  0.00    +0.000 A 
ATOM     17  C   UNL     1       6.646   5.167  -7.294  0.00  0.00    +0.000 A 
ATOM     18  N   UNL     1       6.259   4.668  -6.105  0.00  0.00    +0.000 NA
ENDBRANCH  12  13
ENDBRANCH  11  12
ENDBRANCH   4  11
TORSDOF 5
