REMARK  Name = 
REMARK  5 active torsions:
REMARK  status: ('A' for Active; 'I' for Inactive)
REMARK    1  A    between atoms: C_2  and  C_4
REMARK    2  A    between atoms: C_7  and  N_8
REMARK    3  A    between atoms: N_8  and  C_9
REMARK    4  A    between atoms: C_9  and  C_10
REMARK    5  A    between atoms: C_14  and  C_15
REMARK                            x       y       z     vdW  Elec       q    Type
REMARK                         _______ _______ _______ _____ _____    ______ ____
ROOT
ATOM      1  N   UNL     1       5.579   4.133   2.414  0.00  0.00    +0.000 N 
ATOM      2  H   UNL     1       5.737   4.581   1.513  0.00  0.00    +0.000 HD
ENDROOT
BRANCH   1   6
ATOM      3  C   UNL     1       4.942  -0.030   2.238  0.00  0.00    +0.000 A 
ATOM      4  C   UNL     1       4.298   0.724   3.219  0.00  0.00    +0.000 A 
ATOM      5  C   UNL     1       4.463   2.112   3.258  0.00  0.00    +0.000 A 
ATOM      6  C   UNL     1       5.259   2.783   2.323  0.00  0.00    +0.000 A 
ATOM      7  C   UNL     1       5.901   2.007   1.346  0.00  0.00    +0.000 A 
ATOM      8  C   UNL     1       5.749   0.616   1.300  0.00  0.00    +0.000 A 
BRANCH   3  10
ATOM      9  N   UNL     1       3.715  -2.068   2.751  0.00  0.00    +0.000 N 
ATOM     10  C   UNL     1       4.836  -1.511   2.203  0.00  0.00    +0.000 C 
ATOM     11  O   UNL     1       5.699  -2.207   1.687  0.00  0.00    +0.000 OA
ATOM     12  H   UNL     1       3.616  -3.070   2.654  0.00  0.00    +0.000 HD
ATOM     13  H   UNL     1       2.886  -1.534   2.970  0.00  0.00    +0.000 HD
ENDBRANCH   3  10
ENDBRANCH   1   6
BRANCH   1  14
ATOM     14  C   UNL     1       5.002   5.002   3.424  0.00  0.00    +0.000 C 
BRANCH  14  15
ATOM     15  C   UNL     1       5.915   6.169   3.671  0.00  0.00    +0.000 A 
ATOM     16  C   UNL     1       5.456   7.474   3.582  0.00  0.00    +0.000 A 
ATOM     17  N   UNL     1       6.220   8.554   3.838  0.00  0.00    +0.000 NA
ATOM     18  C   UNL     1       7.505   8.321   4.206  0.00  0.00    +0.000 A 
ATOM     19  C   UNL     1       8.089   7.061   4.356  0.00  0.00    +0.000 A 
ATOM     20  C   UNL     1       7.246   5.976   4.075  0.00  0.00    +0.000 A 
BRANCH  19  21
ATOM     21  C   UNL     1       9.494   6.882   4.779  0.00  0.00    +0.000 A 
ATOM     22  C   UNL     1      10.279   5.800   4.349  0.00  0.00    +0.000 A 
ATOM     23  C   UNL     1      11.605   5.668   4.762  0.00  0.00    +0.000 A 
ATOM     24  C   UNL     1      12.131   6.632   5.601  0.00  0.00    +0.000 A 
ATOM     25  N   UNL     1      11.426   7.687   6.051  0.00  0.00    +0.000 NA
ATOM     26  C   UNL     1      10.137   7.780   5.638  0.00  0.00    +0.000 A 
ENDBRANCH  19  21
ENDBRANCH  14  15
ENDBRANCH   1  14
TORSDOF 5
