REMARK  Name = 
REMARK  14 active torsions:
REMARK  status: ('A' for Active; 'I' for Inactive)
REMARK    1  A    between atoms: C_1  and  C_2
REMARK    2  A    between atoms: C_2  and  N_3
REMARK    3  A    between atoms: N_3  and  C_4
REMARK    4  A    between atoms: N_3  and  C_8
REMARK    5  A    between atoms: C_4  and  C_5
REMARK    6  A    between atoms: C_5  and  O_6
REMARK    7  A    between atoms: O_6  and  C_7
REMARK    8  A    between atoms: C_11  and  C_12
REMARK    9  A    between atoms: C_12  and  C_13
REMARK   10  A    between atoms: C_12  and  C_14
REMARK   11  A    between atoms: C_12  and  C_15
REMARK   12  A    between atoms: C_15  and  N_16
REMARK   13  A    between atoms: N_16  and  C_17
REMARK   14  A    between atoms: C_20  and  C_21
REMARK                            x       y       z     vdW  Elec       q    Type
REMARK                         _______ _______ _______ _____ _____    ______ ____
ROOT
ATOM      1  C   UNL     1       8.602   2.142   1.378  0.00  0.00    +0.000 C 
ATOM      2  C   UNL     1       8.829   3.597   1.849  0.00  0.00    +0.000 C 
ATOM      3  C   UNL     1       9.167   1.184   2.457  0.00  0.00    +0.000 C 
ENDROOT
BRANCH   1   7
ATOM      4  C   UNL     1       4.263   1.325   1.018  0.00  0.00    +0.000 A 
ATOM      5  C   UNL     1       5.135   1.190  -0.070  0.00  0.00    +0.000 A 
ATOM      6  C   UNL     1       6.512   1.440   0.028  0.00  0.00    +0.000 A 
ATOM      7  C   UNL     1       7.098   1.856   1.227  0.00  0.00    +0.000 A 
ATOM      8  C   UNL     1       6.245   1.965   2.330  0.00  0.00    +0.000 A 
ATOM      9  C   UNL     1       4.875   1.685   2.228  0.00  0.00    +0.000 A 
BRANCH   4  10
ATOM     10  N   UNL     1       2.879   1.148   0.901  0.00  0.00    +0.000 N 
BRANCH  10  12
ATOM     11  C   UNL     1       2.087   1.755  -1.349  0.00  0.00    +0.000 C 
ATOM     12  C   UNL     1       2.298   0.627  -0.343  0.00  0.00    +0.000 C 
ENDBRANCH  10  12
BRANCH  10  13
ATOM     13  C   UNL     1       2.044   1.283   2.115  0.00  0.00    +0.000 C 
BRANCH  13  14
ATOM     14  C   UNL     1       0.540   1.501   1.921  0.00  0.00    +0.000 C 
BRANCH  14  15
ATOM     15  O   UNL     1      -0.150   0.283   1.631  0.00  0.00    +0.000 OA
ATOM     16  C   UNL     1      -1.549   0.512   1.514  0.00  0.00    +0.000 C 
ENDBRANCH  14  15
ENDBRANCH  13  14
ENDBRANCH  10  13
ENDBRANCH   4  10
ENDBRANCH   1   7
BRANCH   1  17
ATOM     17  C   UNL     1       9.435   1.889   0.081  0.00  0.00    +0.000 C 
BRANCH  17  18
ATOM     18  N   UNL     1       9.147   2.858  -0.984  0.00  0.00    +0.000 N 
ATOM     19  H   UNL     1       8.253   3.339  -0.902  0.00  0.00    +0.000 HD
BRANCH  18  20
ATOM     20  C   UNL     1       9.571   2.633  -2.285  0.00  0.00    +0.000 A 
ATOM     21  C   UNL     1      10.532   1.702  -2.663  0.00  0.00    +0.000 A 
ATOM     22  N   UNL     1      11.034   1.559  -3.907  0.00  0.00    +0.000 NA
ATOM     23  C   UNL     1      10.549   2.427  -4.825  0.00  0.00    +0.000 A 
ATOM     24  N   UNL     1       9.622   3.373  -4.600  0.00  0.00    +0.000 NA
ATOM     25  C   UNL     1       9.170   3.452  -3.331  0.00  0.00    +0.000 A 
BRANCH  23  26
ATOM     26  C   UNL     1      11.156   2.338  -6.206  0.00  0.00    +0.000 C 
ATOM     27  N   UNL     1      12.128   1.376  -6.364  0.00  0.00    +0.000 N 
ATOM     28  O   UNL     1      10.842   3.060  -7.149  0.00  0.00    +0.000 OA
ATOM     29  H   UNL     1      12.403   0.801  -5.576  0.00  0.00    +0.000 HD
ATOM     30  H   UNL     1      12.594   1.286  -7.255  0.00  0.00    +0.000 HD
ENDBRANCH  23  26
ENDBRANCH  18  20
ENDBRANCH  17  18
ENDBRANCH   1  17
TORSDOF 10
