REMARK  Name = 
REMARK  6 active torsions:
REMARK  status: ('A' for Active; 'I' for Inactive)
REMARK    1  A    between atoms: C_1  and  C_2
REMARK    2  A    between atoms: C_2  and  N_3
REMARK    3  A    between atoms: C_2  and  C_16
REMARK    4  A    between atoms: C_4  and  C_6
REMARK    5  A    between atoms: C_19  and  O_20
REMARK    6  A    between atoms: O_20  and  C_21
REMARK                            x       y       z     vdW  Elec       q    Type
REMARK                         _______ _______ _______ _____ _____    ______ ____
ROOT
ATOM      1  C   UNL     1       0.785   0.092  -0.070  0.00  0.00    +0.000 C 
ATOM      2  C   UNL     1       2.311   0.025   0.072  0.00  0.00    +0.000 C 
ENDROOT
BRANCH   2   3
ATOM      3  C   UNL     1       2.836  -1.244  -0.582  0.00  0.00    +0.000 A 
ATOM      4  C   UNL     1       3.727  -1.160  -1.659  0.00  0.00    +0.000 A 
ATOM      5  C   UNL     1       4.172  -2.316  -2.307  0.00  0.00    +0.000 A 
ATOM      6  C   UNL     1       3.768  -3.576  -1.860  0.00  0.00    +0.000 A 
ATOM      7  C   UNL     1       2.884  -3.672  -0.786  0.00  0.00    +0.000 A 
ATOM      8  C   UNL     1       2.428  -2.517  -0.145  0.00  0.00    +0.000 A 
BRANCH   6   9
ATOM      9  O   UNL     1       4.115  -4.762  -2.467  0.00  0.00    +0.000 OA
BRANCH   9  10
ATOM     10  C   UNL     1       5.375  -4.869  -3.037  0.00  0.00    +0.000 A 
ATOM     11  N   UNL     1       6.404  -4.178  -2.512  0.00  0.00    +0.000 NA
ATOM     12  C   UNL     1       7.585  -4.305  -3.139  0.00  0.00    +0.000 A 
ATOM     13  C   UNL     1       7.779  -5.115  -4.232  0.00  0.00    +0.000 A 
ATOM     14  C   UNL     1       6.672  -5.811  -4.658  0.00  0.00    +0.000 A 
ATOM     15  N   UNL     1       5.460  -5.711  -4.082  0.00  0.00    +0.000 NA
ENDBRANCH   9  10
ENDBRANCH   6   9
ENDBRANCH   2   3
BRANCH   2  16
ATOM     16  N   UNL     1       2.747   0.083   1.456  0.00  0.00    +0.000 N 
ATOM     17  C   UNL     1       2.491   1.164   2.263  0.00  0.00    +0.000 C 
ATOM     18  O   UNL     1       1.833   2.131   1.892  0.00  0.00    +0.000 OA
ATOM     19  H   UNL     1       3.537  -0.509   1.696  0.00  0.00    +0.000 HD
BRANCH  17  20
ATOM     20  C   UNL     1       2.991   1.078   3.639  0.00  0.00    +0.000 A 
ATOM     21  C   UNL     1       2.312   1.732   4.658  0.00  0.00    +0.000 A 
ATOM     22  S   UNL     1       3.024   1.524   6.193  0.00  0.00    +0.000 S 
ATOM     23  C   UNL     1       4.287   0.589   5.539  0.00  0.00    +0.000 A 
ATOM     24  N   UNL     1       5.289   0.117   6.327  0.00  0.00    +0.000 NA
ATOM     25  C   UNL     1       6.197  -0.551   5.691  0.00  0.00    +0.000 A 
ATOM     26  N   UNL     1       6.182  -0.799   4.342  0.00  0.00    +0.000 N 
ATOM     27  C   UNL     1       5.175  -0.371   3.514  0.00  0.00    +0.000 A 
ATOM     28  O   UNL     1       5.154  -0.658   2.322  0.00  0.00    +0.000 OA
ATOM     29  C   UNL     1       4.147   0.409   4.175  0.00  0.00    +0.000 A 
ATOM     30  H   UNL     1       6.914  -1.345   3.910  0.00  0.00    +0.000 HD
ENDBRANCH  17  20
ENDBRANCH   2  16
TORSDOF 5
