REMARK  Name = 
REMARK  5 active torsions:
REMARK  status: ('A' for Active; 'I' for Inactive)
REMARK    1  A    between atoms: N_1  and  C_2
REMARK    2  A    between atoms: C_2  and  C_3
REMARK    3  A    between atoms: C_3  and  C_4
REMARK    4  A    between atoms: N_8  and  C_9
REMARK    5  A    between atoms: C_9  and  C_10
REMARK                            x       y       z     vdW  Elec       q    Type
REMARK                         _______ _______ _______ _____ _____    ______ ____
ROOT
ATOM      1  C   UNL     1       4.398   1.327   0.481  0.00  0.00    +0.000 A 
ATOM      2  C   UNL     1       5.058   1.962  -0.557  0.00  0.00    +0.000 A 
ATOM      3  C   UNL     1       6.450   1.934  -0.591  0.00  0.00    +0.000 A 
ATOM      4  C   UNL     1       7.164   1.290   0.410  0.00  0.00    +0.000 A 
ATOM      5  N   UNL     1       8.550   1.150   0.371  0.00  0.00    +0.000 N 
ATOM      6  N   UNL     1       6.542   0.688   1.436  0.00  0.00    +0.000 NA
ATOM      7  C   UNL     1       5.181   0.715   1.450  0.00  0.00    +0.000 A 
ATOM      8  H   UNL     1       8.881   0.766   1.250  0.00  0.00    +0.000 HD
ENDROOT
BRANCH   1   9
ATOM      9  C   UNL     1       2.895   1.280   0.519  0.00  0.00    +0.000 C 
BRANCH   9  10
ATOM     10  C   UNL     1       2.340   0.049  -0.205  0.00  0.00    +0.000 C 
BRANCH  10  11
ATOM     11  N   UNL     1       0.880   0.031  -0.155  0.00  0.00    +0.000 NA
ATOM     12  H   UNL     1       0.537  -0.790  -0.653  0.00  0.00    +0.000 HD
ATOM     13  H   UNL     1       0.508   0.838  -0.654  0.00  0.00    +0.000 HD
ENDBRANCH  10  11
ENDBRANCH   9  10
ENDBRANCH   1   9
BRANCH   5  14
ATOM     14  C   UNL     1       9.344   2.177  -0.271  0.00  0.00    +0.000 C 
BRANCH  14  15
ATOM     15  C   UNL     1      10.641   1.618  -0.877  0.00  0.00    +0.000 C 
ATOM     16  C   UNL     1      11.429   2.749  -1.564  0.00  0.00    +0.000 C 
ATOM     17  C   UNL     1      10.725   3.241  -2.829  0.00  0.00    +0.000 C 
ATOM     18  N   UNL     1      10.518   2.152  -3.784  0.00  0.00    +0.000 NA
ATOM     19  C   UNL     1       9.743   1.053  -3.202  0.00  0.00    +0.000 C 
ATOM     20  C   UNL     1      10.373   0.512  -1.914  0.00  0.00    +0.000 C 
ATOM     21  H   UNL     1      11.429   1.793  -4.073  0.00  0.00    +0.000 HD
ENDBRANCH  14  15
ENDBRANCH   5  14
TORSDOF 5
