REMARK  Name = 
REMARK  5 active torsions:
REMARK  status: ('A' for Active; 'I' for Inactive)
REMARK    1  A    between atoms: C_2  and  C_4
REMARK    2  A    between atoms: C_8  and  C_9
REMARK    3  A    between atoms: C_9  and  O_10
REMARK    4  A    between atoms: O_10  and  C_11
REMARK    5  A    between atoms: C_16  and  C_17
REMARK                            x       y       z     vdW  Elec       q    Type
REMARK                         _______ _______ _______ _____ _____    ______ ____
ROOT
ATOM      1  C   UNL     1       1.433  -0.875   6.218  0.00  0.00    +0.000 A 
ATOM      2  C   UNL     1       1.336   0.065   7.230  0.00  0.00    +0.000 A 
ATOM      3  C   UNL     1       0.704  -0.307   8.408  0.00  0.00    +0.000 A 
ATOM      4  C   UNL     1       0.166  -1.583   8.510  0.00  0.00    +0.000 A 
ATOM      5  F   UNL     1      -0.423  -1.935   9.662  0.00  0.00    +0.000 F 
ATOM      6  C   UNL     1       0.257  -2.467   7.429  0.00  0.00    +0.000 A 
ATOM      7  N   UNL     1       0.913  -2.120   6.284  0.00  0.00    +0.000 NA
ENDROOT
BRANCH   6   8
ATOM      8  C   UNL     1      -0.353  -3.815   7.426  0.00  0.00    +0.000 A 
ATOM      9  C   UNL     1       0.222  -4.868   6.685  0.00  0.00    +0.000 A 
ATOM     10  C   UNL     1      -0.356  -6.144   6.646  0.00  0.00    +0.000 A 
ATOM     11  C   UNL     1      -1.529  -6.393   7.350  0.00  0.00    +0.000 A 
ATOM     12  C   UNL     1      -2.110  -5.368   8.083  0.00  0.00    +0.000 A 
ATOM     13  F   UNL     1      -3.245  -5.601   8.754  0.00  0.00    +0.000 F 
ATOM     14  C   UNL     1      -1.540  -4.097   8.124  0.00  0.00    +0.000 A 
ENDBRANCH   6   8
BRANCH   1  15
ATOM     15  O   UNL     1       2.101  -0.471   5.083  0.00  0.00    +0.000 OA
BRANCH  15  16
ATOM     16  C   UNL     1       2.568  -1.563   4.292  0.00  0.00    +0.000 C 
BRANCH  16  21
ATOM     17  C   UNL     1       5.688   0.179   2.970  0.00  0.00    +0.000 A 
ATOM     18  C   UNL     1       5.499  -0.041   1.614  0.00  0.00    +0.000 A 
ATOM     19  N   UNL     1       4.453  -0.738   1.103  0.00  0.00    +0.000 NA
ATOM     20  C   UNL     1       3.542  -1.210   1.986  0.00  0.00    +0.000 A 
ATOM     21  C   UNL     1       3.623  -1.023   3.362  0.00  0.00    +0.000 A 
ATOM     22  C   UNL     1       4.732  -0.320   3.856  0.00  0.00    +0.000 A 
BRANCH  17  24
ATOM     23  N   UNL     1       7.343   0.699   4.672  0.00  0.00    +0.000 N 
ATOM     24  C   UNL     1       6.870   0.947   3.413  0.00  0.00    +0.000 C 
ATOM     25  O   UNL     1       7.426   1.749   2.676  0.00  0.00    +0.000 OA
ATOM     26  H   UNL     1       8.213   1.155   4.921  0.00  0.00    +0.000 HD
ATOM     27  H   UNL     1       7.077  -0.118   5.204  0.00  0.00    +0.000 HD
ENDBRANCH  17  24
ENDBRANCH  16  21
ENDBRANCH  15  16
ENDBRANCH   1  15
TORSDOF 5
