REMARK  Name = 
REMARK  8 active torsions:
REMARK  status: ('A' for Active; 'I' for Inactive)
REMARK    1  A    between atoms: C_1  and  N_2
REMARK    2  A    between atoms: N_2  and  C_3
REMARK    3  A    between atoms: N_2  and  C_4
REMARK    4  A    between atoms: C_4  and  C_5
REMARK    5  A    between atoms: C_5  and  C_6
REMARK    6  A    between atoms: C_6  and  C_7
REMARK    7  A    between atoms: N_9  and  C_10
REMARK    8  A    between atoms: C_10  and  C_11
REMARK                            x       y       z     vdW  Elec       q    Type
REMARK                         _______ _______ _______ _____ _____    ______ ____
ROOT
ATOM      1  C   UNL     1       6.537   2.810  -0.322  0.00  0.00    +0.000 A 
ATOM      2  C   UNL     1       7.321   2.781  -1.458  0.00  0.00    +0.000 A 
ATOM      3  N   UNL     1       8.640   2.811  -1.079  0.00  0.00    +0.000 N 
ATOM      4  C   UNL     1       8.738   2.801   0.300  0.00  0.00    +0.000 A 
ATOM      5  C   UNL     1       9.854   2.806   1.154  0.00  0.00    +0.000 A 
ATOM      6  C   UNL     1       9.635   2.829   2.533  0.00  0.00    +0.000 A 
ATOM      7  C   UNL     1       8.345   2.834   3.051  0.00  0.00    +0.000 A 
ATOM      8  C   UNL     1       7.241   2.815   2.197  0.00  0.00    +0.000 A 
ATOM      9  C   UNL     1       7.432   2.804   0.797  0.00  0.00    +0.000 A 
ENDROOT
BRANCH   1  10
ATOM     10  C   UNL     1       5.040   2.856  -0.276  0.00  0.00    +0.000 C 
BRANCH  10  11
ATOM     11  C   UNL     1       4.519   4.176   0.301  0.00  0.00    +0.000 C 
BRANCH  11  12
ATOM     12  C   UNL     1       2.989   4.185   0.401  0.00  0.00    +0.000 C 
BRANCH  12  14
ATOM     13  C   UNL     1       0.979   5.389   0.951  0.00  0.00    +0.000 C 
ATOM     14  N   UNL     1       2.444   5.438   0.957  0.00  0.00    +0.000 NA
ATOM     15  C   UNL     1       2.919   5.703   2.317  0.00  0.00    +0.000 C 
ENDBRANCH  12  14
ENDBRANCH  11  12
ENDBRANCH  10  11
ENDBRANCH   1  10
BRANCH   3  16
ATOM     16  C   UNL     1       9.758   2.842  -2.016  0.00  0.00    +0.000 C 
BRANCH  16  17
ATOM     17  C   UNL     1      10.116   4.252  -2.389  0.00  0.00    +0.000 A 
ATOM     18  C   UNL     1      11.056   4.992  -1.664  0.00  0.00    +0.000 A 
ATOM     19  C   UNL     1      11.309   6.317  -2.008  0.00  0.00    +0.000 A 
ATOM     20  C   UNL     1      10.618   6.860  -3.078  0.00  0.00    +0.000 A 
ATOM     21  N   UNL     1       9.720   6.175  -3.815  0.00  0.00    +0.000 NA
ATOM     22  C   UNL     1       9.483   4.895  -3.449  0.00  0.00    +0.000 A 
ENDBRANCH  16  17
ENDBRANCH   3  16
TORSDOF 6
