REMARK  Name = 
REMARK  9 active torsions:
REMARK  status: ('A' for Active; 'I' for Inactive)
REMARK    1  A    between atoms: C_1  and  C_2
REMARK    2  A    between atoms: C_2  and  C_3
REMARK    3  A    between atoms: C_2  and  O_4
REMARK    4  A    between atoms: C_2  and  C_5
REMARK    5  A    between atoms: N_12  and  C_13
REMARK    6  A    between atoms: C_13  and  C_14
REMARK    7  A    between atoms: C_17  and  C_18
REMARK    8  A    between atoms: C_18  and  C_19
REMARK    9  A    between atoms: C_19  and  N_20
REMARK                            x       y       z     vdW  Elec       q    Type
REMARK                         _______ _______ _______ _____ _____    ______ ____
ROOT
ATOM      1  C   UNL     1       2.916   1.054  -1.138  0.00  0.00    +0.000 A 
ATOM      2  C   UNL     1       2.597   2.405  -0.992  0.00  0.00    +0.000 A 
ATOM      3  N   UNL     1       2.895   3.419  -1.858  0.00  0.00    +0.000 NA
ATOM      4  C   UNL     1       3.576   3.004  -2.942  0.00  0.00    +0.000 A 
ATOM      5  C   UNL     1       3.975   1.699  -3.224  0.00  0.00    +0.000 A 
ATOM      6  C   UNL     1       4.641   1.725  -4.474  0.00  0.00    +0.000 A 
ATOM      7  C   UNL     1       4.645   3.029  -4.917  0.00  0.00    +0.000 A 
ATOM      8  N   UNL     1       4.021   3.802  -3.966  0.00  0.00    +0.000 N 
ATOM      9  C   UNL     1       3.632   0.696  -2.293  0.00  0.00    +0.000 A 
ENDROOT
BRANCH   1  11
ATOM     10  C   UNL     1       3.731  -0.658   0.526  0.00  0.00    +0.000 C 
ATOM     11  C   UNL     1       2.505   0.022  -0.098  0.00  0.00    +0.000 C 
ATOM     12  C   UNL     1       1.557  -1.026  -0.699  0.00  0.00    +0.000 C 
BRANCH  11  13
ATOM     13  O   UNL     1       1.794   0.663   0.968  0.00  0.00    +0.000 OA
ATOM     14  H   UNL     1       1.546  -0.019   1.615  0.00  0.00    +0.000 HD
ENDBRANCH  11  13
ENDBRANCH   1  11
BRANCH   8  15
ATOM     15  C   UNL     1       3.782   5.230  -4.100  0.00  0.00    +0.000 C 
BRANCH  15  16
ATOM     16  C   UNL     1       4.858   6.084  -3.491  0.00  0.00    +0.000 A 
ATOM     17  C   UNL     1       5.648   6.934  -4.271  0.00  0.00    +0.000 A 
ATOM     18  C   UNL     1       6.475   7.870  -3.653  0.00  0.00    +0.000 A 
ATOM     19  C   UNL     1       6.542   7.897  -2.264  0.00  0.00    +0.000 A 
ATOM     20  N   UNL     1       5.841   7.036  -1.492  0.00  0.00    +0.000 NA
ATOM     21  C   UNL     1       5.017   6.160  -2.113  0.00  0.00    +0.000 A 
BRANCH  19  22
ATOM     22  C   UNL     1       7.364   8.945  -1.558  0.00  0.00    +0.000 C 
BRANCH  22  23
ATOM     23  C   UNL     1       8.449   8.313  -0.687  0.00  0.00    +0.000 C 
BRANCH  23  24
ATOM     24  N   UNL     1       9.264   9.338  -0.028  0.00  0.00    +0.000 NA
ATOM     25  H   UNL     1       9.748   9.897  -0.728  0.00  0.00    +0.000 HD
ATOM     26  H   UNL     1       9.987   8.878   0.524  0.00  0.00    +0.000 HD
ENDBRANCH  23  24
ENDBRANCH  22  23
ENDBRANCH  19  22
ENDBRANCH  15  16
ENDBRANCH   8  15
TORSDOF 7
