REMARK  Name = 
REMARK  7 active torsions:
REMARK  status: ('A' for Active; 'I' for Inactive)
REMARK    1  A    between atoms: C_1  and  O_2
REMARK    2  A    between atoms: O_2  and  C_3
REMARK    3  A    between atoms: C_10  and  C_11
REMARK    4  A    between atoms: N_13  and  C_14
REMARK    5  A    between atoms: C_14  and  C_15
REMARK    6  A    between atoms: C_18  and  C_19
REMARK    7  A    between atoms: C_20  and  C_21
REMARK                            x       y       z     vdW  Elec       q    Type
REMARK                         _______ _______ _______ _____ _____    ______ ____
ROOT
ATOM      1  C   UNL     1       3.323  -3.240   0.786  0.00  0.00    +0.000 C 
ENDROOT
BRANCH   1   2
ATOM      2  C   UNL     1       2.332  -2.930   1.880  0.00  0.00    +0.000 A 
ATOM      3  C   UNL     1       1.522  -3.941   2.412  0.00  0.00    +0.000 A 
ATOM      4  C   UNL     1       0.576  -3.655   3.405  0.00  0.00    +0.000 A 
ATOM      5  C   UNL     1       0.415  -2.352   3.892  0.00  0.00    +0.000 A 
ATOM      6  C   UNL     1       1.212  -1.338   3.344  0.00  0.00    +0.000 A 
ATOM      7  C   UNL     1       2.161  -1.622   2.351  0.00  0.00    +0.000 A 
BRANCH   5   8
ATOM      8  C   UNL     1      -0.617  -1.997   4.884  0.00  0.00    +0.000 C 
ATOM      9  C   UNL     1      -1.069  -2.817   5.848  0.00  0.00    +0.000 C 
BRANCH   9  10
ATOM     10  C   UNL     1      -2.136  -2.485   6.810  0.00  0.00    +0.000 A 
ATOM     11  C   UNL     1      -3.183  -1.602   6.502  0.00  0.00    +0.000 A 
ATOM     12  C   UNL     1      -4.216  -1.372   7.416  0.00  0.00    +0.000 A 
ATOM     13  C   UNL     1      -4.212  -2.033   8.637  0.00  0.00    +0.000 A 
ATOM     14  F   UNL     1      -5.211  -1.824   9.505  0.00  0.00    +0.000 F 
ATOM     15  C   UNL     1      -3.192  -2.915   8.965  0.00  0.00    +0.000 A 
ATOM     16  C   UNL     1      -2.157  -3.142   8.051  0.00  0.00    +0.000 A 
ENDBRANCH   9  10
ENDBRANCH   5   8
ENDBRANCH   1   2
BRANCH   1  19
ATOM     17  C   UNL     1       3.400  -3.386  -1.675  0.00  0.00    +0.000 C 
ATOM     18  O   UNL     1       4.576  -3.744  -1.651  0.00  0.00    +0.000 OA
ATOM     19  N   UNL     1       2.715  -3.128  -0.519  0.00  0.00    +0.000 N 
ATOM     20  H   UNL     1       1.747  -2.841  -0.556  0.00  0.00    +0.000 HD
BRANCH  17  28
ATOM     21  C   UNL     1       0.163  -2.523  -2.465  0.00  0.00    +0.000 A 
ATOM     22  N   UNL     1      -0.992  -2.134  -3.039  0.00  0.00    +0.000 NA
ATOM     23  C   UNL     1      -1.034  -2.056  -4.372  0.00  0.00    +0.000 A 
ATOM     24  N   UNL     1      -0.051  -2.340  -5.222  0.00  0.00    +0.000 NA
ATOM     25  C   UNL     1       1.085  -2.711  -4.608  0.00  0.00    +0.000 A 
ATOM     26  S   UNL     1       2.445  -3.125  -5.535  0.00  0.00    +0.000 S 
ATOM     27  C   UNL     1       3.369  -3.419  -4.139  0.00  0.00    +0.000 A 
ATOM     28  C   UNL     1       2.681  -3.202  -2.950  0.00  0.00    +0.000 A 
ATOM     29  C   UNL     1       1.303  -2.812  -3.237  0.00  0.00    +0.000 A 
BRANCH  21  31
ATOM     30  C   UNL     1      -1.061  -2.830  -0.495  0.00  0.00    +0.000 C 
ATOM     31  O   UNL     1       0.212  -2.590  -1.088  0.00  0.00    +0.000 OA
ENDBRANCH  21  31
ENDBRANCH  17  28
ENDBRANCH   1  19
TORSDOF 6
