REMARK  Name = 
REMARK  7 active torsions:
REMARK  status: ('A' for Active; 'I' for Inactive)
REMARK    1  A    between atoms: C_1  and  C_2
REMARK    2  A    between atoms: C_2  and  N_3
REMARK    3  A    between atoms: C_2  and  C_16
REMARK    4  A    between atoms: C_4  and  C_6
REMARK    5  A    between atoms: C_19  and  C_20
REMARK    6  A    between atoms: C_20  and  N_21
REMARK    7  A    between atoms: C_22  and  C_24
REMARK                            x       y       z     vdW  Elec       q    Type
REMARK                         _______ _______ _______ _____ _____    ______ ____
ROOT
ATOM      1  C   UNL     1       2.465  -0.961   1.361  0.00  0.00    +0.000 C 
ATOM      2  C   UNL     1       2.520  -0.143   0.063  0.00  0.00    +0.000 C 
ENDROOT
BRANCH   2   3
ATOM      3  C   UNL     1       3.005  -1.010  -1.096  0.00  0.00    +0.000 A 
ATOM      4  C   UNL     1       3.827  -0.472  -2.100  0.00  0.00    +0.000 A 
ATOM      5  C   UNL     1       4.271  -1.271  -3.166  0.00  0.00    +0.000 A 
ATOM      6  C   UNL     1       3.883  -2.615  -3.262  0.00  0.00    +0.000 A 
ATOM      7  C   UNL     1       3.067  -3.151  -2.263  0.00  0.00    +0.000 A 
ATOM      8  C   UNL     1       2.618  -2.353  -1.212  0.00  0.00    +0.000 A 
BRANCH   6   9
ATOM      9  C   UNL     1       4.294  -3.478  -4.425  0.00  0.00    +0.000 C 
BRANCH   9  10
ATOM     10  N   UNL     1       5.534  -4.186  -4.192  0.00  0.00    +0.000 N 
ATOM     11  C   UNL     1       5.985  -5.096  -5.123  0.00  0.00    +0.000 C 
ATOM     12  O   UNL     1       5.353  -5.336  -6.152  0.00  0.00    +0.000 OA
ATOM     13  H   UNL     1       6.126  -3.885  -3.431  0.00  0.00    +0.000 HD
BRANCH  11  14
ATOM     14  C   UNL     1       7.267  -5.845  -4.748  0.00  0.00    +0.000 C 
ATOM     15  C   UNL     1       8.442  -4.905  -4.457  0.00  0.00    +0.000 C 
ATOM     16  C   UNL     1       9.746  -5.678  -4.294  0.00  0.00    +0.000 C 
ATOM     17  O   UNL     1       9.999  -6.499  -5.430  0.00  0.00    +0.000 OA
ATOM     18  C   UNL     1       8.990  -7.491  -5.605  0.00  0.00    +0.000 C 
ATOM     19  C   UNL     1       7.643  -6.836  -5.862  0.00  0.00    +0.000 C 
ENDBRANCH  11  14
ENDBRANCH   9  10
ENDBRANCH   6   9
ENDBRANCH   2   3
BRANCH   2  20
ATOM     20  N   UNL     1       1.235   0.448  -0.281  0.00  0.00    +0.000 N 
ATOM     21  C   UNL     1       0.574   1.370   0.497  0.00  0.00    +0.000 C 
ATOM     22  O   UNL     1       1.003   1.721   1.591  0.00  0.00    +0.000 OA
ATOM     23  H   UNL     1       0.933   0.310  -1.240  0.00  0.00    +0.000 HD
BRANCH  21  24
ATOM     24  C   UNL     1      -0.696   1.910  -0.035  0.00  0.00    +0.000 A 
ATOM     25  C   UNL     1      -1.440   2.789   0.745  0.00  0.00    +0.000 A 
ATOM     26  S   UNL     1      -2.910   3.271   0.031  0.00  0.00    +0.000 S 
ATOM     27  C   UNL     1      -2.617   2.320  -1.348  0.00  0.00    +0.000 A 
ATOM     28  N   UNL     1      -3.537   2.245  -2.351  0.00  0.00    +0.000 NA
ATOM     29  C   UNL     1      -3.197   1.467  -3.326  0.00  0.00    +0.000 A 
ATOM     30  N   UNL     1      -2.013   0.786  -3.399  0.00  0.00    +0.000 N 
ATOM     31  C   UNL     1      -1.032   0.886  -2.444  0.00  0.00    +0.000 A 
ATOM     32  O   UNL     1       0.060   0.347  -2.601  0.00  0.00    +0.000 OA
ATOM     33  C   UNL     1      -1.390   1.682  -1.285  0.00  0.00    +0.000 A 
ATOM     34  H   UNL     1      -1.787   0.227  -4.212  0.00  0.00    +0.000 HD
ENDBRANCH  21  24
ENDBRANCH   2  20
TORSDOF 6
