REMARK  Name = 
REMARK  9 active torsions:
REMARK  status: ('A' for Active; 'I' for Inactive)
REMARK    1  A    between atoms: C_1  and  C_2
REMARK    2  A    between atoms: C_2  and  O_3
REMARK    3  A    between atoms: O_3  and  C_4
REMARK    4  A    between atoms: C_8  and  C_9
REMARK    5  A    between atoms: C_9  and  C_10
REMARK    6  A    between atoms: C_10  and  N_11
REMARK    7  A    between atoms: N_11  and  C_12
REMARK    8  A    between atoms: C_15  and  C_16
REMARK    9  A    between atoms: C_23  and  O_24
REMARK                            x       y       z     vdW  Elec       q    Type
REMARK                         _______ _______ _______ _____ _____    ______ ____
ROOT
ATOM      1  C   UNL     1       5.969   1.713  -4.566  0.00  0.00    +0.000 C 
ENDROOT
BRANCH   1   6
ATOM      2  C   UNL     1       3.978  -0.210  -1.877  0.00  0.00    +0.000 A 
ATOM      3  C   UNL     1       4.835  -1.278  -1.643  0.00  0.00    +0.000 A 
ATOM      4  C   UNL     1       6.073  -1.334  -2.287  0.00  0.00    +0.000 A 
ATOM      5  C   UNL     1       6.441  -0.343  -3.199  0.00  0.00    +0.000 A 
ATOM      6  C   UNL     1       5.567   0.709  -3.498  0.00  0.00    +0.000 A 
ATOM      7  C   UNL     1       4.344   0.767  -2.806  0.00  0.00    +0.000 A 
BRANCH   2   8
ATOM      8  O   UNL     1       2.760   0.004  -1.275  0.00  0.00    +0.000 OA
BRANCH   8  10
ATOM      9  C   UNL     1       1.738  -2.102  -0.567  0.00  0.00    +0.000 C 
ATOM     10  C   UNL     1       2.346  -0.773  -0.121  0.00  0.00    +0.000 C 
ATOM     11  C   UNL     1       3.304  -0.792   1.108  0.00  0.00    +0.000 C 
ATOM     12  C   UNL     1       2.458   0.306   1.769  0.00  0.00    +0.000 C 
ATOM     13  C   UNL     1       1.325  -0.014   0.784  0.00  0.00    +0.000 C 
BRANCH  12  14
ATOM     14  O   UNL     1       2.983   1.647   1.719  0.00  0.00    +0.000 OA
ATOM     15  H   UNL     1       3.024   1.878   0.774  0.00  0.00    +0.000 HD
ENDBRANCH  12  14
ENDBRANCH   8  10
ENDBRANCH   2   8
ENDBRANCH   1   6
BRANCH   1  16
ATOM     16  C   UNL     1       4.916   2.792  -4.828  0.00  0.00    +0.000 C 
BRANCH  16  17
ATOM     17  N   UNL     1       5.270   3.693  -5.929  0.00  0.00    +0.000 N 
ATOM     18  H   UNL     1       5.530   3.185  -6.774  0.00  0.00    +0.000 HD
BRANCH  17  19
ATOM     19  C   UNL     1       4.311   4.691  -6.209  0.00  0.00    +0.000 A 
ATOM     20  C   UNL     1       3.503   5.270  -5.222  0.00  0.00    +0.000 A 
ATOM     21  C   UNL     1       2.609   6.292  -5.534  0.00  0.00    +0.000 A 
ATOM     22  C   UNL     1       2.567   6.745  -6.842  0.00  0.00    +0.000 A 
ATOM     23  N   UNL     1       3.357   6.255  -7.837  0.00  0.00    +0.000 NA
ATOM     24  C   UNL     1       4.213   5.261  -7.483  0.00  0.00    +0.000 A 
BRANCH  22  25
ATOM     25  C   UNL     1       1.621   7.846  -7.202  0.00  0.00    +0.000 C 
ATOM     26  N   UNL     1       1.652   8.243  -8.508  0.00  0.00    +0.000 N 
ATOM     27  O   UNL     1       0.865   8.362  -6.388  0.00  0.00    +0.000 OA
ATOM     28  H   UNL     1       2.307   7.806  -9.149  0.00  0.00    +0.000 HD
ATOM     29  H   UNL     1       1.056   8.999  -8.815  0.00  0.00    +0.000 HD
ENDBRANCH  22  25
ENDBRANCH  17  19
ENDBRANCH  16  17
ENDBRANCH   1  16
TORSDOF 8
