REMARK  Name = 
REMARK  7 active torsions:
REMARK  status: ('A' for Active; 'I' for Inactive)
REMARK    1  A    between atoms: C_1  and  C_2
REMARK    2  A    between atoms: C_2  and  N_3
REMARK    3  A    between atoms: C_2  and  C_12
REMARK    4  A    between atoms: C_4  and  C_6
REMARK    5  A    between atoms: C_15  and  C_16
REMARK    6  A    between atoms: C_16  and  N_17
REMARK    7  A    between atoms: C_18  and  C_20
REMARK                            x       y       z     vdW  Elec       q    Type
REMARK                         _______ _______ _______ _____ _____    ______ ____
ROOT
ATOM      1  C   UNL     1       2.875  -0.706   1.124  0.00  0.00    +0.000 A 
ATOM      2  C   UNL     1       3.250   0.014   2.271  0.00  0.00    +0.000 A 
ATOM      3  C   UNL     1       3.551  -0.640   3.474  0.00  0.00    +0.000 A 
ATOM      4  C   UNL     1       3.499  -2.040   3.557  0.00  0.00    +0.000 A 
ATOM      5  C   UNL     1       3.133  -2.760   2.415  0.00  0.00    +0.000 A 
ATOM      6  C   UNL     1       2.844  -2.105   1.216  0.00  0.00    +0.000 A 
ENDROOT
BRANCH   1   8
ATOM      7  C   UNL     1       1.516  -0.732  -1.040  0.00  0.00    +0.000 C 
ATOM      8  C   UNL     1       2.543   0.019  -0.174  0.00  0.00    +0.000 C 
BRANCH   8   9
ATOM      9  N   UNL     1       3.759   0.253  -0.939  0.00  0.00    +0.000 N 
ATOM     10  C   UNL     1       3.880   1.268  -1.860  0.00  0.00    +0.000 C 
ATOM     11  O   UNL     1       3.002   2.108  -2.049  0.00  0.00    +0.000 OA
ATOM     12  H   UNL     1       4.603  -0.257  -0.701  0.00  0.00    +0.000 HD
BRANCH  10  13
ATOM     13  C   UNL     1       5.205   1.281  -2.658  0.00  0.00    +0.000 C 
ATOM     14  C   UNL     1       5.340   0.053  -3.567  0.00  0.00    +0.000 C 
ATOM     15  C   UNL     1       6.660   0.084  -4.341  0.00  0.00    +0.000 C 
ATOM     16  C   UNL     1       7.840   0.294  -3.397  0.00  0.00    +0.000 C 
ATOM     17  C   UNL     1       7.607   1.490  -2.475  0.00  0.00    +0.000 C 
ATOM     18  N   UNL     1       6.354   1.348  -1.723  0.00  0.00    +0.000 NA
ATOM     19  H   UNL     1       6.235   2.172  -1.131  0.00  0.00    +0.000 HD
ENDBRANCH  10  13
ENDBRANCH   8   9
ENDBRANCH   1   8
BRANCH   4  20
ATOM     20  C   UNL     1       3.796  -2.780   4.839  0.00  0.00    +0.000 C 
BRANCH  20  21
ATOM     21  N   UNL     1       2.605  -2.973   5.627  0.00  0.00    +0.000 N 
ATOM     22  C   UNL     1       2.650  -3.598   6.855  0.00  0.00    +0.000 C 
ATOM     23  O   UNL     1       3.700  -3.991   7.353  0.00  0.00    +0.000 OA
ATOM     24  H   UNL     1       1.720  -2.946   5.134  0.00  0.00    +0.000 HD
BRANCH  22  25
ATOM     25  C   UNL     1       1.370  -3.719   7.568  0.00  0.00    +0.000 A 
ATOM     26  C   UNL     1       1.350  -3.779   8.955  0.00  0.00    +0.000 A 
ATOM     27  S   UNL     1      -0.219  -3.916   9.613  0.00  0.00    +0.000 S 
ATOM     28  C   UNL     1      -0.925  -3.940   8.065  0.00  0.00    +0.000 A 
ATOM     29  N   UNL     1      -2.269  -4.082   7.909  0.00  0.00    +0.000 NA
ATOM     30  C   UNL     1      -2.663  -4.101   6.681  0.00  0.00    +0.000 A 
ATOM     31  N   UNL     1      -1.838  -3.978   5.593  0.00  0.00    +0.000 N 
ATOM     32  C   UNL     1      -0.482  -3.793   5.701  0.00  0.00    +0.000 A 
ATOM     33  O   UNL     1       0.218  -3.611   4.712  0.00  0.00    +0.000 OA
ATOM     34  C   UNL     1       0.020  -3.802   7.064  0.00  0.00    +0.000 A 
ATOM     35  H   UNL     1      -2.218  -3.969   4.657  0.00  0.00    +0.000 HD
ENDBRANCH  22  25
ENDBRANCH  20  21
ENDBRANCH   4  20
TORSDOF 6
