REMARK  Name = 
REMARK  6 active torsions:
REMARK  status: ('A' for Active; 'I' for Inactive)
REMARK    1  A    between atoms: C_1  and  N_2
REMARK    2  A    between atoms: C_8  and  C_9
REMARK    3  A    between atoms: N_11  and  C_12
REMARK    4  A    between atoms: C_12  and  C_13
REMARK    5  A    between atoms: C_16  and  C_17
REMARK    6  A    between atoms: C_17  and  C_18
REMARK                            x       y       z     vdW  Elec       q    Type
REMARK                         _______ _______ _______ _____ _____    ______ ____
ROOT
ATOM      1  C   UNL     1       5.143  -3.731  -0.031  0.00  0.00    +0.000 C 
ATOM      2  O   UNL     1       3.988  -4.133  -0.147  0.00  0.00    +0.000 OA
ATOM      3  N   UNL     1       6.219  -4.581  -0.020  0.00  0.00    +0.000 N 
ATOM      4  H   UNL     1       7.113  -4.226   0.300  0.00  0.00    +0.000 HD
ENDROOT
BRANCH   1  12
ATOM      5  C   UNL     1       9.788  -1.681   2.556  0.00  0.00    +0.000 C 
ATOM      6  N   UNL     1       8.631  -1.211   1.827  0.00  0.00    +0.000 N 
ATOM      7  C   UNL     1       8.454   0.133   1.569  0.00  0.00    +0.000 A 
ATOM      8  N   UNL     1       7.456   0.649   0.927  0.00  0.00    +0.000 NA
ATOM      9  C   UNL     1       6.536  -0.255   0.493  0.00  0.00    +0.000 A 
ATOM     10  S   UNL     1       5.143   0.244  -0.344  0.00  0.00    +0.000 S 
ATOM     11  C   UNL     1       4.584  -1.362  -0.486  0.00  0.00    +0.000 A 
ATOM     12  C   UNL     1       5.455  -2.299   0.052  0.00  0.00    +0.000 A 
ATOM     13  C   UNL     1       6.583  -1.624   0.654  0.00  0.00    +0.000 A 
ATOM     14  C   UNL     1       7.714  -2.161   1.391  0.00  0.00    +0.000 A 
ATOM     15  O   UNL     1       7.858  -3.362   1.595  0.00  0.00    +0.000 OA
ENDBRANCH   1  12
BRANCH   3  16
ATOM     16  C   UNL     1       6.051  -6.010   0.045  0.00  0.00    +0.000 C 
BRANCH  16  17
ATOM     17  C   UNL     1       7.387  -6.706   0.119  0.00  0.00    +0.000 A 
ATOM     18  C   UNL     1       7.982  -6.967   1.360  0.00  0.00    +0.000 A 
ATOM     19  C   UNL     1       9.221  -7.609   1.438  0.00  0.00    +0.000 A 
ATOM     20  C   UNL     1       9.895  -8.002   0.273  0.00  0.00    +0.000 A 
ATOM     21  C   UNL     1       9.314  -7.714  -0.969  0.00  0.00    +0.000 A 
ATOM     22  C   UNL     1       8.079  -7.061  -1.046  0.00  0.00    +0.000 A 
BRANCH  20  23
ATOM     23  C   UNL     1      11.224  -8.720   0.352  0.00  0.00    +0.000 C 
BRANCH  23  24
ATOM     24  C   UNL     1      11.147 -10.228   0.374  0.00  0.00    +0.000 A 
ATOM     25  C   UNL     1      10.501 -10.906   1.406  0.00  0.00    +0.000 A 
ATOM     26  N   UNL     1      10.491 -12.258   1.514  0.00  0.00    +0.000 NA
ATOM     27  C   UNL     1      11.153 -12.918   0.540  0.00  0.00    +0.000 A 
ATOM     28  C   UNL     1      11.792 -12.260  -0.495  0.00  0.00    +0.000 A 
ATOM     29  N   UNL     1      11.809 -10.910  -0.600  0.00  0.00    +0.000 NA
ENDBRANCH  23  24
ENDBRANCH  20  23
ENDBRANCH  16  17
ENDBRANCH   3  16
TORSDOF 5
