REMARK  Name = 
REMARK  10 active torsions:
REMARK  status: ('A' for Active; 'I' for Inactive)
REMARK    1  A    between atoms: N_1  and  C_2
REMARK    2  A    between atoms: C_2  and  C_3
REMARK    3  A    between atoms: C_2  and  C_32
REMARK    4  A    between atoms: C_3  and  N_4
REMARK    5  A    between atoms: C_7  and  C_8
REMARK    6  A    between atoms: C_8  and  O_9
REMARK    7  A    between atoms: O_9  and  C_10
REMARK    8  A    between atoms: C_13  and  C_14
REMARK    9  A    between atoms: C_14  and  N_15
REMARK   10  A    between atoms: C_16  and  C_18
REMARK                            x       y       z     vdW  Elec       q    Type
REMARK                         _______ _______ _______ _____ _____    ______ ____
ROOT
ATOM      1  C   UNL     1      -1.102   5.859  -0.744  0.00  0.00    +0.000 A 
ATOM      2  C   UNL     1      -0.154   6.785  -1.163  0.00  0.00    +0.000 A 
ATOM      3  C   UNL     1      -0.141   7.200  -2.494  0.00  0.00    +0.000 A 
ATOM      4  C   UNL     1      -1.083   6.666  -3.371  0.00  0.00    +0.000 A 
ATOM      5  N   UNL     1      -2.050   5.806  -2.971  0.00  0.00    +0.000 NA
ATOM      6  C   UNL     1      -2.047   5.439  -1.671  0.00  0.00    +0.000 A 
ENDROOT
BRANCH   1   7
ATOM      7  O   UNL     1      -1.028   5.429   0.551  0.00  0.00    +0.000 OA
BRANCH   7   8
ATOM      8  C   UNL     1      -1.594   4.130   0.764  0.00  0.00    +0.000 C 
BRANCH   8  12
ATOM      9  N   UNL     1       0.456   1.052   0.975  0.00  0.00    +0.000 NA
ATOM     10  C   UNL     1       0.993   2.387   0.691  0.00  0.00    +0.000 C 
ATOM     11  C   UNL     1       0.598   3.369   1.790  0.00  0.00    +0.000 C 
ATOM     12  C   UNL     1      -0.923   3.448   1.962  0.00  0.00    +0.000 C 
ATOM     13  C   UNL     1      -1.482   2.031   2.161  0.00  0.00    +0.000 C 
ATOM     14  C   UNL     1      -1.006   1.049   1.081  0.00  0.00    +0.000 C 
BRANCH   9  15
ATOM     15  C   UNL     1       0.933   0.044   0.001  0.00  0.00    +0.000 C 
BRANCH  15  16
ATOM     16  C   UNL     1       2.483  -0.136  -0.052  0.00  0.00    +0.000 C 
BRANCH  16  17
ATOM     17  C   UNL     1       2.839  -1.202  -1.081  0.00  0.00    +0.000 A 
ATOM     18  C   UNL     1       3.079  -0.829  -2.403  0.00  0.00    +0.000 A 
ATOM     19  C   UNL     1       3.400  -1.813  -3.329  0.00  0.00    +0.000 A 
ATOM     20  C   UNL     1       3.468  -3.138  -2.919  0.00  0.00    +0.000 A 
ATOM     21  C   UNL     1       3.210  -3.427  -1.590  0.00  0.00    +0.000 A 
ATOM     22  N   UNL     1       2.893  -2.496  -0.664  0.00  0.00    +0.000 NA
ENDBRANCH  16  17
BRANCH  16  23
ATOM     23  N   UNL     1       3.055  -0.437   1.280  0.00  0.00    +0.000 NA
ATOM     24  H   UNL     1       4.042  -0.657   1.155  0.00  0.00    +0.000 HD
ATOM     25  H   UNL     1       2.633  -1.318   1.578  0.00  0.00    +0.000 HD
ENDBRANCH  16  23
ENDBRANCH  15  16
ENDBRANCH   9  15
ENDBRANCH   8  12
ENDBRANCH   7   8
ENDBRANCH   1   7
BRANCH   4  26
ATOM     26  C   UNL     1      -1.094   7.050  -4.828  0.00  0.00    +0.000 C 
BRANCH  26  27
ATOM     27  N   UNL     1      -1.975   8.164  -5.081  0.00  0.00    +0.000 N 
ATOM     28  C   UNL     1      -1.516   9.447  -5.187  0.00  0.00    +0.000 C 
ATOM     29  O   UNL     1      -0.324   9.724  -5.077  0.00  0.00    +0.000 OA
ATOM     30  H   UNL     1      -2.962   7.991  -4.911  0.00  0.00    +0.000 HD
BRANCH  28  31
ATOM     31  C   UNL     1      -2.513  10.468  -5.524  0.00  0.00    +0.000 A 
ATOM     32  C   UNL     1      -2.107  11.638  -6.150  0.00  0.00    +0.000 A 
ATOM     33  S   UNL     1      -3.391  12.698  -6.517  0.00  0.00    +0.000 S 
ATOM     34  C   UNL     1      -4.530  11.650  -5.812  0.00  0.00    +0.000 A 
ATOM     35  N   UNL     1      -5.849  11.980  -5.767  0.00  0.00    +0.000 NA
ATOM     36  C   UNL     1      -6.598  11.107  -5.176  0.00  0.00    +0.000 A 
ATOM     37  N   UNL     1      -6.147   9.931  -4.635  0.00  0.00    +0.000 N 
ATOM     38  C   UNL     1      -4.834   9.532  -4.710  0.00  0.00    +0.000 A 
ATOM     39  O   UNL     1      -4.483   8.426  -4.305  0.00  0.00    +0.000 OA
ATOM     40  C   UNL     1      -3.944  10.493  -5.328  0.00  0.00    +0.000 A 
ATOM     41  H   UNL     1      -6.787   9.278  -4.209  0.00  0.00    +0.000 HD
ENDBRANCH  28  31
ENDBRANCH  26  27
ENDBRANCH   4  26
TORSDOF 10
