REMARK  Name = 
REMARK  5 active torsions:
REMARK  status: ('A' for Active; 'I' for Inactive)
REMARK    1  A    between atoms: C_2  and  C_4
REMARK    2  A    between atoms: N_8  and  C_9
REMARK    3  A    between atoms: C_9  and  C_10
REMARK    4  A    between atoms: C_10  and  C_11
REMARK    5  A    between atoms: C_15  and  C_16
REMARK                            x       y       z     vdW  Elec       q    Type
REMARK                         _______ _______ _______ _____ _____    ______ ____
ROOT
ATOM      1  C   UNL     1       5.112  -5.905  -0.345  0.00  0.00    +0.000 C 
ENDROOT
BRANCH   1   6
ATOM      2  C   UNL     1       3.106  -1.278   0.202  0.00  0.00    +0.000 A 
ATOM      3  C   UNL     1       2.481  -2.489  -0.072  0.00  0.00    +0.000 A 
ATOM      4  C   UNL     1       3.220  -3.668   0.011  0.00  0.00    +0.000 A 
ATOM      5  C   UNL     1       4.571  -3.620   0.342  0.00  0.00    +0.000 A 
ATOM      6  N   UNL     1       5.346  -4.758   0.522  0.00  0.00    +0.000 N 
ATOM      7  N   UNL     1       5.197  -2.449   0.574  0.00  0.00    +0.000 NA
ATOM      8  C   UNL     1       4.460  -1.306   0.496  0.00  0.00    +0.000 A 
ATOM      9  H   UNL     1       6.310  -4.442   0.604  0.00  0.00    +0.000 HD
BRANCH   2  11
ATOM     10  N   UNL     1       1.043  -0.022   0.458  0.00  0.00    +0.000 N 
ATOM     11  C   UNL     1       2.386   0.012   0.190  0.00  0.00    +0.000 C 
ATOM     12  O   UNL     1       2.966   1.068  -0.016  0.00  0.00    +0.000 OA
ATOM     13  H   UNL     1       0.579   0.872   0.553  0.00  0.00    +0.000 HD
ATOM     14  H   UNL     1       0.591  -0.826   0.870  0.00  0.00    +0.000 HD
ENDBRANCH   2  11
ENDBRANCH   1   6
BRANCH   1  15
ATOM     15  C   UNL     1       6.111  -7.027  -0.041  0.00  0.00    +0.000 C 
BRANCH  15  16
ATOM     16  C   UNL     1       5.818  -8.254  -0.863  0.00  0.00    +0.000 A 
ATOM     17  C   UNL     1       4.971  -9.251  -0.392  0.00  0.00    +0.000 A 
ATOM     18  N   UNL     1       4.627 -10.343  -1.101  0.00  0.00    +0.000 NA
ATOM     19  C   UNL     1       5.153 -10.452  -2.348  0.00  0.00    +0.000 A 
ATOM     20  C   UNL     1       6.023  -9.532  -2.936  0.00  0.00    +0.000 A 
ATOM     21  C   UNL     1       6.340  -8.409  -2.155  0.00  0.00    +0.000 A 
BRANCH  20  22
ATOM     22  C   UNL     1       6.549  -9.741  -4.296  0.00  0.00    +0.000 A 
ATOM     23  C   UNL     1       7.795  -9.267  -4.710  0.00  0.00    +0.000 A 
ATOM     24  C   UNL     1       8.217  -9.502  -6.018  0.00  0.00    +0.000 A 
ATOM     25  C   UNL     1       7.392 -10.205  -6.884  0.00  0.00    +0.000 A 
ATOM     26  C   UNL     1       6.176 -10.651  -6.401  0.00  0.00    +0.000 A 
ATOM     27  N   UNL     1       5.744 -10.438  -5.138  0.00  0.00    +0.000 NA
ENDBRANCH  20  22
ENDBRANCH  15  16
ENDBRANCH   1  15
TORSDOF 5
