REMARK  Name = 
REMARK  10 active torsions:
REMARK  status: ('A' for Active; 'I' for Inactive)
REMARK    1  A    between atoms: C_1  and  O_2
REMARK    2  A    between atoms: O_2  and  C_3
REMARK    3  A    between atoms: C_10  and  C_11
REMARK    4  A    between atoms: N_13  and  C_14
REMARK    5  A    between atoms: C_14  and  C_15
REMARK    6  A    between atoms: C_18  and  C_19
REMARK    7  A    between atoms: C_19  and  N_20
REMARK    8  A    between atoms: N_20  and  C_21
REMARK    9  A    between atoms: N_20  and  C_22
REMARK   10  A    between atoms: C_22  and  C_23
REMARK                            x       y       z     vdW  Elec       q    Type
REMARK                         _______ _______ _______ _____ _____    ______ ____
ROOT
ATOM      1  C   UNL     1       2.800   2.052   2.595  0.00  0.00    +0.000 C 
ENDROOT
BRANCH   1   2
ATOM      2  C   UNL     1       1.657   2.730   1.887  0.00  0.00    +0.000 A 
ATOM      3  C   UNL     1       0.564   1.983   1.429  0.00  0.00    +0.000 A 
ATOM      4  C   UNL     1      -0.474   2.601   0.727  0.00  0.00    +0.000 A 
ATOM      5  C   UNL     1      -0.440   3.978   0.468  0.00  0.00    +0.000 A 
ATOM      6  C   UNL     1       0.657   4.723   0.922  0.00  0.00    +0.000 A 
ATOM      7  C   UNL     1       1.697   4.105   1.622  0.00  0.00    +0.000 A 
BRANCH   5   8
ATOM      8  C   UNL     1      -1.544   4.645  -0.329  0.00  0.00    +0.000 C 
BRANCH   8   9
ATOM      9  N   UNL     1      -2.898   4.465   0.235  0.00  0.00    +0.000 NA
ATOM     10  C   UNL     1      -3.002   5.088   1.561  0.00  0.00    +0.000 C 
BRANCH   9  11
ATOM     11  C   UNL     1      -3.924   5.058  -0.648  0.00  0.00    +0.000 C 
BRANCH  11  12
ATOM     12  C   UNL     1      -4.000   4.408  -2.011  0.00  0.00    +0.000 A 
ATOM     13  C   UNL     1      -4.290   3.047  -2.139  0.00  0.00    +0.000 A 
ATOM     14  C   UNL     1      -4.299   2.486  -3.406  0.00  0.00    +0.000 A 
ATOM     15  N   UNL     1      -4.051   3.180  -4.538  0.00  0.00    +0.000 NA
ATOM     16  C   UNL     1      -3.787   4.495  -4.394  0.00  0.00    +0.000 A 
ATOM     17  C   UNL     1      -3.755   5.148  -3.172  0.00  0.00    +0.000 A 
ENDBRANCH  11  12
ENDBRANCH   9  11
ENDBRANCH   8   9
ENDBRANCH   5   8
ENDBRANCH   1   2
BRANCH   1  20
ATOM     18  C   UNL     1       4.888   0.885   2.057  0.00  0.00    +0.000 C 
ATOM     19  O   UNL     1       5.105   0.683   3.250  0.00  0.00    +0.000 OA
ATOM     20  N   UNL     1       3.773   1.562   1.649  0.00  0.00    +0.000 N 
ATOM     21  H   UNL     1       3.590   1.705   0.665  0.00  0.00    +0.000 HD
BRANCH  18  29
ATOM     22  C   UNL     1       4.966   1.127  -1.386  0.00  0.00    +0.000 A 
ATOM     23  N   UNL     1       5.227   1.037  -2.707  0.00  0.00    +0.000 NA
ATOM     24  C   UNL     1       6.324   0.378  -3.089  0.00  0.00    +0.000 A 
ATOM     25  N   UNL     1       7.217  -0.213  -2.300  0.00  0.00    +0.000 NA
ATOM     26  C   UNL     1       6.913  -0.112  -0.994  0.00  0.00    +0.000 A 
ATOM     27  S   UNL     1       7.948  -0.805   0.158  0.00  0.00    +0.000 S 
ATOM     28  C   UNL     1       6.949  -0.296   1.432  0.00  0.00    +0.000 A 
ATOM     29  C   UNL     1       5.821   0.406   1.021  0.00  0.00    +0.000 A 
ATOM     30  C   UNL     1       5.808   0.524  -0.435  0.00  0.00    +0.000 A 
BRANCH  22  32
ATOM     31  C   UNL     1       3.427   2.791  -1.945  0.00  0.00    +0.000 C 
ATOM     32  O   UNL     1       3.829   1.804  -0.996  0.00  0.00    +0.000 OA
ENDBRANCH  22  32
ENDBRANCH  18  29
ENDBRANCH   1  20
TORSDOF 8
