REMARK  Name = 
REMARK  11 active torsions:
REMARK  status: ('A' for Active; 'I' for Inactive)
REMARK    1  A    between atoms: C_1  and  C_2
REMARK    2  A    between atoms: C_2  and  C_3
REMARK    3  A    between atoms: C_3  and  N_4
REMARK    4  A    between atoms: C_5  and  C_7
REMARK    5  A    between atoms: C_10  and  O_11
REMARK    6  A    between atoms: O_11  and  C_12
REMARK    7  A    between atoms: C_12  and  C_13
REMARK    8  A    between atoms: C_13  and  C_14
REMARK    9  A    between atoms: C_13  and  C_15
REMARK   10  A    between atoms: C_13  and  C_16
REMARK   11  A    between atoms: C_20  and  C_21
REMARK                            x       y       z     vdW  Elec       q    Type
REMARK                         _______ _______ _______ _____ _____    ______ ____
ROOT
ATOM      1  C   UNL     1       6.774   2.572  -1.052  0.00  0.00    +0.000 A 
ATOM      2  C   UNL     1       7.437   1.419  -1.461  0.00  0.00    +0.000 A 
ATOM      3  C   UNL     1       8.832   1.400  -1.454  0.00  0.00    +0.000 A 
ATOM      4  C   UNL     1       9.530   2.530  -1.044  0.00  0.00    +0.000 A 
ATOM      5  C   UNL     1       8.778   3.640  -0.656  0.00  0.00    +0.000 A 
ATOM      6  N   UNL     1       7.416   3.700  -0.645  0.00  0.00    +0.000 NA
ENDROOT
BRANCH   1   8
ATOM      7  N   UNL     1       4.659   3.749  -0.678  0.00  0.00    +0.000 N 
ATOM      8  C   UNL     1       5.272   2.571  -1.057  0.00  0.00    +0.000 C 
ATOM      9  O   UNL     1       4.648   1.566  -1.382  0.00  0.00    +0.000 OA
ATOM     10  H   UNL     1       5.263   4.514  -0.390  0.00  0.00    +0.000 HD
BRANCH   7  11
ATOM     11  C   UNL     1       3.217   3.874  -0.598  0.00  0.00    +0.000 C 
BRANCH  11  13
ATOM     12  C   UNL     1       3.156   4.286   1.902  0.00  0.00    +0.000 C 
ATOM     13  C   UNL     1       2.651   3.430   0.750  0.00  0.00    +0.000 C 
ENDBRANCH  11  13
ENDBRANCH   7  11
ENDBRANCH   1   8
BRANCH   4  14
ATOM     14  O   UNL     1      10.892   2.652  -0.988  0.00  0.00    +0.000 OA
BRANCH  14  15
ATOM     15  C   UNL     1      11.653   1.508  -1.412  0.00  0.00    +0.000 C 
BRANCH  15  16
ATOM     16  C   UNL     1      13.182   1.781  -1.315  0.00  0.00    +0.000 C 
ATOM     17  C   UNL     1      13.530   2.973  -2.232  0.00  0.00    +0.000 C 
ATOM     18  C   UNL     1      13.537   2.148   0.140  0.00  0.00    +0.000 C 
BRANCH  16  19
ATOM     19  C   UNL     1      13.972   0.536  -1.751  0.00  0.00    +0.000 A 
ATOM     20  C   UNL     1      15.369   0.533  -1.754  0.00  0.00    +0.000 A 
ATOM     21  C   UNL     1      16.056  -0.604  -2.174  0.00  0.00    +0.000 A 
ATOM     22  C   UNL     1      15.343  -1.724  -2.577  0.00  0.00    +0.000 A 
ATOM     23  C   UNL     1      13.957  -1.663  -2.539  0.00  0.00    +0.000 A 
ATOM     24  N   UNL     1      13.270  -0.560  -2.140  0.00  0.00    +0.000 NA
BRANCH  23  25
ATOM     25  C   UNL     1      13.164  -2.799  -2.926  0.00  0.00    +0.000 C 
ATOM     26  N   UNL     1      12.558  -3.737  -3.246  0.00  0.00    +0.000 NA
ENDBRANCH  23  25
ENDBRANCH  16  19
ENDBRANCH  15  16
ENDBRANCH  14  15
ENDBRANCH   4  14
TORSDOF 8
