REMARK  Name = 
REMARK  7 active torsions:
REMARK  status: ('A' for Active; 'I' for Inactive)
REMARK    1  A    between atoms: C_1  and  N_2
REMARK    2  A    between atoms: N_2  and  C_3
REMARK    3  A    between atoms: N_2  and  C_4
REMARK    4  A    between atoms: C_4  and  C_5
REMARK    5  A    between atoms: C_5  and  C_6
REMARK    6  A    between atoms: C_9  and  C_10
REMARK    7  A    between atoms: C_10  and  N_11
REMARK                            x       y       z     vdW  Elec       q    Type
REMARK                         _______ _______ _______ _____ _____    ______ ____
ROOT
ATOM      1  C   UNL     1       4.793  -1.443  -2.605  0.00  0.00    +0.000 A 
ATOM      2  C   UNL     1       5.350  -0.874  -3.754  0.00  0.00    +0.000 A 
ATOM      3  C   UNL     1       5.618  -1.676  -4.868  0.00  0.00    +0.000 A 
ATOM      4  C   UNL     1       5.342  -3.033  -4.817  0.00  0.00    +0.000 A 
ATOM      5  N   UNL     1       4.790  -3.605  -3.712  0.00  0.00    +0.000 NA
ATOM      6  C   UNL     1       4.535  -2.810  -2.648  0.00  0.00    +0.000 A 
ENDROOT
BRANCH   1   7
ATOM      7  C   UNL     1       4.454  -0.639  -1.374  0.00  0.00    +0.000 C 
BRANCH   7   8
ATOM      8  C   UNL     1       3.327   0.370  -1.646  0.00  0.00    +0.000 C 
BRANCH   8  10
ATOM      9  C   UNL     1       1.901   2.151  -0.908  0.00  0.00    +0.000 C 
ATOM     10  N   UNL     1       2.904   1.168  -0.478  0.00  0.00    +0.000 NA
ATOM     11  C   UNL     1       2.340   0.340   0.591  0.00  0.00    +0.000 C 
ENDBRANCH   8  10
ENDBRANCH   7   8
ENDBRANCH   1   7
BRANCH   4  12
ATOM     12  C   UNL     1       5.648  -3.968  -5.986  0.00  0.00    +0.000 C 
BRANCH  12  13
ATOM     13  N   UNL     1       4.870  -3.682  -7.224  0.00  0.00    +0.000 N 
ATOM     14  C   UNL     1       3.394  -3.560  -7.029  0.00  0.00    +0.000 C 
ATOM     15  C   UNL     1       2.831  -4.980  -6.898  0.00  0.00    +0.000 C 
ATOM     16  C   UNL     1       3.664  -5.583  -7.975  0.00  0.00    +0.000 A 
ATOM     17  C   UNL     1       3.357  -6.594  -8.860  0.00  0.00    +0.000 A 
ATOM     18  C   UNL     1       4.292  -6.830  -9.856  0.00  0.00    +0.000 A 
ATOM     19  N   UNL     1       5.491  -6.190  -9.960  0.00  0.00    +0.000 NA
ATOM     20  C   UNL     1       5.755  -5.207  -9.059  0.00  0.00    +0.000 A 
ATOM     21  C   UNL     1       4.853  -4.851  -8.078  0.00  0.00    +0.000 A 
ENDBRANCH  12  13
ENDBRANCH   4  12
TORSDOF 5
