REMARK  Name = 
REMARK  6 active torsions:
REMARK  status: ('A' for Active; 'I' for Inactive)
REMARK    1  A    between atoms: C_2  and  C_19
REMARK    2  A    between atoms: N_3  and  C_4
REMARK    3  A    between atoms: C_4  and  C_5
REMARK    4  A    between atoms: C_8  and  C_9
REMARK    5  A    between atoms: C_9  and  O_10
REMARK    6  A    between atoms: O_10  and  C_11
REMARK                            x       y       z     vdW  Elec       q    Type
REMARK                         _______ _______ _______ _____ _____    ______ ____
ROOT
ATOM      1  O   UNL     1       1.799   3.086  -0.164  0.00  0.00    +0.000 OA
ATOM      2  C   UNL     1       2.535   2.113  -0.301  0.00  0.00    +0.000 C 
ATOM      3  N   UNL     1       2.761   1.209   0.704  0.00  0.00    +0.000 N 
ATOM      4  H   UNL     1       3.496   0.518   0.603  0.00  0.00    +0.000 HD
ENDROOT
BRANCH   2   5
ATOM      5  C   UNL     1       3.183   1.828  -1.585  0.00  0.00    +0.000 A 
ATOM      6  C   UNL     1       2.622   2.297  -2.765  0.00  0.00    +0.000 A 
ATOM      7  S   UNL     1       3.527   1.899  -4.155  0.00  0.00    +0.000 S 
ATOM      8  C   UNL     1       4.712   1.111  -3.222  0.00  0.00    +0.000 A 
ATOM      9  N   UNL     1       5.814   0.566  -3.804  0.00  0.00    +0.000 NA
ATOM     10  C   UNL     1       6.648   0.034  -2.972  0.00  0.00    +0.000 A 
ATOM     11  N   UNL     1       6.470  -0.019  -1.615  0.00  0.00    +0.000 N 
ATOM     12  C   UNL     1       5.336   0.442  -0.993  0.00  0.00    +0.000 A 
ATOM     13  O   UNL     1       5.139   0.237   0.199  0.00  0.00    +0.000 OA
ATOM     14  C   UNL     1       4.400   1.112  -1.876  0.00  0.00    +0.000 A 
ATOM     15  H   UNL     1       7.140  -0.490  -1.023  0.00  0.00    +0.000 HD
ENDBRANCH   2   5
BRANCH   3  16
ATOM     16  C   UNL     1       2.184   1.353   2.015  0.00  0.00    +0.000 C 
BRANCH  16  17
ATOM     17  C   UNL     1       3.099   2.068   2.975  0.00  0.00    +0.000 A 
ATOM     18  C   UNL     1       3.092   3.467   3.044  0.00  0.00    +0.000 A 
ATOM     19  C   UNL     1       3.879   4.140   3.984  0.00  0.00    +0.000 A 
ATOM     20  C   UNL     1       4.709   3.428   4.860  0.00  0.00    +0.000 A 
ATOM     21  C   UNL     1       4.732   2.029   4.776  0.00  0.00    +0.000 A 
ATOM     22  C   UNL     1       3.947   1.356   3.834  0.00  0.00    +0.000 A 
BRANCH  20  23
ATOM     23  C   UNL     1       5.566   4.154   5.870  0.00  0.00    +0.000 C 
BRANCH  23  24
ATOM     24  O   UNL     1       4.838   4.343   7.084  0.00  0.00    +0.000 OA
BRANCH  24  25
ATOM     25  C   UNL     1       5.486   5.012   8.087  0.00  0.00    +0.000 A 
ATOM     26  C   UNL     1       6.797   5.479   8.056  0.00  0.00    +0.000 A 
ATOM     27  C   UNL     1       7.319   6.152   9.167  0.00  0.00    +0.000 A 
ATOM     28  C   UNL     1       6.506   6.335  10.273  0.00  0.00    +0.000 A 
ATOM     29  N   UNL     1       5.237   5.890  10.344  0.00  0.00    +0.000 NA
ATOM     30  C   UNL     1       4.759   5.241   9.251  0.00  0.00    +0.000 A 
ENDBRANCH  24  25
ENDBRANCH  23  24
ENDBRANCH  20  23
ENDBRANCH  16  17
ENDBRANCH   3  16
TORSDOF 6
