REMARK  Name = 
REMARK  8 active torsions:
REMARK  status: ('A' for Active; 'I' for Inactive)
REMARK    1  A    between atoms: C_1  and  C_2
REMARK    2  A    between atoms: C_2  and  N_3
REMARK    3  A    between atoms: C_2  and  C_16
REMARK    4  A    between atoms: C_4  and  C_6
REMARK    5  A    between atoms: C_19  and  C_20
REMARK    6  A    between atoms: C_20  and  C_21
REMARK    7  A    between atoms: C_20  and  C_22
REMARK    8  A    between atoms: C_20  and  C_23
REMARK                            x       y       z     vdW  Elec       q    Type
REMARK                         _______ _______ _______ _____ _____    ______ ____
ROOT
ATOM      1  C   UNL     1       3.108   0.289  -1.458  0.00  0.00    +0.000 C 
ATOM      2  C   UNL     1       2.461   0.041  -0.089  0.00  0.00    +0.000 C 
ENDROOT
BRANCH   2   3
ATOM      3  C   UNL     1       2.910  -1.307   0.458  0.00  0.00    +0.000 A 
ATOM      4  C   UNL     1       3.626  -1.401   1.655  0.00  0.00    +0.000 A 
ATOM      5  C   UNL     1       3.988  -2.653   2.177  0.00  0.00    +0.000 A 
ATOM      6  C   UNL     1       3.647  -3.854   1.526  0.00  0.00    +0.000 A 
ATOM      7  C   UNL     1       2.978  -3.737   0.294  0.00  0.00    +0.000 A 
ATOM      8  C   UNL     1       2.600  -2.494  -0.218  0.00  0.00    +0.000 A 
BRANCH   6   9
ATOM      9  C   UNL     1       3.996  -5.249   2.110  0.00  0.00    +0.000 C 
ATOM     10  C   UNL     1       4.125  -5.217   3.660  0.00  0.00    +0.000 C 
ATOM     11  C   UNL     1       2.804  -6.224   1.860  0.00  0.00    +0.000 C 
BRANCH   9  12
ATOM     12  C   UNL     1       5.323  -5.772   1.516  0.00  0.00    +0.000 A 
ATOM     13  C   UNL     1       6.521  -5.067   1.721  0.00  0.00    +0.000 A 
ATOM     14  C   UNL     1       7.704  -5.547   1.174  0.00  0.00    +0.000 A 
ATOM     15  N   UNL     1       7.793  -6.676   0.446  0.00  0.00    +0.000 NA
ATOM     16  C   UNL     1       6.643  -7.350   0.254  0.00  0.00    +0.000 A 
ATOM     17  C   UNL     1       5.411  -6.949   0.758  0.00  0.00    +0.000 A 
ENDBRANCH   9  12
ENDBRANCH   6   9
ENDBRANCH   2   3
BRANCH   2  18
ATOM     18  N   UNL     1       1.004   0.071  -0.134  0.00  0.00    +0.000 N 
ATOM     19  C   UNL     1       0.284   1.165  -0.543  0.00  0.00    +0.000 C 
ATOM     20  O   UNL     1       0.815   2.189  -0.964  0.00  0.00    +0.000 OA
ATOM     21  H   UNL     1       0.535  -0.600   0.469  0.00  0.00    +0.000 HD
BRANCH  19  22
ATOM     22  C   UNL     1      -1.178   1.032  -0.521  0.00  0.00    +0.000 A 
ATOM     23  C   UNL     1      -1.946   1.769  -1.412  0.00  0.00    +0.000 A 
ATOM     24  S   UNL     1      -3.622   1.503  -1.256  0.00  0.00    +0.000 S 
ATOM     25  C   UNL     1      -3.385   0.422   0.036  0.00  0.00    +0.000 A 
ATOM     26  N   UNL     1      -4.441  -0.151   0.672  0.00  0.00    +0.000 NA
ATOM     27  C   UNL     1      -4.116  -0.928   1.652  0.00  0.00    +0.000 A 
ATOM     28  N   UNL     1      -2.828  -1.194   2.043  0.00  0.00    +0.000 N 
ATOM     29  C   UNL     1      -1.729  -0.665   1.408  0.00  0.00    +0.000 A 
ATOM     30  O   UNL     1      -0.587  -0.971   1.737  0.00  0.00    +0.000 OA
ATOM     31  C   UNL     1      -2.041   0.238   0.320  0.00  0.00    +0.000 A 
ATOM     32  H   UNL     1      -2.643  -1.828   2.807  0.00  0.00    +0.000 HD
ENDBRANCH  19  22
ENDBRANCH   2  18
TORSDOF 5
