REMARK  Name = 
REMARK  9 active torsions:
REMARK  status: ('A' for Active; 'I' for Inactive)
REMARK    1  A    between atoms: C_1  and  O_2
REMARK    2  A    between atoms: O_2  and  C_3
REMARK    3  A    between atoms: C_10  and  C_11
REMARK    4  A    between atoms: N_13  and  C_14
REMARK    5  A    between atoms: C_14  and  C_15
REMARK    6  A    between atoms: C_18  and  C_19
REMARK    7  A    between atoms: C_19  and  O_20
REMARK    8  A    between atoms: O_20  and  C_21
REMARK    9  A    between atoms: C_21  and  C_22
REMARK                            x       y       z     vdW  Elec       q    Type
REMARK                         _______ _______ _______ _____ _____    ______ ____
ROOT
ATOM      1  C   UNL     1       2.961  -1.389  -3.159  0.00  0.00    +0.000 C 
ENDROOT
BRANCH   1   2
ATOM      2  C   UNL     1       1.784  -2.160  -2.625  0.00  0.00    +0.000 A 
ATOM      3  C   UNL     1       1.834  -3.556  -2.509  0.00  0.00    +0.000 A 
ATOM      4  C   UNL     1       0.764  -4.262  -1.953  0.00  0.00    +0.000 A 
ATOM      5  C   UNL     1      -0.384  -3.589  -1.509  0.00  0.00    +0.000 A 
ATOM      6  C   UNL     1      -0.452  -2.199  -1.671  0.00  0.00    +0.000 A 
ATOM      7  C   UNL     1       0.618  -1.493  -2.228  0.00  0.00    +0.000 A 
BRANCH   5   8
ATOM      8  C   UNL     1      -1.515  -4.347  -0.860  0.00  0.00    +0.000 C 
BRANCH   8   9
ATOM      9  O   UNL     1      -1.024  -4.991   0.314  0.00  0.00    +0.000 OA
BRANCH   9  10
ATOM     10  C   UNL     1      -2.060  -5.677   1.016  0.00  0.00    +0.000 C 
BRANCH  10  11
ATOM     11  C   UNL     1      -1.512  -6.327   2.265  0.00  0.00    +0.000 A 
ATOM     12  C   UNL     1      -0.430  -5.770   2.968  0.00  0.00    +0.000 A 
ATOM     13  C   UNL     1       0.042  -6.360   4.144  0.00  0.00    +0.000 A 
ATOM     14  C   UNL     1      -0.568  -7.508   4.641  0.00  0.00    +0.000 A 
ATOM     15  C   UNL     1      -1.648  -8.054   3.958  0.00  0.00    +0.000 A 
ATOM     16  F   UNL     1      -2.244  -9.154   4.438  0.00  0.00    +0.000 F 
ATOM     17  C   UNL     1      -2.126  -7.476   2.785  0.00  0.00    +0.000 A 
ENDBRANCH  10  11
ENDBRANCH   9  10
ENDBRANCH   8   9
ENDBRANCH   5   8
ENDBRANCH   1   2
BRANCH   1  20
ATOM     18  C   UNL     1       3.901  -0.598  -5.273  0.00  0.00    +0.000 C 
ATOM     19  O   UNL     1       4.859  -0.105  -4.680  0.00  0.00    +0.000 OA
ATOM     20  N   UNL     1       2.906  -1.244  -4.591  0.00  0.00    +0.000 N 
ATOM     21  H   UNL     1       2.099  -1.609  -5.078  0.00  0.00    +0.000 HD
BRANCH  18  29
ATOM     22  C   UNL     1       1.591  -1.763  -7.558  0.00  0.00    +0.000 A 
ATOM     23  N   UNL     1       0.905  -2.146  -8.656  0.00  0.00    +0.000 NA
ATOM     24  C   UNL     1       1.389  -1.808  -9.853  0.00  0.00    +0.000 A 
ATOM     25  N   UNL     1       2.495  -1.115 -10.102  0.00  0.00    +0.000 NA
ATOM     26  C   UNL     1       3.156  -0.763  -8.987  0.00  0.00    +0.000 A 
ATOM     27  S   UNL     1       4.590   0.135  -9.119  0.00  0.00    +0.000 S 
ATOM     28  C   UNL     1       4.793   0.149  -7.434  0.00  0.00    +0.000 A 
ATOM     29  C   UNL     1       3.791  -0.520  -6.739  0.00  0.00    +0.000 A 
ATOM     30  C   UNL     1       2.797  -1.047  -7.671  0.00  0.00    +0.000 A 
BRANCH  22  32
ATOM     31  C   UNL     1      -0.177  -2.766  -6.378  0.00  0.00    +0.000 C 
ATOM     32  O   UNL     1       1.066  -2.068  -6.318  0.00  0.00    +0.000 OA
ENDBRANCH  22  32
ENDBRANCH  18  29
ENDBRANCH   1  20
TORSDOF 8
