REMARK  Name = 
REMARK  9 active torsions:
REMARK  status: ('A' for Active; 'I' for Inactive)
REMARK    1  A    between atoms: C_1  and  C_2
REMARK    2  A    between atoms: C_2  and  C_3
REMARK    3  A    between atoms: C_2  and  N_10
REMARK    4  A    between atoms: C_3  and  C_4
REMARK    5  A    between atoms: N_10  and  C_11
REMARK    6  A    between atoms: C_11  and  C_12
REMARK    7  A    between atoms: C_15  and  C_16
REMARK    8  A    between atoms: C_16  and  N_17
REMARK    9  A    between atoms: C_18  and  C_20
REMARK                            x       y       z     vdW  Elec       q    Type
REMARK                         _______ _______ _______ _____ _____    ______ ____
ROOT
ATOM      1  C   UNL     1       4.958  -2.322  -1.553  0.00  0.00    +0.000 A 
ATOM      2  C   UNL     1       6.002  -2.241  -2.483  0.00  0.00    +0.000 A 
ATOM      3  C   UNL     1       6.405  -3.374  -3.195  0.00  0.00    +0.000 A 
ATOM      4  C   UNL     1       5.770  -4.605  -2.991  0.00  0.00    +0.000 A 
ATOM      5  C   UNL     1       4.769  -4.700  -2.017  0.00  0.00    +0.000 A 
ATOM      6  C   UNL     1       4.360  -3.569  -1.314  0.00  0.00    +0.000 A 
ENDROOT
BRANCH   1   7
ATOM      7  C   UNL     1       4.498  -1.109  -0.781  0.00  0.00    +0.000 C 
BRANCH   7   8
ATOM      8  N   UNL     1       3.977  -0.052  -1.653  0.00  0.00    +0.000 NA
ATOM      9  H   UNL     1       4.704   0.221  -2.312  0.00  0.00    +0.000 HD
BRANCH   8  11
ATOM     10  C   UNL     1       2.386   0.758   0.067  0.00  0.00    +0.000 C 
ATOM     11  C   UNL     1       3.520   1.133  -0.899  0.00  0.00    +0.000 C 
BRANCH  11  12
ATOM     12  C   UNL     1       3.067   2.238  -1.893  0.00  0.00    +0.000 C 
BRANCH  12  13
ATOM     13  C   UNL     1       2.579   3.498  -1.211  0.00  0.00    +0.000 A 
ATOM     14  C   UNL     1       3.411   4.242  -0.369  0.00  0.00    +0.000 A 
ATOM     15  C   UNL     1       2.873   5.324   0.313  0.00  0.00    +0.000 A 
ATOM     16  N   UNL     1       1.589   5.722   0.200  0.00  0.00    +0.000 NA
ATOM     17  C   UNL     1       0.810   5.012  -0.642  0.00  0.00    +0.000 A 
ATOM     18  C   UNL     1       1.252   3.912  -1.361  0.00  0.00    +0.000 A 
ENDBRANCH  12  13
ENDBRANCH  11  12
ENDBRANCH   8  11
ENDBRANCH   7   8
ENDBRANCH   1   7
BRANCH   4  19
ATOM     19  C   UNL     1       6.167  -5.825  -3.776  0.00  0.00    +0.000 C 
BRANCH  19  20
ATOM     20  N   UNL     1       7.211  -6.550  -3.105  0.00  0.00    +0.000 N 
ATOM     21  C   UNL     1       7.762  -7.675  -3.662  0.00  0.00    +0.000 C 
ATOM     22  O   UNL     1       7.423  -8.093  -4.764  0.00  0.00    +0.000 OA
ATOM     23  H   UNL     1       7.323  -6.379  -2.111  0.00  0.00    +0.000 HD
BRANCH  21  24
ATOM     24  C   UNL     1       8.836  -8.313  -2.894  0.00  0.00    +0.000 A 
ATOM     25  C   UNL     1       9.785  -9.085  -3.549  0.00  0.00    +0.000 A 
ATOM     26  S   UNL     1      10.992  -9.704  -2.517  0.00  0.00    +0.000 S 
ATOM     27  C   UNL     1      10.259  -9.005  -1.150  0.00  0.00    +0.000 A 
ATOM     28  N   UNL     1      10.787  -9.177   0.093  0.00  0.00    +0.000 NA
ATOM     29  C   UNL     1      10.117  -8.614   1.040  0.00  0.00    +0.000 A 
ATOM     30  N   UNL     1       8.968  -7.886   0.860  0.00  0.00    +0.000 N 
ATOM     31  C   UNL     1       8.411  -7.666  -0.379  0.00  0.00    +0.000 A 
ATOM     32  O   UNL     1       7.408  -6.978  -0.511  0.00  0.00    +0.000 OA
ATOM     33  C   UNL     1       9.120  -8.290  -1.478  0.00  0.00    +0.000 A 
ATOM     34  H   UNL     1       8.494  -7.464   1.643  0.00  0.00    +0.000 HD
ENDBRANCH  21  24
ENDBRANCH  19  20
ENDBRANCH   4  19
TORSDOF 8
