REMARK  Name = 
REMARK  4 active torsions:
REMARK  status: ('A' for Active; 'I' for Inactive)
REMARK    1  A    between atoms: C_1  and  C_2
REMARK    2  A    between atoms: C_2  and  C_3
REMARK    3  A    between atoms: C_11  and  N_12
REMARK    4  A    between atoms: C_16  and  C_17
REMARK                            x       y       z     vdW  Elec       q    Type
REMARK                         _______ _______ _______ _____ _____    ______ ____
ROOT
ATOM      1  N   UNL     1      -2.560   1.232   0.187  0.00  0.00    +0.000 N 
ATOM      2  C   UNL     1      -3.543   1.429  -0.776  0.00  0.00    +0.000 A 
ATOM      3  N   UNL     1      -3.586   0.656  -1.872  0.00  0.00    +0.000 NA
ATOM      4  C   UNL     1      -4.525   0.950  -2.798  0.00  0.00    +0.000 A 
ATOM      5  C   UNL     1      -5.432   1.974  -2.662  0.00  0.00    +0.000 A 
ATOM      6  C   UNL     1      -5.311   2.704  -1.505  0.00  0.00    +0.000 A 
ATOM      7  N   UNL     1      -4.380   2.453  -0.554  0.00  0.00    +0.000 NA
ATOM      8  H   UNL     1      -2.518   2.105   0.704  0.00  0.00    +0.000 HD
ENDROOT
BRANCH   1  13
ATOM      9  C   UNL     1       1.680   0.045  -0.826  0.00  0.00    +0.000 C 
ATOM     10  C   UNL     1       0.885  -0.012   0.496  0.00  0.00    +0.000 C 
ATOM     11  C   UNL     1      -0.072  -1.222   0.500  0.00  0.00    +0.000 C 
ATOM     12  C   UNL     1      -1.266  -0.804  -0.359  0.00  0.00    +0.000 C 
ATOM     13  C   UNL     1      -1.298   0.731  -0.335  0.00  0.00    +0.000 C 
ATOM     14  C   UNL     1      -0.138   1.141   0.581  0.00  0.00    +0.000 C 
BRANCH  10  15
ATOM     15  C   UNL     1       1.879  -0.014   1.639  0.00  0.00    +0.000 A 
ATOM     16  C   UNL     1       2.364   1.146   2.222  0.00  0.00    +0.000 A 
ATOM     17  N   UNL     1       3.283   1.180   3.209  0.00  0.00    +0.000 NA
ATOM     18  C   UNL     1       3.743  -0.011   3.615  0.00  0.00    +0.000 A 
ATOM     19  N   UNL     1       3.372  -1.202   3.128  0.00  0.00    +0.000 NA
ATOM     20  C   UNL     1       2.449  -1.171   2.144  0.00  0.00    +0.000 A 
ENDBRANCH  10  15
ENDBRANCH   1  13
BRANCH   5  21
ATOM     21  C   UNL     1      -6.398   2.254  -3.732  0.00  0.00    +0.000 C 
ATOM     22  N   UNL     1      -7.550   2.912  -3.405  0.00  0.00    +0.000 N 
ATOM     23  O   UNL     1      -6.185   1.887  -4.880  0.00  0.00    +0.000 OA
ATOM     24  H   UNL     1      -7.883   3.031  -2.459  0.00  0.00    +0.000 HD
ATOM     25  H   UNL     1      -8.232   3.008  -4.149  0.00  0.00    +0.000 HD
ENDBRANCH   5  21
TORSDOF 3
