REMARK  Name = 
REMARK  5 active torsions:
REMARK  status: ('A' for Active; 'I' for Inactive)
REMARK    1  A    between atoms: C_2  and  C_4
REMARK    2  A    between atoms: C_7  and  O_8
REMARK    3  A    between atoms: O_8  and  C_9
REMARK    4  A    between atoms: C_9  and  C_10
REMARK    5  A    between atoms: C_14  and  C_15
REMARK                            x       y       z     vdW  Elec       q    Type
REMARK                         _______ _______ _______ _____ _____    ______ ____
ROOT
ATOM      1  C   UNL     1       4.588   4.780  -3.775  0.00  0.00    +0.000 C 
ENDROOT
BRANCH   1   2
ATOM      2  C   UNL     1       5.358   5.557  -4.810  0.00  0.00    +0.000 A 
ATOM      3  C   UNL     1       6.208   4.896  -5.687  0.00  0.00    +0.000 A 
ATOM      4  N   UNL     1       6.899   5.507  -6.671  0.00  0.00    +0.000 NA
ATOM      5  C   UNL     1       6.727   6.846  -6.793  0.00  0.00    +0.000 A 
ATOM      6  C   UNL     1       5.885   7.627  -5.998  0.00  0.00    +0.000 A 
ATOM      7  C   UNL     1       5.189   6.935  -4.995  0.00  0.00    +0.000 A 
BRANCH   6   8
ATOM      8  C   UNL     1       5.724   9.080  -6.199  0.00  0.00    +0.000 A 
ATOM      9  C   UNL     1       5.794   9.677  -7.466  0.00  0.00    +0.000 A 
ATOM     10  C   UNL     1       5.621  11.053  -7.615  0.00  0.00    +0.000 A 
ATOM     11  C   UNL     1       5.373  11.811  -6.486  0.00  0.00    +0.000 A 
ATOM     12  N   UNL     1       5.299  11.293  -5.245  0.00  0.00    +0.000 NA
ATOM     13  C   UNL     1       5.481   9.954  -5.135  0.00  0.00    +0.000 A 
ENDBRANCH   6   8
ENDBRANCH   1   2
BRANCH   1  14
ATOM     14  O   UNL     1       4.376   5.574  -2.602  0.00  0.00    +0.000 OA
BRANCH  14  18
ATOM     15  C   UNL     1       2.146   3.624   0.257  0.00  0.00    +0.000 A 
ATOM     16  C   UNL     1       2.573   4.933   0.491  0.00  0.00    +0.000 A 
ATOM     17  C   UNL     1       3.335   5.583  -0.483  0.00  0.00    +0.000 A 
ATOM     18  C   UNL     1       3.637   4.900  -1.651  0.00  0.00    +0.000 A 
ATOM     19  N   UNL     1       3.247   3.630  -1.896  0.00  0.00    +0.000 NA
ATOM     20  C   UNL     1       2.520   3.016  -0.933  0.00  0.00    +0.000 A 
BRANCH  15  22
ATOM     21  N   UNL     1       0.509   3.550   2.050  0.00  0.00    +0.000 N 
ATOM     22  C   UNL     1       1.328   2.848   1.210  0.00  0.00    +0.000 C 
ATOM     23  O   UNL     1       1.343   1.625   1.218  0.00  0.00    +0.000 OA
ATOM     24  H   UNL     1      -0.132   2.998   2.608  0.00  0.00    +0.000 HD
ATOM     25  H   UNL     1       0.275   4.520   1.897  0.00  0.00    +0.000 HD
ENDBRANCH  15  22
ENDBRANCH  14  18
ENDBRANCH   1  14
TORSDOF 5
