REMARK  Name = 
REMARK  7 active torsions:
REMARK  status: ('A' for Active; 'I' for Inactive)
REMARK    1  A    between atoms: C_2  and  C_4
REMARK    2  A    between atoms: C_7  and  N_8
REMARK    3  A    between atoms: N_8  and  C_9
REMARK    4  A    between atoms: C_9  and  C_10
REMARK    5  A    between atoms: C_10  and  C_13
REMARK    6  A    between atoms: C_17  and  S_18
REMARK    7  A    between atoms: S_18  and  C_19
REMARK                            x       y       z     vdW  Elec       q    Type
REMARK                         _______ _______ _______ _____ _____    ______ ____
ROOT
ATOM      1  C   UNL     1       6.389   5.193  -1.338  0.00  0.00    +0.000 C 
ENDROOT
BRANCH   1   2
ATOM      2  C   UNL     1       6.990   6.625  -1.333  0.00  0.00    +0.000 C 
ATOM      3  F   UNL     1       5.995   7.495  -1.694  0.00  0.00    +0.000 F 
ATOM      4  F   UNL     1       7.275   6.943  -0.031  0.00  0.00    +0.000 F 
BRANCH   2   5
ATOM      5  C   UNL     1       8.213   6.763  -2.220  0.00  0.00    +0.000 A 
ATOM      6  C   UNL     1       9.496   6.494  -1.726  0.00  0.00    +0.000 A 
ATOM      7  C   UNL     1      10.609   6.588  -2.565  0.00  0.00    +0.000 A 
ATOM      8  C   UNL     1      10.454   6.948  -3.908  0.00  0.00    +0.000 A 
ATOM      9  C   UNL     1       9.184   7.230  -4.418  0.00  0.00    +0.000 A 
ATOM     10  C   UNL     1       8.075   7.138  -3.567  0.00  0.00    +0.000 A 
BRANCH   9  11
ATOM     11  S   UNL     1       8.881   7.535  -6.145  0.00  0.00    +0.000 S 
BRANCH  11  12
ATOM     12  C   UNL     1       9.896   9.019  -6.447  0.00  0.00    +0.000 C 
ATOM     13  C   UNL     1       9.490  10.275  -5.672  0.00  0.00    +0.000 C 
ATOM     14  O   UNL     1       9.265  11.015  -6.900  0.00  0.00    +0.000 OA
ATOM     15  C   UNL     1       9.378   9.794  -7.671  0.00  0.00    +0.000 C 
ENDBRANCH  11  12
ENDBRANCH   9  11
ENDBRANCH   2   5
ENDBRANCH   1   2
BRANCH   1  16
ATOM     16  N   UNL     1       5.821   4.785  -2.639  0.00  0.00    +0.000 N 
ATOM     17  H   UNL     1       5.258   5.515  -3.077  0.00  0.00    +0.000 HD
BRANCH  16  21
ATOM     18  C   UNL     1       4.259   0.918  -3.342  0.00  0.00    +0.000 A 
ATOM     19  C   UNL     1       4.214   1.912  -4.323  0.00  0.00    +0.000 A 
ATOM     20  C   UNL     1       4.705   3.195  -4.043  0.00  0.00    +0.000 A 
ATOM     21  C   UNL     1       5.244   3.516  -2.784  0.00  0.00    +0.000 A 
ATOM     22  C   UNL     1       5.270   2.492  -1.821  0.00  0.00    +0.000 A 
ATOM     23  F   UNL     1       5.773   2.715  -0.597  0.00  0.00    +0.000 F 
ATOM     24  C   UNL     1       4.770   1.218  -2.079  0.00  0.00    +0.000 A 
BRANCH  18  26
ATOM     25  N   UNL     1       3.893  -0.931  -4.878  0.00  0.00    +0.000 N 
ATOM     26  C   UNL     1       3.791  -0.468  -3.596  0.00  0.00    +0.000 C 
ATOM     27  O   UNL     1       3.379  -1.185  -2.693  0.00  0.00    +0.000 OA
ATOM     28  H   UNL     1       3.703  -1.917  -5.011  0.00  0.00    +0.000 HD
ATOM     29  H   UNL     1       4.461  -0.469  -5.574  0.00  0.00    +0.000 HD
ENDBRANCH  18  26
ENDBRANCH  16  21
ENDBRANCH   1  16
TORSDOF 7
