REMARK  Name = 
REMARK  7 active torsions:
REMARK  status: ('A' for Active; 'I' for Inactive)
REMARK    1  A    between atoms: C_1  and  C_2
REMARK    2  A    between atoms: C_2  and  C_3
REMARK    3  A    between atoms: C_7  and  O_8
REMARK    4  A    between atoms: O_8  and  C_9
REMARK    5  A    between atoms: C_9  and  C_10
REMARK    6  A    between atoms: C_10  and  C_13
REMARK    7  A    between atoms: C_16  and  C_17
REMARK                            x       y       z     vdW  Elec       q    Type
REMARK                         _______ _______ _______ _____ _____    ______ ____
ROOT
ATOM      1  C   UNL     1       4.486   2.722  -5.081  0.00  0.00    +0.000 C 
ENDROOT
BRANCH   1   2
ATOM      2  C   UNL     1       5.077   4.096  -5.426  0.00  0.00    +0.000 C 
ATOM      3  F   UNL     1       6.306   4.196  -4.836  0.00  0.00    +0.000 F 
ATOM      4  F   UNL     1       5.341   4.084  -6.772  0.00  0.00    +0.000 F 
BRANCH   2   5
ATOM      5  C   UNL     1       4.174   5.243  -5.054  0.00  0.00    +0.000 A 
ATOM      6  C   UNL     1       4.257   5.846  -3.796  0.00  0.00    +0.000 A 
ATOM      7  C   UNL     1       3.423   6.914  -3.480  0.00  0.00    +0.000 A 
ATOM      8  C   UNL     1       2.521   7.346  -4.442  0.00  0.00    +0.000 A 
ATOM      9  N   UNL     1       2.402   6.781  -5.679  0.00  0.00    +0.000 NA
ATOM     10  C   UNL     1       3.238   5.748  -5.950  0.00  0.00    +0.000 A 
BRANCH   8  11
ATOM     11  C   UNL     1       1.611   8.496  -4.137  0.00  0.00    +0.000 C 
ATOM     12  N   UNL     1       0.758   8.851  -5.148  0.00  0.00    +0.000 N 
ATOM     13  O   UNL     1       1.623   9.085  -3.066  0.00  0.00    +0.000 OA
ATOM     14  H   UNL     1       0.780   8.340  -6.022  0.00  0.00    +0.000 HD
ATOM     15  H   UNL     1       0.117   9.619  -5.013  0.00  0.00    +0.000 HD
ENDBRANCH   8  11
ENDBRANCH   2   5
ENDBRANCH   1   2
BRANCH   1  16
ATOM     16  O   UNL     1       4.295   2.548  -3.673  0.00  0.00    +0.000 OA
BRANCH  16  21
ATOM     17  C   UNL     1       2.878   0.073  -1.389  0.00  0.00    +0.000 A 
ATOM     18  C   UNL     1       2.549  -0.961  -2.288  0.00  0.00    +0.000 A 
ATOM     19  C   UNL     1       2.812  -0.848  -3.652  0.00  0.00    +0.000 A 
ATOM     20  C   UNL     1       3.407   0.305  -4.153  0.00  0.00    +0.000 A 
ATOM     21  C   UNL     1       3.742   1.350  -3.294  0.00  0.00    +0.000 A 
ATOM     22  C   UNL     1       3.491   1.222  -1.923  0.00  0.00    +0.000 A 
BRANCH  17  24
ATOM     23  C   UNL     1       0.940  -0.150   0.165  0.00  0.00    +0.000 C 
ATOM     24  C   UNL     1       2.474  -0.064   0.087  0.00  0.00    +0.000 C 
ATOM     25  C   UNL     1       3.143  -1.273   0.773  0.00  0.00    +0.000 C 
ATOM     26  C   UNL     1       4.336  -0.710   1.547  0.00  0.00    +0.000 C 
ATOM     27  C   UNL     1       4.290   0.788   1.324  0.00  0.00    +0.000 C 
ATOM     28  N   UNL     1       2.901   1.038   0.966  0.00  0.00    +0.000 NA
ATOM     29  H   UNL     1       2.753   1.948   0.542  0.00  0.00    +0.000 HD
ENDBRANCH  17  24
ENDBRANCH  16  21
ENDBRANCH   1  16
TORSDOF 6
