REMARK  Name = 
REMARK  6 active torsions:
REMARK  status: ('A' for Active; 'I' for Inactive)
REMARK    1  A    between atoms: C_2  and  C_21
REMARK    2  A    between atoms: N_3  and  C_4
REMARK    3  A    between atoms: C_4  and  C_5
REMARK    4  A    between atoms: C_8  and  C_9
REMARK    5  A    between atoms: C_9  and  C_10
REMARK    6  A    between atoms: C_10  and  C_11
REMARK                            x       y       z     vdW  Elec       q    Type
REMARK                         _______ _______ _______ _____ _____    ______ ____
ROOT
ATOM      1  C   UNL     1       2.141   0.907   2.320  0.00  0.00    +0.000 C 
ENDROOT
BRANCH   1   2
ATOM      2  C   UNL     1       3.072   1.362   3.412  0.00  0.00    +0.000 A 
ATOM      3  C   UNL     1       3.236   2.727   3.674  0.00  0.00    +0.000 A 
ATOM      4  C   UNL     1       4.078   3.157   4.701  0.00  0.00    +0.000 A 
ATOM      5  C   UNL     1       4.774   2.233   5.493  0.00  0.00    +0.000 A 
ATOM      6  C   UNL     1       4.640   0.869   5.206  0.00  0.00    +0.000 A 
ATOM      7  C   UNL     1       3.802   0.438   4.171  0.00  0.00    +0.000 A 
BRANCH   5   8
ATOM      8  C   UNL     1       5.665   2.697   6.626  0.00  0.00    +0.000 C 
BRANCH   8   9
ATOM      9  C   UNL     1       4.884   3.481   7.680  0.00  0.00    +0.000 C 
BRANCH   9  10
ATOM     10  C   UNL     1       5.752   3.985   8.822  0.00  0.00    +0.000 C 
ATOM     11  O   UNL     1       6.950   3.708   8.884  0.00  0.00    +0.000 OA
ATOM     12  N   UNL     1       5.113   4.770   9.779  0.00  0.00    +0.000 N 
ATOM     13  C   UNL     1       5.911   5.436  10.809  0.00  0.00    +0.000 C 
ATOM     14  C   UNL     1       5.287   5.275  12.195  0.00  0.00    +0.000 C 
ATOM     15  C   UNL     1       3.809   5.664  12.201  0.00  0.00    +0.000 C 
ATOM     16  C   UNL     1       3.049   4.925  11.104  0.00  0.00    +0.000 C 
ATOM     17  C   UNL     1       3.700   5.150   9.744  0.00  0.00    +0.000 C 
ENDBRANCH   9  10
ENDBRANCH   8   9
ENDBRANCH   5   8
ENDBRANCH   1   2
BRANCH   1  20
ATOM     18  O   UNL     1       2.060   2.901   0.340  0.00  0.00    +0.000 OA
ATOM     19  C   UNL     1       2.738   1.897   0.142  0.00  0.00    +0.000 C 
ATOM     20  N   UNL     1       2.802   0.864   1.040  0.00  0.00    +0.000 N 
ATOM     21  H   UNL     1       3.490   0.131   0.913  0.00  0.00    +0.000 HD
BRANCH  19  22
ATOM     22  C   UNL     1       3.485   1.720  -1.110  0.00  0.00    +0.000 A 
ATOM     23  C   UNL     1       3.112   2.437  -2.239  0.00  0.00    +0.000 A 
ATOM     24  S   UNL     1       4.094   2.131  -3.600  0.00  0.00    +0.000 S 
ATOM     25  C   UNL     1       5.077   1.060  -2.717  0.00  0.00    +0.000 A 
ATOM     26  N   UNL     1       6.161   0.473  -3.292  0.00  0.00    +0.000 NA
ATOM     27  C   UNL     1       6.844  -0.281  -2.494  0.00  0.00    +0.000 A 
ATOM     28  N   UNL     1       6.528  -0.517  -1.182  0.00  0.00    +0.000 N 
ATOM     29  C   UNL     1       5.392  -0.021  -0.587  0.00  0.00    +0.000 A 
ATOM     30  O   UNL     1       5.052  -0.383   0.533  0.00  0.00    +0.000 OA
ATOM     31  C   UNL     1       4.632   0.898  -1.416  0.00  0.00    +0.000 A 
ATOM     32  H   UNL     1       7.081  -1.152  -0.625  0.00  0.00    +0.000 HD
ENDBRANCH  19  22
ENDBRANCH   1  20
TORSDOF 6
