REMARK  Name = 
REMARK  7 active torsions:
REMARK  status: ('A' for Active; 'I' for Inactive)
REMARK    1  A    between atoms: C_2  and  C_3
REMARK    2  A    between atoms: N_7  and  C_8
REMARK    3  A    between atoms: C_8  and  C_9
REMARK    4  A    between atoms: C_9  and  C_10
REMARK    5  A    between atoms: C_9  and  C_12
REMARK    6  A    between atoms: C_16  and  O_17
REMARK    7  A    between atoms: O_17  and  C_18
REMARK                            x       y       z     vdW  Elec       q    Type
REMARK                         _______ _______ _______ _____ _____    ______ ____
ROOT
ATOM      1  C   UNL     1      -5.822   1.193  -0.245  0.00  0.00    +0.000 C 
ENDROOT
BRANCH   1   2
ATOM      2  C   UNL     1      -6.639   2.478  -0.317  0.00  0.00    +0.000 A 
ATOM      3  C   UNL     1      -7.898   2.462  -0.937  0.00  0.00    +0.000 A 
ATOM      4  C   UNL     1      -8.733   3.580  -0.883  0.00  0.00    +0.000 A 
ATOM      5  C   UNL     1      -8.325   4.736  -0.211  0.00  0.00    +0.000 A 
ATOM      6  C   UNL     1      -7.066   4.777   0.377  0.00  0.00    +0.000 A 
ATOM      7  C   UNL     1      -6.230   3.660   0.315  0.00  0.00    +0.000 A 
BRANCH   6   8
ATOM      8  O   UNL     1      -6.559   5.822   1.103  0.00  0.00    +0.000 OA
BRANCH   8   9
ATOM      9  C   UNL     1      -7.103   7.144   0.931  0.00  0.00    +0.000 C 
ATOM     10  C   UNL     1      -6.808   7.864  -0.409  0.00  0.00    +0.000 C 
ATOM     11  C   UNL     1      -6.504   9.141   0.393  0.00  0.00    +0.000 C 
ATOM     12  C   UNL     1      -6.259   8.250   1.618  0.00  0.00    +0.000 C 
ENDBRANCH   8   9
ENDBRANCH   6   8
ENDBRANCH   1   2
BRANCH   1  13
ATOM     13  C   UNL     1      -4.299   1.371  -0.219  0.00  0.00    +0.000 C 
ATOM     14  F   UNL     1      -3.892   1.951  -1.382  0.00  0.00    +0.000 F 
ENDBRANCH   1  13
BRANCH   1  15
ATOM     15  C   UNL     1      -6.284   0.327   0.952  0.00  0.00    +0.000 C 
BRANCH  15  20
ATOM     16  C   UNL     1      -6.980  -0.653   5.918  0.00  0.00    +0.000 A 
ATOM     17  C   UNL     1      -6.631  -1.523   4.891  0.00  0.00    +0.000 A 
ATOM     18  C   UNL     1      -6.323  -1.008   3.629  0.00  0.00    +0.000 A 
ATOM     19  C   UNL     1      -6.384   0.363   3.414  0.00  0.00    +0.000 A 
ATOM     20  N   UNL     1      -6.001   0.969   2.231  0.00  0.00    +0.000 N 
ATOM     21  N   UNL     1      -6.740   1.213   4.397  0.00  0.00    +0.000 NA
ATOM     22  C   UNL     1      -7.025   0.698   5.621  0.00  0.00    +0.000 A 
ATOM     23  H   UNL     1      -6.317   1.937   2.308  0.00  0.00    +0.000 HD
BRANCH  16  25
ATOM     24  N   UNL     1      -7.487  -1.515   8.305  0.00  0.00    +0.000 NA
ATOM     25  C   UNL     1      -7.264  -1.126   7.237  0.00  0.00    +0.000 C 
ENDBRANCH  16  25
ENDBRANCH  15  20
ENDBRANCH   1  15
TORSDOF 7
