REMARK  Name = 
REMARK  5 active torsions:
REMARK  status: ('A' for Active; 'I' for Inactive)
REMARK    1  A    between atoms: N_1  and  C_2
REMARK    2  A    between atoms: C_2  and  C_3
REMARK    3  A    between atoms: C_3  and  C_4
REMARK    4  A    between atoms: C_7  and  C_8
REMARK    5  A    between atoms: C_8  and  N_9
REMARK                            x       y       z     vdW  Elec       q    Type
REMARK                         _______ _______ _______ _____ _____    ______ ____
ROOT
ATOM      1  C   UNL     1       4.469   1.442   0.110  0.00  0.00    +0.000 A 
ATOM      2  C   UNL     1       5.151   1.860  -1.038  0.00  0.00    +0.000 A 
ATOM      3  C   UNL     1       6.547   1.871  -1.061  0.00  0.00    +0.000 A 
ATOM      4  C   UNL     1       7.244   1.501   0.089  0.00  0.00    +0.000 A 
ATOM      5  N   UNL     1       6.600   1.062   1.204  0.00  0.00    +0.000 NA
ATOM      6  C   UNL     1       5.247   1.034   1.186  0.00  0.00    +0.000 A 
ENDROOT
BRANCH   1   7
ATOM      7  C   UNL     1       2.973   1.419   0.170  0.00  0.00    +0.000 C 
BRANCH   7   8
ATOM      8  C   UNL     1       2.406   0.076  -0.293  0.00  0.00    +0.000 C 
BRANCH   8   9
ATOM      9  N   UNL     1       0.946   0.075  -0.234  0.00  0.00    +0.000 NA
ATOM     10  H   UNL     1       0.597  -0.825  -0.561  0.00  0.00    +0.000 HD
ATOM     11  H   UNL     1       0.574   0.772  -0.879  0.00  0.00    +0.000 HD
ENDBRANCH   8   9
ENDBRANCH   7   8
ENDBRANCH   1   7
BRANCH   4  12
ATOM     12  C   UNL     1       8.748   1.556   0.175  0.00  0.00    +0.000 C 
BRANCH  12  13
ATOM     13  N   UNL     1       9.285   2.897  -0.024  0.00  0.00    +0.000 N 
ATOM     14  N   UNL     1      10.181   3.096  -1.021  0.00  0.00    +0.000 NA
ATOM     15  C   UNL     1      10.447   4.402  -0.953  0.00  0.00    +0.000 A 
ATOM     16  C   UNL     1       9.744   5.052   0.082  0.00  0.00    +0.000 A 
ATOM     17  C   UNL     1       9.639   6.373   0.549  0.00  0.00    +0.000 A 
ATOM     18  C   UNL     1       8.785   6.626   1.621  0.00  0.00    +0.000 A 
ATOM     19  F   UNL     1       8.636   7.887   2.050  0.00  0.00    +0.000 F 
ATOM     20  C   UNL     1       8.075   5.609   2.248  0.00  0.00    +0.000 A 
ATOM     21  C   UNL     1       8.188   4.284   1.812  0.00  0.00    +0.000 A 
ATOM     22  C   UNL     1       9.015   4.038   0.704  0.00  0.00    +0.000 A 
ENDBRANCH  12  13
ENDBRANCH   4  12
TORSDOF 5
