REMARK  Name = 
REMARK  5 active torsions:
REMARK  status: ('A' for Active; 'I' for Inactive)
REMARK    1  A    between atoms: C_1  and  C_2
REMARK    2  A    between atoms: C_2  and  O_3
REMARK    3  A    between atoms: C_2  and  C_13
REMARK    4  A    between atoms: O_3  and  C_4
REMARK    5  A    between atoms: C_7  and  C_8
REMARK                            x       y       z     vdW  Elec       q    Type
REMARK                         _______ _______ _______ _____ _____    ______ ____
ROOT
ATOM      1  C   UNL     1       0.428   0.186  -1.376  0.00  0.00    +0.000 A 
ATOM      2  C   UNL     1       1.036   0.640  -2.546  0.00  0.00    +0.000 A 
ATOM      3  C   UNL     1       0.335   1.437  -3.447  0.00  0.00    +0.000 A 
ATOM      4  C   UNL     1      -1.009   1.748  -3.225  0.00  0.00    +0.000 A 
ATOM      5  C   UNL     1      -1.667   1.182  -2.127  0.00  0.00    +0.000 A 
ATOM      6  C   UNL     1      -0.944   0.403  -1.205  0.00  0.00    +0.000 A 
ENDROOT
BRANCH   4   7
ATOM      7  C   UNL     1      -1.626   2.738  -4.142  0.00  0.00    +0.000 C 
ATOM      8  N   UNL     1      -2.974   2.688  -4.333  0.00  0.00    +0.000 N 
ATOM      9  O   UNL     1      -0.944   3.574  -4.733  0.00  0.00    +0.000 OA
ATOM     10  H   UNL     1      -3.528   1.879  -4.090  0.00  0.00    +0.000 HD
ATOM     11  H   UNL     1      -3.337   3.313  -5.043  0.00  0.00    +0.000 HD
ENDBRANCH   4   7
BRANCH   1  12
ATOM     12  O   UNL     1       1.082  -0.479  -0.370  0.00  0.00    +0.000 OA
BRANCH  12  14
ATOM     13  C   UNL     1       2.723   0.489   1.114  0.00  0.00    +0.000 C 
ATOM     14  C   UNL     1       2.497  -0.222  -0.221  0.00  0.00    +0.000 C 
BRANCH  14  15
ATOM     15  C   UNL     1       3.308  -1.541  -0.361  0.00  0.00    +0.000 C 
ATOM     16  C   UNL     1       3.059  -2.172  -1.748  0.00  0.00    +0.000 C 
ATOM     17  C   UNL     1       3.687  -3.549  -1.924  0.00  0.00    +0.000 C 
ATOM     18  C   UNL     1       3.279  -4.484  -0.795  0.00  0.00    +0.000 C 
ATOM     19  C   UNL     1       3.698  -3.898   0.545  0.00  0.00    +0.000 C 
ATOM     20  C   UNL     1       3.040  -2.539   0.781  0.00  0.00    +0.000 C 
ENDBRANCH  14  15
ENDBRANCH  12  14
ENDBRANCH   1  12
TORSDOF 4
