REMARK  Name = 
REMARK  4 active torsions:
REMARK  status: ('A' for Active; 'I' for Inactive)
REMARK    1  A    between atoms: C_2  and  C_4
REMARK    2  A    between atoms: C_7  and  C_8
REMARK    3  A    between atoms: C_8  and  N_9
REMARK    4  A    between atoms: C_12  and  C_13
REMARK                            x       y       z     vdW  Elec       q    Type
REMARK                         _______ _______ _______ _____ _____    ______ ____
ROOT
ATOM      1  N   UNL     1       4.697   3.753   4.563  0.00  0.00    +0.000 N 
ATOM      2  C   UNL     1       5.235   4.641   5.478  0.00  0.00    +0.000 A 
ATOM      3  C   UNL     1       6.026   5.724   5.108  0.00  0.00    +0.000 A 
ATOM      4  C   UNL     1       6.463   6.666   6.055  0.00  0.00    +0.000 A 
ATOM      5  C   UNL     1       6.066   6.452   7.376  0.00  0.00    +0.000 A 
ATOM      6  C   UNL     1       5.288   5.342   7.674  0.00  0.00    +0.000 A 
ATOM      7  N   UNL     1       4.872   4.444   6.756  0.00  0.00    +0.000 NA
ATOM      8  H   UNL     1       4.308   2.963   5.073  0.00  0.00    +0.000 HD
ENDROOT
BRANCH   4   9
ATOM      9  C   UNL     1       7.281   7.833   5.649  0.00  0.00    +0.000 A 
ATOM     10  C   UNL     1       8.257   8.385   6.499  0.00  0.00    +0.000 A 
ATOM     11  C   UNL     1       9.024   9.492   6.112  0.00  0.00    +0.000 A 
ATOM     12  C   UNL     1       8.839  10.064   4.858  0.00  0.00    +0.000 A 
ATOM     13  C   UNL     1       7.888   9.527   4.006  0.00  0.00    +0.000 A 
ATOM     14  F   UNL     1       7.709  10.065   2.792  0.00  0.00    +0.000 F 
ATOM     15  C   UNL     1       7.113   8.436   4.389  0.00  0.00    +0.000 A 
ENDBRANCH   4   9
BRANCH   1  16
ATOM     16  C   UNL     1       5.424   3.430   3.353  0.00  0.00    +0.000 C 
BRANCH  16  20
ATOM     17  C   UNL     1       3.240   0.592   0.931  0.00  0.00    +0.000 A 
ATOM     18  C   UNL     1       2.661   1.822   1.260  0.00  0.00    +0.000 A 
ATOM     19  C   UNL     1       3.365   2.734   2.052  0.00  0.00    +0.000 A 
ATOM     20  C   UNL     1       4.650   2.428   2.529  0.00  0.00    +0.000 A 
ATOM     21  C   UNL     1       5.220   1.191   2.199  0.00  0.00    +0.000 A 
ATOM     22  C   UNL     1       4.517   0.277   1.410  0.00  0.00    +0.000 A 
BRANCH  17  24
ATOM     23  N   UNL     1       1.598   0.039  -0.784  0.00  0.00    +0.000 N 
ATOM     24  C   UNL     1       2.528  -0.419   0.106  0.00  0.00    +0.000 C 
ATOM     25  O   UNL     1       2.785  -1.613   0.190  0.00  0.00    +0.000 OA
ATOM     26  H   UNL     1       1.199  -0.652  -1.407  0.00  0.00    +0.000 HD
ATOM     27  H   UNL     1       1.542   1.008  -1.059  0.00  0.00    +0.000 HD
ENDBRANCH  17  24
ENDBRANCH  16  20
ENDBRANCH   1  16
TORSDOF 4
