REMARK  Name = 
REMARK  5 active torsions:
REMARK  status: ('A' for Active; 'I' for Inactive)
REMARK    1  A    between atoms: N_1  and  C_2
REMARK    2  A    between atoms: C_2  and  C_3
REMARK    3  A    between atoms: C_6  and  C_7
REMARK    4  A    between atoms: C_7  and  N_8
REMARK    5  A    between atoms: C_13  and  N_14
REMARK                            x       y       z     vdW  Elec       q    Type
REMARK                         _______ _______ _______ _____ _____    ______ ____
ROOT
ATOM      1  N   UNL     1       4.370   2.544  -5.678  0.00  0.00    +0.000 N 
ATOM      2  C   UNL     1       5.437   3.377  -5.436  0.00  0.00    +0.000 A 
ATOM      3  C   UNL     1       5.216   4.558  -6.105  0.00  0.00    +0.000 A 
ATOM      4  C   UNL     1       3.974   4.446  -6.785  0.00  0.00    +0.000 A 
ATOM      5  C   UNL     1       3.259   5.297  -7.655  0.00  0.00    +0.000 A 
ATOM      6  C   UNL     1       2.019   4.900  -8.174  0.00  0.00    +0.000 A 
ATOM      7  C   UNL     1       1.541   3.622  -7.881  0.00  0.00    +0.000 A 
ATOM      8  C   UNL     1       2.224   2.757  -7.018  0.00  0.00    +0.000 A 
ATOM      9  C   UNL     1       3.450   3.186  -6.488  0.00  0.00    +0.000 A 
ENDROOT
BRANCH   6  10
ATOM     10  N   UNL     1       1.391   5.677  -9.158  0.00  0.00    +0.000 N 
ATOM     11  H   UNL     1       1.597   6.668  -9.085  0.00  0.00    +0.000 HD
ATOM     12  H   UNL     1       0.396   5.493  -9.247  0.00  0.00    +0.000 HD
ENDBRANCH   6  10
BRANCH   1  13
ATOM     13  C   UNL     1       4.332   1.134  -5.306  0.00  0.00    +0.000 C 
BRANCH  13  17
ATOM     14  C   UNL     1       2.535   0.317  -1.517  0.00  0.00    +0.000 A 
ATOM     15  C   UNL     1       3.906   0.574  -1.582  0.00  0.00    +0.000 A 
ATOM     16  C   UNL     1       4.500   0.877  -2.806  0.00  0.00    +0.000 A 
ATOM     17  C   UNL     1       3.709   0.898  -3.955  0.00  0.00    +0.000 A 
ATOM     18  N   UNL     1       2.376   0.645  -3.916  0.00  0.00    +0.000 NA
ATOM     19  C   UNL     1       1.825   0.374  -2.710  0.00  0.00    +0.000 A 
BRANCH  14  20
ATOM     20  C   UNL     1       1.859  -0.028  -0.221  0.00  0.00    +0.000 C 
BRANCH  20  21
ATOM     21  N   UNL     1       2.008   1.036   0.764  0.00  0.00    +0.000 NA
ATOM     22  H   UNL     1       1.453   0.812   1.588  0.00  0.00    +0.000 HD
ATOM     23  H   UNL     1       1.618   1.898   0.383  0.00  0.00    +0.000 HD
ENDBRANCH  20  21
ENDBRANCH  14  20
ENDBRANCH  13  17
ENDBRANCH   1  13
TORSDOF 5
