REMARK  Name = 
REMARK  7 active torsions:
REMARK  status: ('A' for Active; 'I' for Inactive)
REMARK    1  A    between atoms: C_1  and  C_2
REMARK    2  A    between atoms: C_2  and  N_3
REMARK    3  A    between atoms: C_2  and  C_18
REMARK    4  A    between atoms: N_3  and  C_4
REMARK    5  A    between atoms: C_7  and  C_8
REMARK    6  A    between atoms: C_8  and  N_9
REMARK    7  A    between atoms: N_9  and  C_10
REMARK                            x       y       z     vdW  Elec       q    Type
REMARK                         _______ _______ _______ _____ _____    ______ ____
ROOT
ATOM      1  C   UNL     1       0.160   0.927   0.072  0.00  0.00    +0.000 A 
ATOM      2  C   UNL     1       0.606   2.210   0.410  0.00  0.00    +0.000 A 
ATOM      3  C   UNL     1      -0.146   3.348   0.092  0.00  0.00    +0.000 A 
ATOM      4  C   UNL     1      -1.384   3.223  -0.548  0.00  0.00    +0.000 A 
ATOM      5  C   UNL     1      -1.868   1.937  -0.790  0.00  0.00    +0.000 A 
ATOM      6  F   UNL     1      -3.080   1.767  -1.340  0.00  0.00    +0.000 F 
ATOM      7  C   UNL     1      -1.105   0.806  -0.503  0.00  0.00    +0.000 A 
ENDROOT
BRANCH   1   8
ATOM      8  N   UNL     1       1.031  -0.135   0.207  0.00  0.00    +0.000 N 
ATOM      9  H   UNL     1       1.573  -0.215   1.066  0.00  0.00    +0.000 HD
BRANCH   8  11
ATOM     10  C   UNL     1       2.584  -1.509  -1.041  0.00  0.00    +0.000 C 
ATOM     11  C   UNL     1       1.107  -1.242  -0.736  0.00  0.00    +0.000 C 
BRANCH  11  12
ATOM     12  C   UNL     1       0.357  -2.507  -0.380  0.00  0.00    +0.000 A 
ATOM     13  C   UNL     1      -0.041  -3.437  -1.331  0.00  0.00    +0.000 A 
ATOM     14  S   UNL     1      -1.082  -4.635  -0.703  0.00  0.00    +0.000 S 
ATOM     15  C   UNL     1      -1.027  -3.943   0.851  0.00  0.00    +0.000 A 
ATOM     16  N   UNL     1      -1.806  -4.411   1.856  0.00  0.00    +0.000 NA
ATOM     17  C   UNL     1      -1.686  -3.760   2.967  0.00  0.00    +0.000 A 
ATOM     18  N   UNL     1      -0.798  -2.733   3.181  0.00  0.00    +0.000 N 
ATOM     19  C   UNL     1       0.112  -2.316   2.230  0.00  0.00    +0.000 A 
ATOM     20  O   UNL     1       1.059  -1.596   2.518  0.00  0.00    +0.000 OA
ATOM     21  C   UNL     1      -0.124  -2.898   0.919  0.00  0.00    +0.000 A 
ATOM     22  H   UNL     1      -0.680  -2.342   4.102  0.00  0.00    +0.000 HD
ENDBRANCH  11  12
ENDBRANCH   8  11
ENDBRANCH   1   8
BRANCH   4  23
ATOM     23  C   UNL     1      -2.152   4.439  -1.002  0.00  0.00    +0.000 C 
BRANCH  23  24
ATOM     24  N   UNL     1      -1.392   5.186  -2.006  0.00  0.00    +0.000 NA
ATOM     25  H   UNL     1      -1.229   4.590  -2.819  0.00  0.00    +0.000 HD
BRANCH  24  26
ATOM     26  C   UNL     1      -2.020   6.447  -2.432  0.00  0.00    +0.000 C 
ATOM     27  C   UNL     1      -3.397   6.314  -3.075  0.00  0.00    +0.000 C 
ATOM     28  C   UNL     1      -3.071   5.970  -4.512  0.00  0.00    +0.000 C 
ATOM     29  N   UNL     1      -1.959   6.865  -4.845  0.00  0.00    +0.000 NA
ATOM     30  C   UNL     1      -1.202   7.071  -3.590  0.00  0.00    +0.000 C 
ATOM     31  H   UNL     1      -2.343   7.765  -5.136  0.00  0.00    +0.000 HD
ENDBRANCH  24  26
ENDBRANCH  23  24
ENDBRANCH   4  23
TORSDOF 6
