REMARK  Name = 
REMARK  8 active torsions:
REMARK  status: ('A' for Active; 'I' for Inactive)
REMARK    1  A    between atoms: C_1  and  C_2
REMARK    2  A    between atoms: C_5  and  O_6
REMARK    3  A    between atoms: O_6  and  C_7
REMARK    4  A    between atoms: C_9  and  C_10
REMARK    5  A    between atoms: C_10  and  C_13
REMARK    6  A    between atoms: C_13  and  N_14
REMARK    7  A    between atoms: N_14  and  C_15
REMARK    8  A    between atoms: C_18  and  C_19
REMARK                            x       y       z     vdW  Elec       q    Type
REMARK                         _______ _______ _______ _____ _____    ______ ____
ROOT
ATOM      1  C   UNL     1       7.004  -4.706   0.748  0.00  0.00    +0.000 C 
ATOM      2  F   UNL     1       6.028  -5.047   1.642  0.00  0.00    +0.000 F 
ATOM      3  F   UNL     1       6.505  -5.062  -0.477  0.00  0.00    +0.000 F 
ENDROOT
BRANCH   1   6
ATOM      4  C   UNL     1       6.484  -0.952   0.695  0.00  0.00    +0.000 A 
ATOM      5  C   UNL     1       6.241  -2.315   0.591  0.00  0.00    +0.000 A 
ATOM      6  C   UNL     1       7.294  -3.214   0.811  0.00  0.00    +0.000 A 
ATOM      7  C   UNL     1       8.555  -2.669   1.099  0.00  0.00    +0.000 A 
ATOM      8  C   UNL     1       8.700  -1.291   1.167  0.00  0.00    +0.000 A 
ATOM      9  N   UNL     1       7.693  -0.421   0.978  0.00  0.00    +0.000 NA
BRANCH   4  10
ATOM     10  O   UNL     1       5.403  -0.111   0.487  0.00  0.00    +0.000 OA
BRANCH  10  15
ATOM     11  C   UNL     1       3.267   2.514   3.375  0.00  0.00    +0.000 C 
ATOM     12  C   UNL     1       3.843   1.474   2.437  0.00  0.00    +0.000 C 
ATOM     13  F   UNL     1       3.033   0.381   2.476  0.00  0.00    +0.000 F 
ATOM     14  C   UNL     1       5.346   1.164   2.603  0.00  0.00    +0.000 C 
ATOM     15  C   UNL     1       5.431   1.118   1.124  0.00  0.00    +0.000 C 
ATOM     16  C   UNL     1       4.210   1.947   1.013  0.00  0.00    +0.000 C 
ENDBRANCH  10  15
ENDBRANCH   4  10
ENDBRANCH   1   6
BRANCH   1  17
ATOM     17  C   UNL     1       8.242  -5.603   1.023  0.00  0.00    +0.000 C 
BRANCH  17  18
ATOM     18  N   UNL     1       7.985  -7.060   0.956  0.00  0.00    +0.000 N 
ATOM     19  H   UNL     1       7.385  -7.308   0.167  0.00  0.00    +0.000 HD
BRANCH  18  20
ATOM     20  C   UNL     1       9.098  -7.896   1.093  0.00  0.00    +0.000 A 
ATOM     21  C   UNL     1      10.182  -7.645   1.926  0.00  0.00    +0.000 A 
ATOM     22  N   UNL     1      11.236  -8.468   2.112  0.00  0.00    +0.000 NA
ATOM     23  C   UNL     1      11.176  -9.638   1.438  0.00  0.00    +0.000 A 
ATOM     24  N   UNL     1      10.174 -10.025   0.627  0.00  0.00    +0.000 NA
ATOM     25  C   UNL     1       9.155  -9.148   0.495  0.00  0.00    +0.000 A 
BRANCH  23  26
ATOM     26  C   UNL     1      12.331 -10.591   1.647  0.00  0.00    +0.000 C 
ATOM     27  N   UNL     1      13.305 -10.160   2.523  0.00  0.00    +0.000 N 
ATOM     28  O   UNL     1      12.430 -11.683   1.101  0.00  0.00    +0.000 OA
ATOM     29  H   UNL     1      13.207  -9.274   3.000  0.00  0.00    +0.000 HD
ATOM     30  H   UNL     1      14.081 -10.771   2.730  0.00  0.00    +0.000 HD
ENDBRANCH  23  26
ENDBRANCH  18  20
ENDBRANCH  17  18
ENDBRANCH   1  17
TORSDOF 7
