REMARK  Name = 
REMARK  7 active torsions:
REMARK  status: ('A' for Active; 'I' for Inactive)
REMARK    1  A    between atoms: C_1  and  C_2
REMARK    2  A    between atoms: C_2  and  C_3
REMARK    3  A    between atoms: C_2  and  C_4
REMARK    4  A    between atoms: C_2  and  C_19
REMARK    5  A    between atoms: C_5  and  C_6
REMARK    6  A    between atoms: C_8  and  C_9
REMARK    7  A    between atoms: C_22  and  C_23
REMARK                            x       y       z     vdW  Elec       q    Type
REMARK                         _______ _______ _______ _____ _____    ______ ____
ROOT
ATOM      1  C   UNL     1       0.984  -0.123   0.149  0.00  0.00    +0.000 C 
ATOM      2  C   UNL     1       2.525  -0.009   0.086  0.00  0.00    +0.000 C 
ATOM      3  C   UNL     1       3.038   0.008   1.547  0.00  0.00    +0.000 C 
ENDROOT
BRANCH   2   4
ATOM      4  C   UNL     1       3.018   1.275  -0.609  0.00  0.00    +0.000 A 
ATOM      5  C   UNL     1       4.397   1.536  -0.739  0.00  0.00    +0.000 A 
ATOM      6  C   UNL     1       4.865   2.728  -1.311  0.00  0.00    +0.000 A 
ATOM      7  C   UNL     1       3.963   3.698  -1.772  0.00  0.00    +0.000 A 
ATOM      8  C   UNL     1       2.599   3.434  -1.670  0.00  0.00    +0.000 A 
ATOM      9  F   UNL     1       1.688   4.319  -2.101  0.00  0.00    +0.000 F 
ATOM     10  C   UNL     1       2.133   2.249  -1.104  0.00  0.00    +0.000 A 
BRANCH   7  11
ATOM     11  C   UNL     1       4.500   4.965  -2.332  0.00  0.00    +0.000 C 
ATOM     12  N   UNL     1       3.610   5.914  -2.752  0.00  0.00    +0.000 N 
ATOM     13  O   UNL     1       5.704   5.169  -2.415  0.00  0.00    +0.000 OA
ATOM     14  H   UNL     1       2.603   5.788  -2.693  0.00  0.00    +0.000 HD
ATOM     15  H   UNL     1       3.972   6.783  -3.116  0.00  0.00    +0.000 HD
ENDBRANCH   7  11
ENDBRANCH   2   4
BRANCH   2  16
ATOM     16  C   UNL     1       3.009  -1.295  -0.574  0.00  0.00    +0.000 C 
ATOM     17  C   UNL     1       3.320  -1.491  -1.868  0.00  0.00    +0.000 C 
BRANCH  17  18
ATOM     18  C   UNL     1       3.744  -2.799  -2.387  0.00  0.00    +0.000 A 
ATOM     19  C   UNL     1       4.511  -2.875  -3.546  0.00  0.00    +0.000 A 
ATOM     20  C   UNL     1       4.935  -4.125  -4.024  0.00  0.00    +0.000 A 
ATOM     21  C   UNL     1       4.528  -5.253  -3.299  0.00  0.00    +0.000 A 
ATOM     22  C   UNL     1       3.746  -5.090  -2.167  0.00  0.00    +0.000 A 
ATOM     23  N   UNL     1       3.356  -3.893  -1.694  0.00  0.00    +0.000 NA
BRANCH  20  24
ATOM     24  C   UNL     1       5.777  -4.245  -5.238  0.00  0.00    +0.000 A 
ATOM     25  C   UNL     1       5.649  -5.340  -6.115  0.00  0.00    +0.000 A 
ATOM     26  C   UNL     1       6.441  -5.460  -7.264  0.00  0.00    +0.000 A 
ATOM     27  C   UNL     1       7.373  -4.475  -7.567  0.00  0.00    +0.000 A 
ATOM     28  C   UNL     1       7.512  -3.389  -6.717  0.00  0.00    +0.000 A 
ATOM     29  F   UNL     1       8.406  -2.435  -7.007  0.00  0.00    +0.000 F 
ATOM     30  C   UNL     1       6.736  -3.270  -5.566  0.00  0.00    +0.000 A 
ENDBRANCH  20  24
ENDBRANCH  17  18
ENDBRANCH   2  16
TORSDOF 5
