REMARK  Name = 
REMARK  4 active torsions:
REMARK  status: ('A' for Active; 'I' for Inactive)
REMARK    1  A    between atoms: C_2  and  C_4
REMARK    2  A    between atoms: C_7  and  O_8
REMARK    3  A    between atoms: O_8  and  C_9
REMARK    4  A    between atoms: C_9  and  C_10
REMARK                            x       y       z     vdW  Elec       q    Type
REMARK                         _______ _______ _______ _____ _____    ______ ____
ROOT
ATOM      1  C   UNL     1       3.021   1.366  -0.918  0.00  0.00    +0.000 A 
ATOM      2  C   UNL     1       3.512   0.448  -1.838  0.00  0.00    +0.000 A 
ATOM      3  C   UNL     1       4.163   0.936  -2.972  0.00  0.00    +0.000 A 
ATOM      4  C   UNL     1       4.289   2.311  -3.153  0.00  0.00    +0.000 A 
ATOM      5  C   UNL     1       3.799   3.146  -2.152  0.00  0.00    +0.000 A 
ATOM      6  N   UNL     1       3.154   2.716  -1.045  0.00  0.00    +0.000 NA
ENDROOT
BRANCH   1   8
ATOM      7  N   UNL     1       1.774   1.894   1.086  0.00  0.00    +0.000 N 
ATOM      8  C   UNL     1       2.289   0.899   0.298  0.00  0.00    +0.000 C 
ATOM      9  O   UNL     1       2.146  -0.287   0.574  0.00  0.00    +0.000 OA
ATOM     10  H   UNL     1       1.258   1.659   1.920  0.00  0.00    +0.000 HD
ATOM     11  H   UNL     1       1.886   2.861   0.800  0.00  0.00    +0.000 HD
ENDBRANCH   1   8
BRANCH   4  12
ATOM     12  O   UNL     1       4.879   2.726  -4.315  0.00  0.00    +0.000 OA
BRANCH  12  13
ATOM     13  C   UNL     1       4.548   4.066  -4.696  0.00  0.00    +0.000 C 
BRANCH  13  14
ATOM     14  C   UNL     1       4.766   4.294  -6.169  0.00  0.00    +0.000 A 
ATOM     15  C   UNL     1       3.911   5.170  -6.859  0.00  0.00    +0.000 A 
ATOM     16  C   UNL     1       4.097   5.423  -8.215  0.00  0.00    +0.000 A 
ATOM     17  C   UNL     1       5.147   4.814  -8.896  0.00  0.00    +0.000 A 
ATOM     18  C   UNL     1       6.015   3.958  -8.219  0.00  0.00    +0.000 A 
ATOM     19  C   UNL     1       5.831   3.702  -6.861  0.00  0.00    +0.000 A 
ENDBRANCH  13  14
ENDBRANCH  12  13
ENDBRANCH   4  12
TORSDOF 4
