REMARK  Name = 
REMARK  5 active torsions:
REMARK  status: ('A' for Active; 'I' for Inactive)
REMARK    1  A    between atoms: C_2  and  C_18
REMARK    2  A    between atoms: N_3  and  C_4
REMARK    3  A    between atoms: C_7  and  C_8
REMARK    4  A    between atoms: C_8  and  O_9
REMARK    5  A    between atoms: O_9  and  C_10
REMARK                            x       y       z     vdW  Elec       q    Type
REMARK                         _______ _______ _______ _____ _____    ______ ____
ROOT
ATOM      1  O   UNL     1       1.163  -0.294  -1.023  0.00  0.00    +0.000 OA
ATOM      2  C   UNL     1       2.213  -0.154  -0.406  0.00  0.00    +0.000 C 
ATOM      3  N   UNL     1       2.736  -1.075   0.478  0.00  0.00    +0.000 N 
ATOM      4  H   UNL     1       3.546  -0.797   1.027  0.00  0.00    +0.000 HD
ENDROOT
BRANCH   2   5
ATOM      5  C   UNL     1       2.992   1.078  -0.588  0.00  0.00    +0.000 A 
ATOM      6  C   UNL     1       2.835   1.818  -1.752  0.00  0.00    +0.000 A 
ATOM      7  S   UNL     1       3.737   3.263  -1.767  0.00  0.00    +0.000 S 
ATOM      8  C   UNL     1       4.338   2.967  -0.203  0.00  0.00    +0.000 A 
ATOM      9  N   UNL     1       5.137   3.874   0.424  0.00  0.00    +0.000 NA
ATOM     10  C   UNL     1       5.471   3.543   1.625  0.00  0.00    +0.000 A 
ATOM     11  N   UNL     1       5.109   2.377   2.249  0.00  0.00    +0.000 N 
ATOM     12  C   UNL     1       4.383   1.394   1.621  0.00  0.00    +0.000 A 
ATOM     13  O   UNL     1       4.207   0.294   2.135  0.00  0.00    +0.000 OA
ATOM     14  C   UNL     1       3.908   1.753   0.300  0.00  0.00    +0.000 A 
ATOM     15  H   UNL     1       5.447   2.160   3.175  0.00  0.00    +0.000 HD
ENDBRANCH   2   5
BRANCH   3  16
ATOM     16  C   UNL     1       2.134  -2.288   0.869  0.00  0.00    +0.000 A 
ATOM     17  C   UNL     1       1.058  -2.866   0.207  0.00  0.00    +0.000 A 
ATOM     18  C   UNL     1       0.474  -4.022   0.712  0.00  0.00    +0.000 A 
ATOM     19  C   UNL     1       0.985  -4.583   1.877  0.00  0.00    +0.000 A 
ATOM     20  N   UNL     1       2.067  -4.073   2.517  0.00  0.00    +0.000 NA
ATOM     21  C   UNL     1       2.614  -2.947   1.999  0.00  0.00    +0.000 A 
BRANCH  19  22
ATOM     22  C   UNL     1       0.313  -5.796   2.473  0.00  0.00    +0.000 C 
BRANCH  22  23
ATOM     23  O   UNL     1       0.816  -6.970   1.833  0.00  0.00    +0.000 OA
BRANCH  23  24
ATOM     24  C   UNL     1       0.282  -8.116   2.377  0.00  0.00    +0.000 A 
ATOM     25  C   UNL     1       0.716  -9.336   1.878  0.00  0.00    +0.000 A 
ATOM     26  N   UNL     1       0.254 -10.522   2.348  0.00  0.00    +0.000 NA
ATOM     27  C   UNL     1      -0.658 -10.428   3.342  0.00  0.00    +0.000 A 
ATOM     28  C   UNL     1      -1.094  -9.211   3.837  0.00  0.00    +0.000 A 
ATOM     29  N   UNL     1      -0.640  -8.029   3.363  0.00  0.00    +0.000 NA
ENDBRANCH  23  24
ENDBRANCH  22  23
ENDBRANCH  19  22
ENDBRANCH   3  16
TORSDOF 5
