REMARK  Name = 
REMARK  7 active torsions:
REMARK  status: ('A' for Active; 'I' for Inactive)
REMARK    1  A    between atoms: C_1  and  C_2
REMARK    2  A    between atoms: C_2  and  O_3
REMARK    3  A    between atoms: O_3  and  C_4
REMARK    4  A    between atoms: C_6  and  C_7
REMARK    5  A    between atoms: N_12  and  C_13
REMARK    6  A    between atoms: C_13  and  C_14
REMARK    7  A    between atoms: C_18  and  C_19
REMARK                            x       y       z     vdW  Elec       q    Type
REMARK                         _______ _______ _______ _____ _____    ______ ____
ROOT
ATOM      1  C   UNL     1       4.702  -2.529   0.839  0.00  0.00    +0.000 A 
ATOM      2  C   UNL     1       5.531  -2.808  -0.209  0.00  0.00    +0.000 A 
ATOM      3  C   UNL     1       6.862  -2.749   0.106  0.00  0.00    +0.000 A 
ATOM      4  N   UNL     1       7.354  -2.399   1.321  0.00  0.00    +0.000 NA
ATOM      5  C   UNL     1       6.452  -2.098   2.256  0.00  0.00    +0.000 A 
ATOM      6  N   UNL     1       6.859  -1.620   3.473  0.00  0.00    +0.000 N 
ATOM      7  N   UNL     1       5.132  -2.174   2.066  0.00  0.00    +0.000 NA
ATOM      8  H   UNL     1       6.116  -1.599   4.159  0.00  0.00    +0.000 HD
ENDROOT
BRANCH   3   9
ATOM      9  C   UNL     1       7.886  -3.084  -0.931  0.00  0.00    +0.000 C 
ATOM     10  N   UNL     1       9.187  -3.030  -0.504  0.00  0.00    +0.000 N 
ATOM     11  O   UNL     1       7.589  -3.391  -2.074  0.00  0.00    +0.000 OA
ATOM     12  H   UNL     1       9.393  -2.742   0.445  0.00  0.00    +0.000 HD
ATOM     13  H   UNL     1       9.932  -3.217  -1.158  0.00  0.00    +0.000 HD
ENDBRANCH   3   9
BRANCH   1  14
ATOM     14  O   UNL     1       3.345  -2.564   0.579  0.00  0.00    +0.000 OA
BRANCH  14  16
ATOM     15  C   UNL     1       1.098  -2.776   1.370  0.00  0.00    +0.000 C 
ATOM     16  C   UNL     1       2.568  -2.818   1.751  0.00  0.00    +0.000 C 
ENDBRANCH  14  16
ENDBRANCH   1  14
BRANCH   6  17
ATOM     17  C   UNL     1       8.224  -1.721   3.922  0.00  0.00    +0.000 C 
BRANCH  17  18
ATOM     18  C   UNL     1       8.344  -2.730   5.038  0.00  0.00    +0.000 A 
ATOM     19  C   UNL     1       8.278  -2.324   6.376  0.00  0.00    +0.000 A 
ATOM     20  C   UNL     1       8.370  -3.265   7.398  0.00  0.00    +0.000 A 
ATOM     21  C   UNL     1       8.507  -4.621   7.093  0.00  0.00    +0.000 A 
ATOM     22  C   UNL     1       8.545  -5.073   5.762  0.00  0.00    +0.000 A 
ATOM     23  C   UNL     1       8.479  -4.099   4.747  0.00  0.00    +0.000 A 
BRANCH  22  24
ATOM     24  C   UNL     1       8.590  -6.514   5.438  0.00  0.00    +0.000 A 
ATOM     25  C   UNL     1       9.303  -7.026   4.344  0.00  0.00    +0.000 A 
ATOM     26  C   UNL     1       9.261  -8.388   4.042  0.00  0.00    +0.000 A 
ATOM     27  C   UNL     1       8.513  -9.220   4.855  0.00  0.00    +0.000 A 
ATOM     28  N   UNL     1       7.822  -8.788   5.926  0.00  0.00    +0.000 NA
ATOM     29  C   UNL     1       7.875  -7.457   6.183  0.00  0.00    +0.000 A 
ENDBRANCH  22  24
ENDBRANCH  17  18
ENDBRANCH   6  17
TORSDOF 6
