REMARK  Name = 
REMARK  4 active torsions:
REMARK  status: ('A' for Active; 'I' for Inactive)
REMARK    1  A    between atoms: C_4  and  N_5
REMARK    2  A    between atoms: N_5  and  C_6
REMARK    3  A    between atoms: C_6  and  C_7
REMARK    4  A    between atoms: C_11  and  C_12
REMARK                            x       y       z     vdW  Elec       q    Type
REMARK                         _______ _______ _______ _____ _____    ______ ____
ROOT
ATOM      1  C   UNL     1      -5.132  -0.159  -0.454  0.00  0.00    +0.000 A 
ATOM      2  C   UNL     1      -6.171  -1.088  -0.570  0.00  0.00    +0.000 A 
ATOM      3  C   UNL     1      -7.496  -0.660  -0.589  0.00  0.00    +0.000 A 
ATOM      4  C   UNL     1      -7.794   0.701  -0.497  0.00  0.00    +0.000 A 
ATOM      5  C   UNL     1      -6.778   1.671  -0.408  0.00  0.00    +0.000 A 
ATOM      6  C   UNL     1      -5.446   1.213  -0.403  0.00  0.00    +0.000 A 
ENDROOT
BRANCH   5   7
ATOM      7  C   UNL     1      -7.119   3.107  -0.277  0.00  0.00    +0.000 A 
ATOM      8  C   UNL     1      -6.309   4.129  -0.778  0.00  0.00    +0.000 A 
ATOM      9  C   UNL     1      -6.686   5.457  -0.586  0.00  0.00    +0.000 A 
ATOM     10  C   UNL     1      -7.860   5.742   0.096  0.00  0.00    +0.000 A 
ATOM     11  C   UNL     1      -8.615   4.680   0.554  0.00  0.00    +0.000 A 
ATOM     12  N   UNL     1      -8.277   3.382   0.380  0.00  0.00    +0.000 NA
ENDBRANCH   5   7
BRANCH   1  13
ATOM     13  C   UNL     1      -3.700  -0.625  -0.325  0.00  0.00    +0.000 C 
BRANCH  13  14
ATOM     14  N   UNL     1      -3.068  -0.749  -1.628  0.00  0.00    +0.000 N 
ATOM     15  H   UNL     1      -3.672  -1.157  -2.338  0.00  0.00    +0.000 HD
BRANCH  14  19
ATOM     16  C   UNL     1       0.932  -2.051  -2.025  0.00  0.00    +0.000 A 
ATOM     17  C   UNL     1       0.369  -1.957  -0.757  0.00  0.00    +0.000 A 
ATOM     18  C   UNL     1      -0.957  -1.535  -0.607  0.00  0.00    +0.000 A 
ATOM     19  C   UNL     1      -1.758  -1.235  -1.717  0.00  0.00    +0.000 A 
ATOM     20  C   UNL     1      -1.163  -1.321  -2.985  0.00  0.00    +0.000 A 
ATOM     21  C   UNL     1       0.167  -1.726  -3.141  0.00  0.00    +0.000 A 
ENDBRANCH  14  19
ENDBRANCH  13  14
ENDBRANCH   1  13
TORSDOF 4
