REMARK  Name = 
REMARK  3 active torsions:
REMARK  status: ('A' for Active; 'I' for Inactive)
REMARK    1  A    between atoms: C_2  and  C_4
REMARK    2  A    between atoms: N_8  and  C_9
REMARK    3  A    between atoms: C_9  and  C_10
REMARK                            x       y       z     vdW  Elec       q    Type
REMARK                         _______ _______ _______ _____ _____    ______ ____
ROOT
ATOM      1  C   UNL     1       4.020   2.201  -2.139  0.00  0.00    +0.000 A 
ATOM      2  C   UNL     1       3.341   1.910  -3.285  0.00  0.00    +0.000 A 
ATOM      3  N   UNL     1       3.673   0.892  -4.103  0.00  0.00    +0.000 NA
ATOM      4  C   UNL     1       4.755   0.163  -3.773  0.00  0.00    +0.000 A 
ATOM      5  N   UNL     1       4.918  -0.985  -4.551  0.00  0.00    +0.000 N 
ATOM      6  N   UNL     1       5.542   0.426  -2.720  0.00  0.00    +0.000 NA
ATOM      7  C   UNL     1       5.152   1.450  -1.914  0.00  0.00    +0.000 A 
ATOM      8  H   UNL     1       4.245  -0.864  -5.305  0.00  0.00    +0.000 HD
ENDROOT
BRANCH   1  10
ATOM      9  N   UNL     1       2.250   3.517  -1.121  0.00  0.00    +0.000 N 
ATOM     10  C   UNL     1       3.593   3.238  -1.183  0.00  0.00    +0.000 C 
ATOM     11  O   UNL     1       4.396   3.788  -0.442  0.00  0.00    +0.000 OA
ATOM     12  H   UNL     1       1.969   4.146  -0.375  0.00  0.00    +0.000 HD
ATOM     13  H   UNL     1       1.541   2.912  -1.502  0.00  0.00    +0.000 HD
ENDBRANCH   1  10
BRANCH   5  14
ATOM     14  C   UNL     1       6.236  -1.486  -4.967  0.00  0.00    +0.000 C 
ATOM     15  C   UNL     1       6.350  -3.004  -4.871  0.00  0.00    +0.000 C 
ATOM     16  C   UNL     1       7.229  -2.136  -4.032  0.00  0.00    +0.000 C 
BRANCH  14  17
ATOM     17  C   UNL     1       6.741  -0.775  -6.212  0.00  0.00    +0.000 A 
ATOM     18  C   UNL     1       6.420  -1.218  -7.504  0.00  0.00    +0.000 A 
ATOM     19  C   UNL     1       6.700  -0.431  -8.618  0.00  0.00    +0.000 A 
ATOM     20  C   UNL     1       7.324   0.787  -8.418  0.00  0.00    +0.000 A 
ATOM     21  N   UNL     1       7.710   1.236  -7.208  0.00  0.00    +0.000 NA
ATOM     22  C   UNL     1       7.411   0.450  -6.144  0.00  0.00    +0.000 A 
ENDBRANCH  14  17
ENDBRANCH   5  14
TORSDOF 3
