REMARK  Name = 
REMARK  9 active torsions:
REMARK  status: ('A' for Active; 'I' for Inactive)
REMARK    1  A    between atoms: C_2  and  C_21
REMARK    2  A    between atoms: N_3  and  CA_4
REMARK    3  A    between atoms: CA_4  and  C_5
REMARK    4  A    between atoms: CA_4  and  C_7
REMARK    5  A    between atoms: C_5  and  O_6
REMARK    6  A    between atoms: C_10  and  C_11
REMARK    7  A    between atoms: C_11  and  O_12
REMARK    8  A    between atoms: C_11  and  C_13
REMARK    9  A    between atoms: C_13  and  C_14
REMARK                            x       y       z     vdW  Elec       q    Type
REMARK                         _______ _______ _______ _____ _____    ______ ____
ROOT
ATOM      1  CA  UNL     1       2.284   1.284   2.223  0.00  0.00    +0.000 C 
ENDROOT
BRANCH   1   2
ATOM      2  C   UNL     1       3.244   1.947   3.182  0.00  0.00    +0.000 A 
ATOM      3  C   UNL     1       3.216   3.338   3.338  0.00  0.00    +0.000 A 
ATOM      4  C   UNL     1       4.073   3.957   4.241  0.00  0.00    +0.000 A 
ATOM      5  C   UNL     1       4.940   3.167   4.986  0.00  0.00    +0.000 A 
ATOM      6  N   UNL     1       4.974   1.816   4.876  0.00  0.00    +0.000 NA
ATOM      7  C   UNL     1       4.137   1.243   3.984  0.00  0.00    +0.000 A 
BRANCH   5   8
ATOM      8  C   UNL     1       5.848   3.784   6.028  0.00  0.00    +0.000 C 
BRANCH   8   9
ATOM      9  O   UNL     1       5.562   3.168   7.293  0.00  0.00    +0.000 OA
ATOM     10  H   UNL     1       5.258   2.265   7.073  0.00  0.00    +0.000 HD
ENDBRANCH   8   9
BRANCH   8  11
ATOM     11  C   UNL     1       7.336   3.550   5.730  0.00  0.00    +0.000 C 
BRANCH  11  12
ATOM     12  C   UNL     1       7.844   4.168   4.413  0.00  0.00    +0.000 C 
ATOM     13  C   UNL     1       9.334   3.887   4.230  0.00  0.00    +0.000 C 
ATOM     14  C   UNL     1       9.988   5.070   4.911  0.00  0.00    +0.000 C 
ATOM     15  N   UNL     1       9.153   6.205   4.509  0.00  0.00    +0.000 NA
ATOM     16  C   UNL     1       7.776   5.699   4.400  0.00  0.00    +0.000 C 
ATOM     17  H   UNL     1       9.456   6.513   3.584  0.00  0.00    +0.000 HD
ENDBRANCH  11  12
ENDBRANCH   8  11
ENDBRANCH   5   8
ENDBRANCH   1   2
BRANCH   1  20
ATOM     18  O   UNL     1      -0.187   1.449   0.930  0.00  0.00    +0.000 OA
ATOM     19  C   UNL     1      -0.185   1.216   2.136  0.00  0.00    +0.000 C 
ATOM     20  N   UNL     1       0.981   1.167   2.856  0.00  0.00    +0.000 N 
ATOM     21  H   UNL     1       0.965   0.801   3.804  0.00  0.00    +0.000 HD
BRANCH  19  22
ATOM     22  C   UNL     1      -1.427   1.012   2.887  0.00  0.00    +0.000 A 
ATOM     23  C   UNL     1      -2.619   1.560   2.439  0.00  0.00    +0.000 A 
ATOM     24  S   UNL     1      -3.960   1.163   3.419  0.00  0.00    +0.000 S 
ATOM     25  C   UNL     1      -2.992   0.223   4.457  0.00  0.00    +0.000 A 
ATOM     26  N   UNL     1      -3.534  -0.458   5.504  0.00  0.00    +0.000 NA
ATOM     27  C   UNL     1      -2.688  -1.160   6.176  0.00  0.00    +0.000 A 
ATOM     28  N   UNL     1      -1.342  -1.230   5.917  0.00  0.00    +0.000 N 
ATOM     29  C   UNL     1      -0.742  -0.503   4.918  0.00  0.00    +0.000 A 
ATOM     30  O   UNL     1       0.479  -0.478   4.798  0.00  0.00    +0.000 OA
ATOM     31  C   UNL     1      -1.661   0.250   4.087  0.00  0.00    +0.000 A 
ATOM     32  H   UNL     1      -0.725  -1.763   6.508  0.00  0.00    +0.000 HD
ENDBRANCH  19  22
ENDBRANCH   1  20
BRANCH   1  33
ATOM     33  C   UNL     1       2.784  -0.067   1.654  0.00  0.00    +0.000 C 
BRANCH  33  34
ATOM     34  O   UNL     1       1.867  -0.687   0.759  0.00  0.00    +0.000 OA
ATOM     35  H   UNL     1       1.367   0.014   0.297  0.00  0.00    +0.000 HD
ENDBRANCH  33  34
ENDBRANCH   1  33
TORSDOF 9
