REMARK  Name = 
REMARK  9 active torsions:
REMARK  status: ('A' for Active; 'I' for Inactive)
REMARK    1  A    between atoms: C_1  and  C_2
REMARK    2  A    between atoms: C_2  and  C_3
REMARK    3  A    between atoms: C_3  and  N_4
REMARK    4  A    between atoms: C_3  and  C_26
REMARK    5  A    between atoms: N_4  and  C_5
REMARK    6  A    between atoms: C_5  and  C_6
REMARK    7  A    between atoms: C_9  and  C_10
REMARK    8  A    between atoms: C_10  and  N_11
REMARK    9  A    between atoms: C_12  and  C_14
REMARK                            x       y       z     vdW  Elec       q    Type
REMARK                         _______ _______ _______ _____ _____    ______ ____
ROOT
ATOM      1  C   UNL     1       2.929   2.341  -0.980  0.00  0.00    +0.000 A 
ATOM      2  C   UNL     1       1.696   2.153  -1.605  0.00  0.00    +0.000 A 
ATOM      3  C   UNL     1       1.361   2.955  -2.691  0.00  0.00    +0.000 A 
ATOM      4  C   UNL     1       2.263   3.926  -3.128  0.00  0.00    +0.000 A 
ATOM      5  C   UNL     1       3.445   4.075  -2.410  0.00  0.00    +0.000 A 
ATOM      6  N   UNL     1       3.800   3.305  -1.359  0.00  0.00    +0.000 NA
ENDROOT
BRANCH   1   7
ATOM      7  C   UNL     1       3.343   1.441   0.166  0.00  0.00    +0.000 C 
BRANCH   7   8
ATOM      8  N   UNL     1       3.389   0.031  -0.246  0.00  0.00    +0.000 NA
ATOM      9  H   UNL     1       4.089  -0.045  -0.989  0.00  0.00    +0.000 HD
BRANCH   8  10
ATOM     10  C   UNL     1       3.791  -0.889   0.839  0.00  0.00    +0.000 C 
BRANCH  10  11
ATOM     11  C   UNL     1       3.837  -2.334   0.325  0.00  0.00    +0.000 A 
ATOM     12  C   UNL     1       2.695  -2.921  -0.228  0.00  0.00    +0.000 A 
ATOM     13  C   UNL     1       2.695  -4.285  -0.496  0.00  0.00    +0.000 A 
ATOM     14  C   UNL     1       3.840  -5.026  -0.241  0.00  0.00    +0.000 A 
ATOM     15  C   UNL     1       4.951  -4.362   0.251  0.00  0.00    +0.000 A 
ATOM     16  N   UNL     1       4.976  -3.041   0.544  0.00  0.00    +0.000 NA
ENDBRANCH  10  11
BRANCH  10  18
ATOM     17  C   UNL     1       3.205  -1.694   3.224  0.00  0.00    +0.000 C 
ATOM     18  C   UNL     1       2.827  -0.802   2.048  0.00  0.00    +0.000 C 
ENDBRANCH  10  18
ENDBRANCH   8  10
ENDBRANCH   7   8
ENDBRANCH   1   7
BRANCH   4  19
ATOM     19  C   UNL     1       1.975   4.807  -4.303  0.00  0.00    +0.000 C 
BRANCH  19  20
ATOM     20  N   UNL     1       1.299   6.011  -3.898  0.00  0.00    +0.000 N 
ATOM     21  C   UNL     1       0.896   6.935  -4.824  0.00  0.00    +0.000 C 
ATOM     22  O   UNL     1       1.058   6.763  -6.029  0.00  0.00    +0.000 OA
ATOM     23  H   UNL     1       1.361   6.278  -2.920  0.00  0.00    +0.000 HD
BRANCH  21  24
ATOM     24  C   UNL     1       0.205   8.121  -4.303  0.00  0.00    +0.000 A 
ATOM     25  C   UNL     1      -0.665   8.823  -5.128  0.00  0.00    +0.000 A 
ATOM     26  S   UNL     1      -1.408  10.152  -4.361  0.00  0.00    +0.000 S 
ATOM     27  C   UNL     1      -0.554   9.866  -2.916  0.00  0.00    +0.000 A 
ATOM     28  N   UNL     1      -0.706  10.683  -1.841  0.00  0.00    +0.000 NA
ATOM     29  C   UNL     1       0.024  10.367  -0.822  0.00  0.00    +0.000 A 
ATOM     30  N   UNL     1       0.881   9.298  -0.779  0.00  0.00    +0.000 N 
ATOM     31  C   UNL     1       1.040   8.422  -1.828  0.00  0.00    +0.000 A 
ATOM     32  O   UNL     1       1.767   7.443  -1.738  0.00  0.00    +0.000 OA
ATOM     33  C   UNL     1       0.260   8.753  -3.010  0.00  0.00    +0.000 A 
ATOM     34  H   UNL     1       1.410   9.093   0.056  0.00  0.00    +0.000 HD
ENDBRANCH  21  24
ENDBRANCH  19  20
ENDBRANCH   4  19
TORSDOF 8
