REMARK  Name = 
REMARK  6 active torsions:
REMARK  status: ('A' for Active; 'I' for Inactive)
REMARK    1  A    between atoms: N_1  and  C_2
REMARK    2  A    between atoms: C_2  and  C_3
REMARK    3  A    between atoms: C_6  and  C_7
REMARK    4  A    between atoms: C_7  and  O_8
REMARK    5  A    between atoms: O_8  and  C_9
REMARK    6  A    between atoms: C_12  and  C_13
REMARK                            x       y       z     vdW  Elec       q    Type
REMARK                         _______ _______ _______ _____ _____    ______ ____
ROOT
ATOM      1  O   UNL     1       6.244  -4.729  -2.851  0.00  0.00    +0.000 OA
ENDROOT
BRANCH   1   2
ATOM      2  C   UNL     1       6.674  -5.678  -3.755  0.00  0.00    +0.000 A 
ATOM      3  C   UNL     1       8.039  -5.780  -3.964  0.00  0.00    +0.000 A 
ATOM      4  C   UNL     1       8.499  -6.745  -4.863  0.00  0.00    +0.000 A 
ATOM      5  C   UNL     1       7.583  -7.574  -5.519  0.00  0.00    +0.000 A 
ATOM      6  C   UNL     1       6.239  -7.387  -5.240  0.00  0.00    +0.000 A 
ATOM      7  N   UNL     1       5.765  -6.459  -4.375  0.00  0.00    +0.000 NA
BRANCH   5   8
ATOM      8  C   UNL     1       8.076  -8.600  -6.467  0.00  0.00    +0.000 C 
ATOM      9  N   UNL     1       7.171  -9.409  -7.100  0.00  0.00    +0.000 N 
ATOM     10  O   UNL     1       9.272  -8.736  -6.687  0.00  0.00    +0.000 OA
ATOM     11  H   UNL     1       6.169  -9.389  -6.994  0.00  0.00    +0.000 HD
ATOM     12  H   UNL     1       7.553 -10.098  -7.737  0.00  0.00    +0.000 HD
ENDBRANCH   5   8
ENDBRANCH   1   2
BRANCH   1  13
ATOM     13  C   UNL     1       4.816  -4.668  -2.773  0.00  0.00    +0.000 C 
BRANCH  13  17
ATOM     14  C   UNL     1       2.935  -1.116  -1.022  0.00  0.00    +0.000 C 
ATOM     15  C   UNL     1       2.390  -2.506  -0.653  0.00  0.00    +0.000 C 
ATOM     16  C   UNL     1       2.862  -3.577  -1.632  0.00  0.00    +0.000 C 
ATOM     17  C   UNL     1       4.392  -3.611  -1.746  0.00  0.00    +0.000 C 
ATOM     18  C   UNL     1       4.941  -2.226  -2.111  0.00  0.00    +0.000 C 
ATOM     19  C   UNL     1       4.468  -1.157  -1.131  0.00  0.00    +0.000 C 
BRANCH  14  20
ATOM     20  C   UNL     1       2.459  -0.075   0.006  0.00  0.00    +0.000 C 
BRANCH  20  21
ATOM     21  N   UNL     1       2.918   1.268  -0.330  0.00  0.00    +0.000 NA
ATOM     22  H   UNL     1       2.540   1.936   0.340  0.00  0.00    +0.000 HD
ATOM     23  H   UNL     1       2.558   1.537  -1.245  0.00  0.00    +0.000 HD
ENDBRANCH  20  21
ENDBRANCH  14  20
ENDBRANCH  13  17
ENDBRANCH   1  13
TORSDOF 6
