REMARK  Name = 
REMARK  5 active torsions:
REMARK  status: ('A' for Active; 'I' for Inactive)
REMARK    1  A    between atoms: C_2  and  C_4
REMARK    2  A    between atoms: C_7  and  N_8
REMARK    3  A    between atoms: N_8  and  C_9
REMARK    4  A    between atoms: C_9  and  C_10
REMARK    5  A    between atoms: C_15  and  C_16
REMARK                            x       y       z     vdW  Elec       q    Type
REMARK                         _______ _______ _______ _____ _____    ______ ____
ROOT
ATOM      1  C   UNL     1       5.723  -5.173  -4.921  0.00  0.00    +0.000 A 
ATOM      2  C   UNL     1       6.882  -4.798  -5.605  0.00  0.00    +0.000 A 
ATOM      3  C   UNL     1       7.691  -5.774  -6.169  0.00  0.00    +0.000 A 
ATOM      4  F   UNL     1       8.806  -5.411  -6.816  0.00  0.00    +0.000 F 
ATOM      5  C   UNL     1       7.367  -7.125  -6.077  0.00  0.00    +0.000 A 
ATOM      6  C   UNL     1       6.211  -7.546  -5.399  0.00  0.00    +0.000 A 
ATOM      7  C   UNL     1       5.405  -6.542  -4.825  0.00  0.00    +0.000 A 
ENDROOT
BRANCH   6   8
ATOM      8  C   UNL     1       5.853  -8.979  -5.288  0.00  0.00    +0.000 A 
ATOM      9  C   UNL     1       4.521  -9.404  -5.218  0.00  0.00    +0.000 A 
ATOM     10  C   UNL     1       4.245 -10.759  -5.114  0.00  0.00    +0.000 A 
ATOM     11  N   UNL     1       5.190 -11.719  -5.082  0.00  0.00    +0.000 NA
ATOM     12  C   UNL     1       6.468 -11.317  -5.154  0.00  0.00    +0.000 A 
ATOM     13  N   UNL     1       7.437 -12.314  -5.184  0.00  0.00    +0.000 N 
ATOM     14  C   UNL     1       6.834  -9.982  -5.257  0.00  0.00    +0.000 A 
ATOM     15  H   UNL     1       6.959 -13.200  -5.038  0.00  0.00    +0.000 HD
ATOM     16  H   UNL     1       8.167 -12.155  -4.501  0.00  0.00    +0.000 HD
ENDBRANCH   6   8
BRANCH   1  17
ATOM     17  C   UNL     1       4.812  -4.137  -4.303  0.00  0.00    +0.000 C 
BRANCH  17  18
ATOM     18  N   UNL     1       4.695  -4.406  -2.874  0.00  0.00    +0.000 N 
ATOM     19  H   UNL     1       5.604  -4.469  -2.426  0.00  0.00    +0.000 HD
BRANCH  18  23
ATOM     20  C   UNL     1       2.196  -1.946  -0.730  0.00  0.00    +0.000 A 
ATOM     21  C   UNL     1       2.409  -1.734  -2.083  0.00  0.00    +0.000 A 
ATOM     22  N   UNL     1       3.240  -2.514  -2.825  0.00  0.00    +0.000 NA
ATOM     23  C   UNL     1       3.866  -3.518  -2.177  0.00  0.00    +0.000 A 
ATOM     24  C   UNL     1       3.638  -3.715  -0.806  0.00  0.00    +0.000 A 
ATOM     25  N   UNL     1       2.815  -2.942  -0.043  0.00  0.00    +0.000 NA
BRANCH  20  27
ATOM     26  N   UNL     1       1.116  -1.315   1.349  0.00  0.00    +0.000 N 
ATOM     27  C   UNL     1       1.250  -1.068   0.009  0.00  0.00    +0.000 C 
ATOM     28  O   UNL     1       0.628  -0.170  -0.542  0.00  0.00    +0.000 OA
ATOM     29  H   UNL     1       0.508  -0.724   1.898  0.00  0.00    +0.000 HD
ATOM     30  H   UNL     1       1.682  -2.025   1.799  0.00  0.00    +0.000 HD
ENDBRANCH  20  27
ENDBRANCH  18  23
ENDBRANCH  17  18
ENDBRANCH   1  17
TORSDOF 5
