REMARK  Name = 
REMARK  7 active torsions:
REMARK  status: ('A' for Active; 'I' for Inactive)
REMARK    1  A    between atoms: C_1  and  N_2
REMARK    2  A    between atoms: N_2  and  C_3
REMARK    3  A    between atoms: C_3  and  C_4
REMARK    4  A    between atoms: C_7  and  C_8
REMARK    5  A    between atoms: C_8  and  N_9
REMARK    6  A    between atoms: C_10  and  C_12
REMARK    7  A    between atoms: C_24  and  C_26
REMARK                            x       y       z     vdW  Elec       q    Type
REMARK                         _______ _______ _______ _____ _____    ______ ____
ROOT
ATOM      1  C   UNL     1       2.167   2.156   1.272  0.00  0.00    +0.000 A 
ATOM      2  C   UNL     1       1.182   1.731   2.174  0.00  0.00    +0.000 A 
ATOM      3  C   UNL     1       0.346   2.657   2.803  0.00  0.00    +0.000 A 
ATOM      4  C   UNL     1       0.473   4.026   2.536  0.00  0.00    +0.000 A 
ATOM      5  C   UNL     1       1.499   4.454   1.683  0.00  0.00    +0.000 A 
ATOM      6  C   UNL     1       2.331   3.529   1.047  0.00  0.00    +0.000 A 
ENDROOT
BRANCH   1   7
ATOM      7  C   UNL     1       3.044   1.147   0.575  0.00  0.00    +0.000 C 
BRANCH   7   9
ATOM      8  C   UNL     1       1.306   0.937  -1.273  0.00  0.00    +0.000 C 
ATOM      9  N   UNL     1       2.626   0.632  -0.732  0.00  0.00    +0.000 N 
ATOM     10  C   UNL     1       3.437  -0.199  -1.524  0.00  0.00    +0.000 C 
ATOM     11  O   UNL     1       3.066  -0.552  -2.646  0.00  0.00    +0.000 OA
BRANCH  10  12
ATOM     12  C   UNL     1       4.748  -0.602  -1.064  0.00  0.00    +0.000 A 
ATOM     13  C   UNL     1       5.325  -0.861   0.165  0.00  0.00    +0.000 A 
ATOM     14  N   UNL     1       6.652  -1.189   0.046  0.00  0.00    +0.000 NA
ATOM     15  C   UNL     1       6.884  -1.200  -1.244  0.00  0.00    +0.000 A 
ATOM     16  N   UNL     1       5.761  -0.900  -1.953  0.00  0.00    +0.000 N 
ATOM     17  H   UNL     1       5.670  -0.873  -2.960  0.00  0.00    +0.000 HD
ENDBRANCH  10  12
ENDBRANCH   7   9
ENDBRANCH   1   7
BRANCH   4  18
ATOM     18  C   UNL     1      -0.478   5.025   3.146  0.00  0.00    +0.000 C 
BRANCH  18  19
ATOM     19  N   UNL     1       0.003   5.541   4.399  0.00  0.00    +0.000 N 
ATOM     20  C   UNL     1      -0.731   6.434   5.139  0.00  0.00    +0.000 C 
ATOM     21  O   UNL     1      -1.802   6.890   4.736  0.00  0.00    +0.000 OA
ATOM     22  H   UNL     1       0.885   5.178   4.753  0.00  0.00    +0.000 HD
BRANCH  20  23
ATOM     23  C   UNL     1      -0.169   6.818   6.436  0.00  0.00    +0.000 A 
ATOM     24  C   UNL     1      -0.766   7.749   7.283  0.00  0.00    +0.000 A 
ATOM     25  N   UNL     1      -0.010   7.880   8.421  0.00  0.00    +0.000 N 
ATOM     26  C   UNL     1       1.075   7.062   8.328  0.00  0.00    +0.000 A 
ATOM     27  N   UNL     1       2.024   6.971   9.288  0.00  0.00    +0.000 NA
ATOM     28  C   UNL     1       2.973   6.140   8.981  0.00  0.00    +0.000 A 
ATOM     29  N   UNL     1       3.038   5.405   7.818  0.00  0.00    +0.000 N 
ATOM     30  C   UNL     1       2.076   5.463   6.832  0.00  0.00    +0.000 A 
ATOM     31  O   UNL     1       2.143   4.787   5.812  0.00  0.00    +0.000 OA
ATOM     32  C   UNL     1       1.008   6.392   7.124  0.00  0.00    +0.000 A 
ATOM     33  H   UNL     1      -0.208   8.483   9.207  0.00  0.00    +0.000 HD
ATOM     34  H   UNL     1       3.808   4.778   7.643  0.00  0.00    +0.000 HD
ENDBRANCH  20  23
ENDBRANCH  18  19
ENDBRANCH   4  18
TORSDOF 6
