REMARK  Name = 
REMARK  7 active torsions:
REMARK  status: ('A' for Active; 'I' for Inactive)
REMARK    1  A    between atoms: C_2  and  C_20
REMARK    2  A    between atoms: N_3  and  C_4
REMARK    3  A    between atoms: C_4  and  C_5
REMARK    4  A    between atoms: C_8  and  C_9
REMARK    5  A    between atoms: C_9  and  C_10
REMARK    6  A    between atoms: C_10  and  O_11
REMARK    7  A    between atoms: C_10  and  C_12
REMARK                            x       y       z     vdW  Elec       q    Type
REMARK                         _______ _______ _______ _____ _____    ______ ____
ROOT
ATOM      1  C   UNL     1       2.259  -1.084  -2.264  0.00  0.00    +0.000 C 
ENDROOT
BRANCH   1   2
ATOM      2  C   UNL     1       3.237  -1.341  -3.384  0.00  0.00    +0.000 A 
ATOM      3  C   UNL     1       3.509  -2.639  -3.800  0.00  0.00    +0.000 A 
ATOM      4  N   UNL     1       4.344  -2.925  -4.830  0.00  0.00    +0.000 NA
ATOM      5  C   UNL     1       4.893  -1.858  -5.459  0.00  0.00    +0.000 A 
ATOM      6  C   UNL     1       4.592  -0.555  -5.065  0.00  0.00    +0.000 A 
ATOM      7  N   UNL     1       3.767  -0.269  -4.031  0.00  0.00    +0.000 NA
BRANCH   5   8
ATOM      8  C   UNL     1       5.825  -2.128  -6.612  0.00  0.00    +0.000 C 
BRANCH   8   9
ATOM      9  C   UNL     1       5.077  -2.148  -7.944  0.00  0.00    +0.000 C 
BRANCH   9  10
ATOM     10  C   UNL     1       6.045  -2.530  -9.055  0.00  0.00    +0.000 A 
ATOM     11  N   UNL     1       6.200  -3.831  -9.368  0.00  0.00    +0.000 NA
ATOM     12  C   UNL     1       7.070  -4.110 -10.358  0.00  0.00    +0.000 A 
ATOM     13  C   UNL     1       7.794  -3.150 -11.027  0.00  0.00    +0.000 A 
ATOM     14  C   UNL     1       7.572  -1.853 -10.632  0.00  0.00    +0.000 A 
ATOM     15  N   UNL     1       6.708  -1.512  -9.654  0.00  0.00    +0.000 NA
ENDBRANCH   9  10
BRANCH   9  16
ATOM     16  O   UNL     1       4.547  -0.826  -8.190  0.00  0.00    +0.000 OA
ATOM     17  H   UNL     1       5.163  -0.418  -8.831  0.00  0.00    +0.000 HD
ENDBRANCH   9  16
ENDBRANCH   8   9
ENDBRANCH   5   8
ENDBRANCH   1   2
BRANCH   1  20
ATOM     18  O   UNL     1       0.314  -3.175  -2.312  0.00  0.00    +0.000 OA
ATOM     19  C   UNL     1       0.094  -2.104  -2.870  0.00  0.00    +0.000 C 
ATOM     20  N   UNL     1       0.916  -1.000  -2.781  0.00  0.00    +0.000 N 
ATOM     21  H   UNL     1       0.782  -0.257  -3.453  0.00  0.00    +0.000 HD
BRANCH  19  22
ATOM     22  C   UNL     1      -0.934  -1.928  -3.889  0.00  0.00    +0.000 A 
ATOM     23  C   UNL     1      -1.247  -2.908  -4.814  0.00  0.00    +0.000 A 
ATOM     24  S   UNL     1      -2.026  -2.246  -6.194  0.00  0.00    +0.000 S 
ATOM     25  C   UNL     1      -2.069  -0.691  -5.495  0.00  0.00    +0.000 A 
ATOM     26  N   UNL     1      -2.463   0.415  -6.182  0.00  0.00    +0.000 NA
ATOM     27  C   UNL     1      -2.476   1.499  -5.476  0.00  0.00    +0.000 A 
ATOM     28  N   UNL     1      -2.192   1.571  -4.134  0.00  0.00    +0.000 N 
ATOM     29  C   UNL     1      -1.808   0.478  -3.396  0.00  0.00    +0.000 A 
ATOM     30  O   UNL     1      -1.632   0.538  -2.185  0.00  0.00    +0.000 OA
ATOM     31  C   UNL     1      -1.644  -0.722  -4.185  0.00  0.00    +0.000 A 
ATOM     32  H   UNL     1      -2.309   2.432  -3.621  0.00  0.00    +0.000 HD
ENDBRANCH  19  22
ENDBRANCH   1  20
TORSDOF 7
