REMARK  Name = 
REMARK  7 active torsions:
REMARK  status: ('A' for Active; 'I' for Inactive)
REMARK    1  A    between atoms: C_1  and  C_2
REMARK    2  A    between atoms: C_2  and  C_3
REMARK    3  A    between atoms: C_2  and  C_4
REMARK    4  A    between atoms: C_2  and  C_18
REMARK    5  A    between atoms: C_5  and  C_6
REMARK    6  A    between atoms: C_8  and  C_9
REMARK    7  A    between atoms: C_21  and  C_22
REMARK                            x       y       z     vdW  Elec       q    Type
REMARK                         _______ _______ _______ _____ _____    ______ ____
ROOT
ATOM      1  C   UNL     1       2.956  -0.892  -1.037  0.00  0.00    +0.000 C 
ATOM      2  C   UNL     1       2.696  -2.213  -1.053  0.00  0.00    +0.000 C 
ENDROOT
BRANCH   2   3
ATOM      3  C   UNL     1       3.219  -3.134  -2.068  0.00  0.00    +0.000 A 
ATOM      4  C   UNL     1       2.920  -4.493  -1.987  0.00  0.00    +0.000 A 
ATOM      5  C   UNL     1       3.446  -5.379  -2.937  0.00  0.00    +0.000 A 
ATOM      6  C   UNL     1       4.250  -4.826  -3.944  0.00  0.00    +0.000 A 
ATOM      7  C   UNL     1       4.488  -3.462  -3.955  0.00  0.00    +0.000 A 
ATOM      8  N   UNL     1       3.993  -2.613  -3.039  0.00  0.00    +0.000 NA
BRANCH   5   9
ATOM      9  C   UNL     1       3.185  -6.827  -2.865  0.00  0.00    +0.000 A 
ATOM     10  C   UNL     1       2.010  -7.377  -2.373  0.00  0.00    +0.000 A 
ATOM     11  N   UNL     1       1.754  -8.701  -2.277  0.00  0.00    +0.000 NA
ATOM     12  C   UNL     1       2.729  -9.513  -2.708  0.00  0.00    +0.000 A 
ATOM     13  N   UNL     1       3.907  -9.122  -3.211  0.00  0.00    +0.000 NA
ATOM     14  C   UNL     1       4.102  -7.787  -3.271  0.00  0.00    +0.000 A 
ENDBRANCH   5   9
ENDBRANCH   2   3
BRANCH   1  16
ATOM     15  C   UNL     1       1.603  -0.529   1.077  0.00  0.00    +0.000 C 
ATOM     16  C   UNL     1       2.461   0.140  -0.021  0.00  0.00    +0.000 C 
ATOM     17  C   UNL     1       3.695   0.778   0.646  0.00  0.00    +0.000 C 
BRANCH  16  18
ATOM     18  C   UNL     1       1.652   1.258  -0.699  0.00  0.00    +0.000 A 
ATOM     19  N   UNL     1       1.928   1.597  -1.981  0.00  0.00    +0.000 NA
ATOM     20  C   UNL     1       1.170   2.584  -2.511  0.00  0.00    +0.000 A 
ATOM     21  C   UNL     1       0.191   3.232  -1.798  0.00  0.00    +0.000 A 
ATOM     22  N   UNL     1      -0.037   2.900  -0.517  0.00  0.00    +0.000 NA
ATOM     23  N   UNL     1       0.713   1.901   0.039  0.00  0.00    +0.000 NA
BRANCH  21  24
ATOM     24  C   UNL     1      -0.617   4.258  -2.363  0.00  0.00    +0.000 C 
ATOM     25  N   UNL     1      -1.260   5.091  -2.858  0.00  0.00    +0.000 NA
ENDBRANCH  21  24
ENDBRANCH  16  18
ENDBRANCH   1  16
TORSDOF 5
