REMARK  Name = 
REMARK  8 active torsions:
REMARK  status: ('A' for Active; 'I' for Inactive)
REMARK    1  A    between atoms: C_1  and  C_2
REMARK    2  A    between atoms: C_2  and  C_3
REMARK    3  A    between atoms: C_2  and  C_22
REMARK    4  A    between atoms: C_3  and  N_4
REMARK    5  A    between atoms: C_9  and  C_10
REMARK    6  A    between atoms: C_13  and  O_14
REMARK    7  A    between atoms: O_14  and  C_15
REMARK    8  A    between atoms: C_25  and  C_26
REMARK                            x       y       z     vdW  Elec       q    Type
REMARK                         _______ _______ _______ _____ _____    ______ ____
ROOT
ATOM      1  N   UNL     1       2.654  -2.434  -0.213  0.00  0.00    +0.000 N 
ATOM      2  C   UNL     1       3.107  -3.539  -0.924  0.00  0.00    +0.000 A 
ATOM      3  N   UNL     1       4.246  -3.459  -1.625  0.00  0.00    +0.000 NA
ATOM      4  C   UNL     1       4.606  -4.541  -2.327  0.00  0.00    +0.000 A 
ATOM      5  C   UNL     1       3.876  -5.697  -2.350  0.00  0.00    +0.000 A 
ATOM      6  C   UNL     1       2.725  -5.710  -1.584  0.00  0.00    +0.000 A 
ATOM      7  N   UNL     1       2.331  -4.624  -0.881  0.00  0.00    +0.000 NA
ATOM      8  H   UNL     1       1.658  -2.577  -0.081  0.00  0.00    +0.000 HD
ENDROOT
BRANCH   6   9
ATOM      9  C   UNL     1       1.853  -6.896  -1.487  0.00  0.00    +0.000 A 
ATOM     10  C   UNL     1       2.353  -8.199  -1.660  0.00  0.00    +0.000 A 
ATOM     11  C   UNL     1       1.520  -9.322  -1.587  0.00  0.00    +0.000 A 
ATOM     12  C   UNL     1       0.173  -9.175  -1.281  0.00  0.00    +0.000 A 
ATOM     13  C   UNL     1      -0.350  -7.891  -1.129  0.00  0.00    +0.000 A 
ATOM     14  C   UNL     1       0.479  -6.767  -1.223  0.00  0.00    +0.000 A 
BRANCH  12  15
ATOM     15  O   UNL     1      -0.731 -10.183  -1.152  0.00  0.00    +0.000 OA
BRANCH  15  16
ATOM     16  C   UNL     1      -0.302 -11.456  -0.688  0.00  0.00    +0.000 C 
ATOM     17  F   UNL     1       0.979 -11.500  -0.266  0.00  0.00    +0.000 F 
ATOM     18  F   UNL     1      -1.087 -11.820   0.351  0.00  0.00    +0.000 F 
ATOM     19  F   UNL     1      -0.462 -12.365  -1.675  0.00  0.00    +0.000 F 
ENDBRANCH  15  16
ENDBRANCH  12  15
ENDBRANCH   6   9
BRANCH   1  20
ATOM     20  C   UNL     1       3.022  -1.165  -0.827  0.00  0.00    +0.000 C 
BRANCH  20  22
ATOM     21  C   UNL     1       3.237   0.026   1.398  0.00  0.00    +0.000 C 
ATOM     22  C   UNL     1       2.561   0.039   0.019  0.00  0.00    +0.000 C 
BRANCH  22  23
ATOM     23  C   UNL     1       1.045   0.186   0.063  0.00  0.00    +0.000 A 
ATOM     24  C   UNL     1       0.384   0.893  -0.959  0.00  0.00    +0.000 A 
ATOM     25  C   UNL     1      -0.997   1.085  -0.923  0.00  0.00    +0.000 A 
ATOM     26  C   UNL     1      -1.760   0.554   0.122  0.00  0.00    +0.000 A 
ATOM     27  C   UNL     1      -1.123  -0.172   1.129  0.00  0.00    +0.000 A 
ATOM     28  C   UNL     1       0.265  -0.356   1.096  0.00  0.00    +0.000 A 
BRANCH  26  29
ATOM     29  C   UNL     1      -3.220   0.829   0.141  0.00  0.00    +0.000 C 
ATOM     30  N   UNL     1      -4.027  -0.056   0.801  0.00  0.00    +0.000 N 
ATOM     31  O   UNL     1      -3.698   1.801  -0.430  0.00  0.00    +0.000 OA
ATOM     32  H   UNL     1      -3.713  -0.954   1.140  0.00  0.00    +0.000 HD
ATOM     33  H   UNL     1      -5.024   0.107   0.737  0.00  0.00    +0.000 HD
ENDBRANCH  26  29
ENDBRANCH  22  23
ENDBRANCH  20  22
ENDBRANCH   1  20
TORSDOF 7
