REMARK  Name = 
REMARK  6 active torsions:
REMARK  status: ('A' for Active; 'I' for Inactive)
REMARK    1  A    between atoms: C_2  and  C_25
REMARK    2  A    between atoms: N_3  and  C_4
REMARK    3  A    between atoms: C_4  and  C_5
REMARK    4  A    between atoms: C_8  and  C_9
REMARK    5  A    between atoms: C_9  and  N_10
REMARK    6  A    between atoms: C_11  and  C_13
REMARK                            x       y       z     vdW  Elec       q    Type
REMARK                         _______ _______ _______ _____ _____    ______ ____
ROOT
ATOM      1  C   UNL     1       3.291   3.377  -1.215  0.00  0.00    +0.000 A 
ATOM      2  C   UNL     1       2.869   4.702  -1.082  0.00  0.00    +0.000 A 
ATOM      3  C   UNL     1       3.722   5.746  -1.431  0.00  0.00    +0.000 A 
ATOM      4  C   UNL     1       5.006   5.448  -1.875  0.00  0.00    +0.000 A 
ATOM      5  N   UNL     1       5.440   4.169  -2.022  0.00  0.00    +0.000 NA
ATOM      6  C   UNL     1       4.580   3.174  -1.695  0.00  0.00    +0.000 A 
ENDROOT
BRANCH   1   7
ATOM      7  C   UNL     1       2.382   2.233  -0.885  0.00  0.00    +0.000 C 
BRANCH   7  10
ATOM      8  O   UNL     1       0.812   0.227   0.243  0.00  0.00    +0.000 OA
ATOM      9  C   UNL     1       1.618   0.813   0.956  0.00  0.00    +0.000 C 
ATOM     10  N   UNL     1       2.445   1.816   0.493  0.00  0.00    +0.000 N 
ATOM     11  H   UNL     1       3.091   2.229   1.158  0.00  0.00    +0.000 HD
BRANCH   9  12
ATOM     12  C   UNL     1       1.794   0.508   2.377  0.00  0.00    +0.000 A 
ATOM     13  C   UNL     1       1.132  -0.471   3.095  0.00  0.00    +0.000 A 
ATOM     14  N   UNL     1       1.615  -0.381   4.372  0.00  0.00    +0.000 N 
ATOM     15  C   UNL     1       2.534   0.629   4.394  0.00  0.00    +0.000 A 
ATOM     16  N   UNL     1       2.675   1.186   3.210  0.00  0.00    +0.000 NA
ATOM     17  H   UNL     1       1.341  -0.955   5.160  0.00  0.00    +0.000 HD
ENDBRANCH   9  12
ENDBRANCH   7  10
ENDBRANCH   1   7
BRANCH   4  18
ATOM     18  C   UNL     1       5.974   6.558  -2.207  0.00  0.00    +0.000 C 
BRANCH  18  19
ATOM     19  N   UNL     1       5.921   6.952  -3.596  0.00  0.00    +0.000 N 
ATOM     20  C   UNL     1       5.195   8.027  -4.033  0.00  0.00    +0.000 C 
ATOM     21  O   UNL     1       4.522   8.716  -3.274  0.00  0.00    +0.000 OA
ATOM     22  H   UNL     1       6.262   6.264  -4.261  0.00  0.00    +0.000 HD
BRANCH  20  23
ATOM     23  C   UNL     1       5.324   8.359  -5.459  0.00  0.00    +0.000 A 
ATOM     24  C   UNL     1       5.095   9.659  -5.887  0.00  0.00    +0.000 A 
ATOM     25  S   UNL     1       5.318   9.877  -7.564  0.00  0.00    +0.000 S 
ATOM     26  C   UNL     1       5.688   8.233  -7.784  0.00  0.00    +0.000 A 
ATOM     27  N   UNL     1       5.955   7.734  -9.021  0.00  0.00    +0.000 NA
ATOM     28  C   UNL     1       6.192   6.466  -9.047  0.00  0.00    +0.000 A 
ATOM     29  N   UNL     1       6.198   5.651  -7.945  0.00  0.00    +0.000 N 
ATOM     30  C   UNL     1       5.990   6.120  -6.670  0.00  0.00    +0.000 A 
ATOM     31  O   UNL     1       6.106   5.380  -5.699  0.00  0.00    +0.000 OA
ATOM     32  C   UNL     1       5.674   7.537  -6.590  0.00  0.00    +0.000 A 
ATOM     33  H   UNL     1       6.418   4.670  -8.025  0.00  0.00    +0.000 HD
ENDBRANCH  20  23
ENDBRANCH  18  19
ENDBRANCH   4  18
TORSDOF 6
