REMARK  Name = 
REMARK  12 active torsions:
REMARK  status: ('A' for Active; 'I' for Inactive)
REMARK    1  A    between atoms: C_1  and  C_2
REMARK    2  A    between atoms: C_2  and  O_3
REMARK    3  A    between atoms: O_3  and  C_4
REMARK    4  A    between atoms: C_4  and  C_5
REMARK    5  A    between atoms: C_4  and  C_22
REMARK    6  A    between atoms: C_5  and  N_6
REMARK    7  A    between atoms: N_6  and  C_7
REMARK    8  A    between atoms: C_7  and  C_8
REMARK    9  A    between atoms: C_11  and  C_12
REMARK   10  A    between atoms: C_12  and  N_13
REMARK   11  A    between atoms: N_13  and  C_14
REMARK   12  A    between atoms: C_14  and  C_15
REMARK                            x       y       z     vdW  Elec       q    Type
REMARK                         _______ _______ _______ _____ _____    ______ ____
ROOT
ATOM      1  N   UNL     1       7.287 -14.305  -8.062  0.00  0.00    +0.000 NA
ATOM      2  H   UNL     1       7.243 -14.146  -7.051  0.00  0.00    +0.000 HD
ENDROOT
BRANCH   1   3
ATOM      3  C   UNL     1       8.421 -15.214  -8.275  0.00  0.00    +0.000 C 
BRANCH   3   4
ATOM      4  C   UNL     1       8.355 -16.480  -7.357  0.00  0.00    +0.000 C 
BRANCH   4   5
ATOM      5  C   UNL     1       7.240 -17.434  -7.765  0.00  0.00    +0.000 A 
ATOM      6  C   UNL     1       7.511 -18.610  -8.450  0.00  0.00    +0.000 A 
ATOM      7  S   UNL     1       6.114 -19.377  -9.054  0.00  0.00    +0.000 S 
ATOM      8  C   UNL     1       5.100 -18.211  -8.344  0.00  0.00    +0.000 A 
ATOM      9  N   UNL     1       3.754 -18.246  -8.543  0.00  0.00    +0.000 NA
ATOM     10  C   UNL     1       3.105 -17.317  -7.922  0.00  0.00    +0.000 A 
ATOM     11  N   UNL     1       3.674 -16.391  -7.087  0.00  0.00    +0.000 N 
ATOM     12  C   UNL     1       5.021 -16.374  -6.782  0.00  0.00    +0.000 A 
ATOM     13  O   UNL     1       5.441 -15.694  -5.853  0.00  0.00    +0.000 OA
ATOM     14  C   UNL     1       5.812 -17.304  -7.577  0.00  0.00    +0.000 A 
ATOM     15  H   UNL     1       3.094 -15.773  -6.543  0.00  0.00    +0.000 HD
ENDBRANCH   4   5
BRANCH   4  16
ATOM     16  O   UNL     1       8.323 -16.047  -5.989  0.00  0.00    +0.000 OA
BRANCH  16  18
ATOM     17  C   UNL     1       8.830 -16.479  -3.693  0.00  0.00    +0.000 C 
ATOM     18  C   UNL     1       8.655 -17.085  -5.072  0.00  0.00    +0.000 C 
ENDBRANCH  16  18
ENDBRANCH   4  16
ENDBRANCH   3   4
ENDBRANCH   1   3
BRANCH   1  19
ATOM     19  C   UNL     1       7.422 -13.031  -8.767  0.00  0.00    +0.000 C 
BRANCH  19  20
ATOM     20  C   UNL     1       6.216 -12.142  -8.566  0.00  0.00    +0.000 A 
ATOM     21  C   UNL     1       5.492 -12.118  -7.368  0.00  0.00    +0.000 A 
ATOM     22  C   UNL     1       4.391 -11.284  -7.229  0.00  0.00    +0.000 A 
ATOM     23  C   UNL     1       4.023 -10.469  -8.295  0.00  0.00    +0.000 A 
ATOM     24  N   UNL     1       4.722 -10.440  -9.460  0.00  0.00    +0.000 NA
ATOM     25  C   UNL     1       5.795 -11.265  -9.563  0.00  0.00    +0.000 A 
BRANCH  23  26
ATOM     26  C   UNL     1       2.782  -9.602  -8.175  0.00  0.00    +0.000 C 
BRANCH  26  27
ATOM     27  N   UNL     1       1.777  -9.819  -9.230  0.00  0.00    +0.000 NA
ATOM     28  H   UNL     1       2.256  -9.658 -10.121  0.00  0.00    +0.000 HD
BRANCH  27  29
ATOM     29  C   UNL     1       1.257 -11.197  -9.234  0.00  0.00    +0.000 C 
BRANCH  29  30
ATOM     30  C   UNL     1       0.227 -11.386 -10.377  0.00  0.00    +0.000 C 
ATOM     31  C   UNL     1      -0.358 -12.791 -10.419  0.00  0.00    +0.000 C 
ATOM     32  C   UNL     1      -1.517 -12.731  -9.446  0.00  0.00    +0.000 C 
ATOM     33  C   UNL     1      -1.960 -11.275  -9.460  0.00  0.00    +0.000 C 
ATOM     34  N   UNL     1      -0.958 -10.528 -10.223  0.00  0.00    +0.000 NA
ATOM     35  H   UNL     1      -0.676  -9.680  -9.726  0.00  0.00    +0.000 HD
ENDBRANCH  29  30
ENDBRANCH  27  29
ENDBRANCH  26  27
ENDBRANCH  23  26
ENDBRANCH  19  20
ENDBRANCH   1  19
TORSDOF 11
