REMARK  Name = 
REMARK  11 active torsions:
REMARK  status: ('A' for Active; 'I' for Inactive)
REMARK    1  A    between atoms: C_1  and  O_2
REMARK    2  A    between atoms: O_2  and  C_3
REMARK    3  A    between atoms: C_10  and  C_11
REMARK    4  A    between atoms: N_13  and  C_14
REMARK    5  A    between atoms: C_14  and  C_15
REMARK    6  A    between atoms: C_18  and  C_19
REMARK    7  A    between atoms: C_19  and  N_20
REMARK    8  A    between atoms: N_20  and  CA_21
REMARK    9  A    between atoms: CA_21  and  C_22
REMARK   10  A    between atoms: CA_21  and  C_24
REMARK   11  A    between atoms: C_22  and  O_23
REMARK                            x       y       z     vdW  Elec       q    Type
REMARK                         _______ _______ _______ _____ _____    ______ ____
ROOT
ATOM      1  C   UNL     1      -1.731   5.650  -8.715  0.00  0.00    +0.000 A 
ATOM      2  C   UNL     1      -2.884   4.878  -8.515  0.00  0.00    +0.000 A 
ATOM      3  C   UNL     1      -2.995   4.023  -7.407  0.00  0.00    +0.000 A 
ATOM      4  C   UNL     1      -1.989   3.975  -6.434  0.00  0.00    +0.000 A 
ATOM      5  C   UNL     1      -0.909   4.862  -6.562  0.00  0.00    +0.000 A 
ATOM      6  C   UNL     1      -0.773   5.680  -7.693  0.00  0.00    +0.000 A 
ENDROOT
BRANCH   1   7
ATOM      7  C   UNL     1      -1.511   6.387 -10.016  0.00  0.00    +0.000 C 
BRANCH   7  10
ATOM      8  C   UNL     1      -1.918   8.598 -11.045  0.00  0.00    +0.000 C 
ATOM      9  O   UNL     1      -1.360   8.263 -12.095  0.00  0.00    +0.000 OA
ATOM     10  N   UNL     1      -2.025   7.730  -9.991  0.00  0.00    +0.000 N 
ATOM     11  H   UNL     1      -2.602   7.985  -9.194  0.00  0.00    +0.000 HD
BRANCH   8  19
ATOM     12  C   UNL     1      -3.524  10.165  -8.439  0.00  0.00    +0.000 A 
ATOM     13  N   UNL     1      -4.038  11.031  -7.546  0.00  0.00    +0.000 NA
ATOM     14  C   UNL     1      -4.174  12.307  -7.910  0.00  0.00    +0.000 A 
ATOM     15  N   UNL     1      -3.873  12.835  -9.093  0.00  0.00    +0.000 NA
ATOM     16  C   UNL     1      -3.352  11.942  -9.951  0.00  0.00    +0.000 A 
ATOM     17  S   UNL     1      -2.924  12.432 -11.519  0.00  0.00    +0.000 S 
ATOM     18  C   UNL     1      -2.358  10.879 -11.905  0.00  0.00    +0.000 A 
ATOM     19  C   UNL     1      -2.461   9.957 -10.864  0.00  0.00    +0.000 A 
ATOM     20  C   UNL     1      -3.110  10.592  -9.712  0.00  0.00    +0.000 A 
BRANCH  12  22
ATOM     21  C   UNL     1      -3.893   8.558  -6.768  0.00  0.00    +0.000 C 
ATOM     22  O   UNL     1      -3.449   8.833  -8.092  0.00  0.00    +0.000 OA
ENDBRANCH  12  22
ENDBRANCH   8  19
ENDBRANCH   7  10
ENDBRANCH   1   7
BRANCH   4  23
ATOM     23  C   UNL     1      -2.102   3.081  -5.211  0.00  0.00    +0.000 C 
BRANCH  23  24
ATOM     24  N   UNL     1      -2.275   1.657  -5.522  0.00  0.00    +0.000 NA
ATOM     25  H   UNL     1      -1.449   1.374  -6.060  0.00  0.00    +0.000 HD
BRANCH  24  26
ATOM     26  CA  UNL     1      -2.289   0.750  -4.321  0.00  0.00    +0.000 C 
BRANCH  26  27
ATOM     27  C   UNL     1      -1.056   0.887  -3.411  0.00  0.00    +0.000 A 
ATOM     28  C   UNL     1      -1.150   0.997  -2.024  0.00  0.00    +0.000 A 
ATOM     29  C   UNL     1      -0.007   1.290  -1.278  0.00  0.00    +0.000 A 
ATOM     30  C   UNL     1       1.220   1.390  -1.917  0.00  0.00    +0.000 A 
ATOM     31  C   UNL     1       1.254   1.170  -3.282  0.00  0.00    +0.000 A 
ATOM     32  N   UNL     1       0.155   0.941  -4.038  0.00  0.00    +0.000 NA
ENDBRANCH  26  27
BRANCH  26  33
ATOM     33  C   UNL     1      -3.678   0.700  -3.613  0.00  0.00    +0.000 C 
BRANCH  33  34
ATOM     34  O   UNL     1      -3.986   1.821  -2.788  0.00  0.00    +0.000 OA
ATOM     35  H   UNL     1      -3.899   2.619  -3.329  0.00  0.00    +0.000 HD
ENDBRANCH  33  34
ENDBRANCH  26  33
ENDBRANCH  24  26
ENDBRANCH  23  24
ENDBRANCH   4  23
TORSDOF 10
