REMARK  Name = 
REMARK  4 active torsions:
REMARK  status: ('A' for Active; 'I' for Inactive)
REMARK    1  A    between atoms: C_2  and  C_5
REMARK    2  A    between atoms: C_12  and  C_13
REMARK    3  A    between atoms: C_13  and  O_14
REMARK    4  A    between atoms: O_14  and  C_15
REMARK                            x       y       z     vdW  Elec       q    Type
REMARK                         _______ _______ _______ _____ _____    ______ ____
ROOT
ATOM      1  C   UNL     1       3.972  -1.959  -0.566  0.00  0.00    +0.000 C 
ATOM      2  C   UNL     1       2.522  -2.417  -0.790  0.00  0.00    +0.000 C 
ATOM      3  N   UNL     1       2.325  -3.769  -0.284  0.00  0.00    +0.000 N 
ATOM      4  C   UNL     1       1.844  -4.773  -1.080  0.00  0.00    +0.000 A 
ATOM      5  N   UNL     1       1.679  -5.996  -0.552  0.00  0.00    +0.000 NA
ATOM      6  C   UNL     1       1.218  -6.969  -1.360  0.00  0.00    +0.000 A 
ATOM      7  C   UNL     1       0.927  -6.779  -2.686  0.00  0.00    +0.000 A 
ATOM      8  C   UNL     1       1.145  -5.510  -3.165  0.00  0.00    +0.000 A 
ATOM      9  N   UNL     1       1.579  -4.507  -2.367  0.00  0.00    +0.000 NA
ATOM     10  C   UNL     1       2.758  -4.012   1.086  0.00  0.00    +0.000 C 
ATOM     11  C   UNL     1       4.206  -3.525   1.252  0.00  0.00    +0.000 C 
ATOM     12  O   UNL     1       4.380  -2.163   0.817  0.00  0.00    +0.000 OA
ENDROOT
BRANCH   1  14
ATOM     13  F   UNL     1       4.333  -3.245  -2.586  0.00  0.00    +0.000 F 
ATOM     14  C   UNL     1       4.939  -2.511  -1.630  0.00  0.00    +0.000 C 
ATOM     15  F   UNL     1       5.925  -3.272  -1.102  0.00  0.00    +0.000 F 
ATOM     16  F   UNL     1       5.554  -1.481  -2.270  0.00  0.00    +0.000 F 
ENDBRANCH   1  14
BRANCH   8  17
ATOM     17  C   UNL     1       0.953  -5.199  -4.632  0.00  0.00    +0.000 C 
BRANCH  17  18
ATOM     18  O   UNL     1      -0.416  -4.882  -4.897  0.00  0.00    +0.000 OA
BRANCH  18  19
ATOM     19  C   UNL     1      -0.607  -4.498  -6.209  0.00  0.00    +0.000 A 
ATOM     20  C   UNL     1      -1.884  -4.120  -6.602  0.00  0.00    +0.000 A 
ATOM     21  N   UNL     1      -2.173  -3.726  -7.869  0.00  0.00    +0.000 NA
ATOM     22  C   UNL     1      -1.125  -3.721  -8.723  0.00  0.00    +0.000 A 
ATOM     23  C   UNL     1       0.149  -4.100  -8.333  0.00  0.00    +0.000 A 
ATOM     24  N   UNL     1       0.434  -4.503  -7.073  0.00  0.00    +0.000 NA
ENDBRANCH  18  19
ENDBRANCH  17  18
ENDBRANCH   8  17
TORSDOF 4
