REMARK  Name = 
REMARK  5 active torsions:
REMARK  status: ('A' for Active; 'I' for Inactive)
REMARK    1  A    between atoms: C_2  and  C_4
REMARK    2  A    between atoms: C_7  and  N_8
REMARK    3  A    between atoms: N_8  and  C_9
REMARK    4  A    between atoms: C_9  and  C_10
REMARK    5  A    between atoms: C_14  and  C_15
REMARK                            x       y       z     vdW  Elec       q    Type
REMARK                         _______ _______ _______ _____ _____    ______ ____
ROOT
ATOM      1  C   UNL     1       4.608  -6.067   0.821  0.00  0.00    +0.000 C 
ENDROOT
BRANCH   1   2
ATOM      2  C   UNL     1       5.447  -7.214   1.364  0.00  0.00    +0.000 A 
ATOM      3  C   UNL     1       6.643  -6.951   2.026  0.00  0.00    +0.000 A 
ATOM      4  C   UNL     1       7.379  -8.016   2.533  0.00  0.00    +0.000 A 
ATOM      5  C   UNL     1       6.896  -9.312   2.379  0.00  0.00    +0.000 A 
ATOM      6  C   UNL     1       5.679  -9.516   1.729  0.00  0.00    +0.000 A 
ATOM      7  N   UNL     1       4.959  -8.478   1.226  0.00  0.00    +0.000 NA
BRANCH   6   8
ATOM      8  C   UNL     1       5.091 -10.861   1.546  0.00  0.00    +0.000 A 
ATOM      9  C   UNL     1       4.320 -11.164   0.406  0.00  0.00    +0.000 A 
ATOM     10  C   UNL     1       3.747 -12.428   0.220  0.00  0.00    +0.000 A 
ATOM     11  C   UNL     1       3.931 -13.420   1.178  0.00  0.00    +0.000 A 
ATOM     12  C   UNL     1       4.688 -13.139   2.306  0.00  0.00    +0.000 A 
ATOM     13  F   UNL     1       4.866 -14.089   3.233  0.00  0.00    +0.000 F 
ATOM     14  C   UNL     1       5.263 -11.884   2.496  0.00  0.00    +0.000 A 
ENDBRANCH   6   8
ENDBRANCH   1   2
BRANCH   1  15
ATOM     15  N   UNL     1       3.698  -5.591   1.863  0.00  0.00    +0.000 N 
ATOM     16  H   UNL     1       3.141  -6.367   2.216  0.00  0.00    +0.000 HD
BRANCH  15  20
ATOM     17  C   UNL     1       1.242  -2.410   0.956  0.00  0.00    +0.000 A 
ATOM     18  C   UNL     1       2.128  -2.912   0.013  0.00  0.00    +0.000 A 
ATOM     19  N   UNL     1       2.956  -3.967   0.264  0.00  0.00    +0.000 NA
ATOM     20  C   UNL     1       2.861  -4.529   1.490  0.00  0.00    +0.000 A 
ATOM     21  C   UNL     1       1.958  -4.003   2.428  0.00  0.00    +0.000 A 
ATOM     22  N   UNL     1       1.131  -2.947   2.200  0.00  0.00    +0.000 NA
BRANCH  17  24
ATOM     23  N   UNL     1      -0.396  -0.765   1.646  0.00  0.00    +0.000 N 
ATOM     24  C   UNL     1       0.388  -1.237   0.627  0.00  0.00    +0.000 C 
ATOM     25  O   UNL     1       0.389  -0.715  -0.480  0.00  0.00    +0.000 OA
ATOM     26  H   UNL     1      -0.980   0.045   1.494  0.00  0.00    +0.000 HD
ATOM     27  H   UNL     1      -0.355  -1.202   2.562  0.00  0.00    +0.000 HD
ENDBRANCH  17  24
ENDBRANCH  15  20
ENDBRANCH   1  15
TORSDOF 5
