REMARK  Name = 
REMARK  10 active torsions:
REMARK  status: ('A' for Active; 'I' for Inactive)
REMARK    1  A    between atoms: C_1  and  C_2
REMARK    2  A    between atoms: C_2  and  C_3
REMARK    3  A    between atoms: C_2  and  C_4
REMARK    4  A    between atoms: C_2  and  C_5
REMARK    5  A    between atoms: C_9  and  C_10
REMARK    6  A    between atoms: C_10  and  N_11
REMARK    7  A    between atoms: C_15  and  C_16
REMARK    8  A    between atoms: C_16  and  C_17
REMARK    9  A    between atoms: C_20  and  C_21
REMARK   10  A    between atoms: N_23  and  O_24
REMARK                            x       y       z     vdW  Elec       q    Type
REMARK                         _______ _______ _______ _____ _____    ______ ____
ROOT
ATOM      1  C   UNL     1       2.925   1.285  -0.754  0.00  0.00    +0.000 A 
ATOM      2  C   UNL     1       3.595   1.322  -2.126  0.00  0.00    +0.000 A 
ATOM      3  N   UNL     1       3.900   2.345  -2.852  0.00  0.00    +0.000 NA
ATOM      4  C   UNL     1       3.557   3.540  -2.320  0.00  0.00    +0.000 A 
ATOM      5  C   UNL     1       3.669   4.809  -2.859  0.00  0.00    +0.000 A 
ATOM      6  C   UNL     1       3.113   5.638  -1.872  0.00  0.00    +0.000 A 
ATOM      7  N   UNL     1       2.671   4.969  -0.813  0.00  0.00    +0.000 NA
ATOM      8  N   UNL     1       2.979   3.662  -1.052  0.00  0.00    +0.000 N 
ATOM      9  C   UNL     1       2.700   2.525  -0.231  0.00  0.00    +0.000 A 
ENDROOT
BRANCH   1  11
ATOM     10  C   UNL     1       3.933  -0.983  -0.227  0.00  0.00    +0.000 C 
ATOM     11  C   UNL     1       2.615  -0.165  -0.312  0.00  0.00    +0.000 C 
ATOM     12  C   UNL     1       1.649  -0.798  -1.361  0.00  0.00    +0.000 C 
ATOM     13  C   UNL     1       1.926  -0.377   1.050  0.00  0.00    +0.000 C 
ENDBRANCH   1  11
BRANCH   5  14
ATOM     14  C   UNL     1       4.219   5.188  -4.175  0.00  0.00    +0.000 C 
BRANCH  14  15
ATOM     15  N   UNL     1       3.126   5.207  -5.145  0.00  0.00    +0.000 NA
ATOM     16  H   UNL     1       2.670   4.292  -5.111  0.00  0.00    +0.000 HD
ATOM     17  H   UNL     1       3.522   5.279  -6.078  0.00  0.00    +0.000 HD
ENDBRANCH  14  15
ENDBRANCH   5  14
BRANCH   9  18
ATOM     18  C   UNL     1       2.071   2.861   1.127  0.00  0.00    +0.000 C 
BRANCH  18  19
ATOM     19  C   UNL     1       2.969   3.616   2.101  0.00  0.00    +0.000 A 
ATOM     20  C   UNL     1       2.966   5.018   2.137  0.00  0.00    +0.000 A 
ATOM     21  C   UNL     1       3.937   5.729   2.848  0.00  0.00    +0.000 A 
ATOM     22  C   UNL     1       4.902   5.048   3.598  0.00  0.00    +0.000 A 
ATOM     23  C   UNL     1       4.781   3.660   3.722  0.00  0.00    +0.000 A 
ATOM     24  C   UNL     1       3.848   2.945   2.957  0.00  0.00    +0.000 A 
BRANCH  22  25
ATOM     25  C   UNL     1       6.045   5.828   4.197  0.00  0.00    +0.000 C 
ATOM     26  N   UNL     1       5.860   7.161   4.480  0.00  0.00    +0.000 N 
ATOM     27  N   UNL     1       7.251   5.386   4.456  0.00  0.00    +0.000 NA
ATOM     28  H   UNL     1       4.955   7.423   4.846  0.00  0.00    +0.000 HD
ATOM     29  H   UNL     1       6.636   7.541   5.011  0.00  0.00    +0.000 HD
BRANCH  27  30
ATOM     30  O   UNL     1       7.488   4.075   4.047  0.00  0.00    +0.000 OA
ATOM     31  H   UNL     1       8.430   3.957   4.263  0.00  0.00    +0.000 HD
ENDBRANCH  27  30
ENDBRANCH  22  25
ENDBRANCH  18  19
ENDBRANCH   9  18
TORSDOF 7
