REMARK  Name = 
REMARK  5 active torsions:
REMARK  status: ('A' for Active; 'I' for Inactive)
REMARK    1  A    between atoms: C_2  and  C_4
REMARK    2  A    between atoms: C_7  and  O_8
REMARK    3  A    between atoms: O_8  and  C_9
REMARK    4  A    between atoms: C_9  and  C_10
REMARK    5  A    between atoms: C_14  and  C_15
REMARK                            x       y       z     vdW  Elec       q    Type
REMARK                         _______ _______ _______ _____ _____    ______ ____
ROOT
ATOM      1  C   UNL     1       5.606   2.938  -6.589  0.00  0.00    +0.000 A 
ATOM      2  C   UNL     1       6.134   1.869  -7.313  0.00  0.00    +0.000 A 
ATOM      3  C   UNL     1       6.850   2.144  -8.466  0.00  0.00    +0.000 A 
ATOM      4  N   UNL     1       7.077   3.391  -8.933  0.00  0.00    +0.000 NA
ATOM      5  C   UNL     1       6.573   4.433  -8.227  0.00  0.00    +0.000 A 
ATOM      6  C   UNL     1       5.813   4.233  -7.076  0.00  0.00    +0.000 A 
ENDROOT
BRANCH   5   7
ATOM      7  C   UNL     1       6.896   5.780  -8.738  0.00  0.00    +0.000 A 
ATOM      8  C   UNL     1       7.118   6.003 -10.109  0.00  0.00    +0.000 A 
ATOM      9  C   UNL     1       7.434   7.275 -10.583  0.00  0.00    +0.000 A 
ATOM     10  F   UNL     1       7.636   7.456 -11.894  0.00  0.00    +0.000 F 
ATOM     11  C   UNL     1       7.543   8.356  -9.723  0.00  0.00    +0.000 A 
ATOM     12  C   UNL     1       7.334   8.148  -8.371  0.00  0.00    +0.000 A 
ATOM     13  F   UNL     1       7.440   9.176  -7.519  0.00  0.00    +0.000 F 
ATOM     14  C   UNL     1       7.017   6.886  -7.875  0.00  0.00    +0.000 A 
ENDBRANCH   5   7
BRANCH   1  15
ATOM     15  C   UNL     1       4.776   2.698  -5.352  0.00  0.00    +0.000 C 
BRANCH  15  16
ATOM     16  O   UNL     1       4.937   3.784  -4.436  0.00  0.00    +0.000 OA
BRANCH  16  20
ATOM     17  C   UNL     1       2.886   3.806  -0.807  0.00  0.00    +0.000 A 
ATOM     18  C   UNL     1       2.702   2.721  -1.672  0.00  0.00    +0.000 A 
ATOM     19  C   UNL     1       3.368   2.680  -2.900  0.00  0.00    +0.000 A 
ATOM     20  C   UNL     1       4.220   3.721  -3.273  0.00  0.00    +0.000 A 
ATOM     21  C   UNL     1       4.385   4.814  -2.417  0.00  0.00    +0.000 A 
ATOM     22  C   UNL     1       3.716   4.863  -1.190  0.00  0.00    +0.000 A 
BRANCH  17  24
ATOM     23  N   UNL     1       1.903   2.678   1.111  0.00  0.00    +0.000 N 
ATOM     24  C   UNL     1       2.202   3.870   0.509  0.00  0.00    +0.000 C 
ATOM     25  O   UNL     1       1.951   4.935   1.054  0.00  0.00    +0.000 OA
ATOM     26  H   UNL     1       1.544   2.736   2.055  0.00  0.00    +0.000 HD
ATOM     27  H   UNL     1       2.330   1.808   0.826  0.00  0.00    +0.000 HD
ENDBRANCH  17  24
ENDBRANCH  16  20
ENDBRANCH  15  16
ENDBRANCH   1  15
TORSDOF 5
