REMARK  Name = 
REMARK  9 active torsions:
REMARK  status: ('A' for Active; 'I' for Inactive)
REMARK    1  A    between atoms: C_1  and  C_2
REMARK    2  A    between atoms: C_2  and  C_3
REMARK    3  A    between atoms: C_2  and  C_17
REMARK    4  A    between atoms: C_3  and  N_4
REMARK    5  A    between atoms: N_4  and  C_5
REMARK    6  A    between atoms: C_8  and  C_9
REMARK    7  A    between atoms: C_13  and  N_14
REMARK    8  A    between atoms: C_22  and  O_23
REMARK    9  A    between atoms: O_23  and  C_24
REMARK                            x       y       z     vdW  Elec       q    Type
REMARK                         _______ _______ _______ _____ _____    ______ ____
ROOT
ATOM      1  N   UNL     1       2.397  -0.566  -2.374  0.00  0.00    +0.000 N 
ATOM      2  H   UNL     1       1.382  -0.694  -2.369  0.00  0.00    +0.000 HD
ENDROOT
BRANCH   1   3
ATOM      3  C   UNL     1       2.829  -0.273  -3.676  0.00  0.00    +0.000 A 
ATOM      4  N   UNL     1       4.002   0.400  -3.776  0.00  0.00    +0.000 NA
ATOM      5  C   UNL     1       4.519   0.672  -4.997  0.00  0.00    +0.000 A 
ATOM      6  C   UNL     1       3.920   0.301  -6.185  0.00  0.00    +0.000 A 
ATOM      7  C   UNL     1       2.726  -0.414  -6.098  0.00  0.00    +0.000 A 
ATOM      8  C   UNL     1       2.178  -0.713  -4.840  0.00  0.00    +0.000 A 
BRANCH   6   9
ATOM      9  C   UNL     1       4.466   0.642  -7.516  0.00  0.00    +0.000 C 
ATOM     10  N   UNL     1       5.617   1.370  -7.597  0.00  0.00    +0.000 N 
ATOM     11  O   UNL     1       3.888   0.287  -8.538  0.00  0.00    +0.000 OA
ATOM     12  H   UNL     1       6.163   1.724  -6.827  0.00  0.00    +0.000 HD
ATOM     13  H   UNL     1       5.942   1.592  -8.530  0.00  0.00    +0.000 HD
ENDBRANCH   6   9
BRANCH   8  14
ATOM     14  N   UNL     1       0.884  -1.398  -4.798  0.00  0.00    +0.000 N 
ATOM     15  O   UNL     1       0.329  -1.548  -3.698  0.00  0.00    +0.000 OA
ATOM     16  O   UNL     1       0.387  -1.754  -5.874  0.00  0.00    +0.000 OA
ENDBRANCH   8  14
ENDBRANCH   1   3
BRANCH   1  17
ATOM     17  C   UNL     1       2.840   0.410  -1.361  0.00  0.00    +0.000 C 
BRANCH  17  19
ATOM     18  C   UNL     1       0.826  -0.090   0.133  0.00  0.00    +0.000 C 
ATOM     19  C   UNL     1       2.356   0.022   0.058  0.00  0.00    +0.000 C 
BRANCH  19  20
ATOM     20  C   UNL     1       2.843   1.004   1.126  0.00  0.00    +0.000 A 
ATOM     21  C   UNL     1       2.436   2.347   1.103  0.00  0.00    +0.000 A 
ATOM     22  C   UNL     1       2.822   3.214   2.119  0.00  0.00    +0.000 A 
ATOM     23  F   UNL     1       2.417   4.489   2.090  0.00  0.00    +0.000 F 
ATOM     24  C   UNL     1       3.607   2.769   3.175  0.00  0.00    +0.000 A 
ATOM     25  C   UNL     1       4.016   1.439   3.227  0.00  0.00    +0.000 A 
ATOM     26  C   UNL     1       3.660   0.561   2.194  0.00  0.00    +0.000 A 
BRANCH  25  27
ATOM     27  O   UNL     1       4.778   1.124   4.327  0.00  0.00    +0.000 OA
BRANCH  27  28
ATOM     28  C   UNL     1       4.860  -0.246   4.778  0.00  0.00    +0.000 C 
ATOM     29  C   UNL     1       3.610  -0.900   5.387  0.00  0.00    +0.000 C 
ATOM     30  O   UNL     1       4.355  -1.339   6.551  0.00  0.00    +0.000 OA
ATOM     31  C   UNL     1       5.439  -0.445   6.193  0.00  0.00    +0.000 C 
ENDBRANCH  27  28
ENDBRANCH  25  27
ENDBRANCH  19  20
ENDBRANCH  17  19
ENDBRANCH   1  17
TORSDOF 8
