REMARK  Name = 
REMARK  10 active torsions:
REMARK  status: ('A' for Active; 'I' for Inactive)
REMARK    1  A    between atoms: C_1  and  O_2
REMARK    2  A    between atoms: O_2  and  C_3
REMARK    3  A    between atoms: C_5  and  C_6
REMARK    4  A    between atoms: C_14  and  C_15
REMARK    5  A    between atoms: C_15  and  C_16
REMARK    6  A    between atoms: C_15  and  C_17
REMARK    7  A    between atoms: C_15  and  C_18
REMARK    8  A    between atoms: C_18  and  N_19
REMARK    9  A    between atoms: N_19  and  C_20
REMARK   10  A    between atoms: C_23  and  C_24
REMARK                            x       y       z     vdW  Elec       q    Type
REMARK                         _______ _______ _______ _____ _____    ______ ____
ROOT
ATOM      1  C   UNL     1       6.606  -0.777   2.405  0.00  0.00    +0.000 C 
ATOM      2  C   UNL     1       7.251  -0.425   1.043  0.00  0.00    +0.000 C 
ATOM      3  C   UNL     1       6.626   0.495   3.291  0.00  0.00    +0.000 C 
ENDROOT
BRANCH   1   8
ATOM      4  C   UNL     1       3.299  -2.801   2.447  0.00  0.00    +0.000 A 
ATOM      5  C   UNL     1       2.407  -1.882   1.896  0.00  0.00    +0.000 A 
ATOM      6  C   UNL     1       2.842  -0.611   1.478  0.00  0.00    +0.000 A 
ATOM      7  C   UNL     1       4.213  -0.312   1.622  0.00  0.00    +0.000 A 
ATOM      8  C   UNL     1       5.142  -1.216   2.175  0.00  0.00    +0.000 A 
ATOM      9  C   UNL     1       4.654  -2.476   2.548  0.00  0.00    +0.000 A 
BRANCH   6  10
ATOM     10  C   UNL     1       1.894   0.420   0.988  0.00  0.00    +0.000 A 
ATOM     11  C   UNL     1       0.608   0.548   1.550  0.00  0.00    +0.000 A 
ATOM     12  C   UNL     1      -0.257   1.575   1.163  0.00  0.00    +0.000 A 
ATOM     13  C   UNL     1       0.155   2.496   0.212  0.00  0.00    +0.000 A 
ATOM     14  F   UNL     1      -0.659   3.501  -0.132  0.00  0.00    +0.000 F 
ATOM     15  C   UNL     1       1.406   2.393  -0.379  0.00  0.00    +0.000 A 
ATOM     16  C   UNL     1       2.263   1.354  -0.002  0.00  0.00    +0.000 A 
ENDBRANCH   6  10
BRANCH   4  18
ATOM     17  C   UNL     1       1.601  -4.336   3.104  0.00  0.00    +0.000 C 
ATOM     18  O   UNL     1       2.981  -4.034   2.949  0.00  0.00    +0.000 OA
ENDBRANCH   4  18
ENDBRANCH   1   8
BRANCH   1  19
ATOM     19  C   UNL     1       7.517  -1.864   3.073  0.00  0.00    +0.000 C 
BRANCH  19  20
ATOM     20  N   UNL     1       7.120  -2.148   4.457  0.00  0.00    +0.000 N 
ATOM     21  H   UNL     1       6.144  -1.938   4.655  0.00  0.00    +0.000 HD
BRANCH  20  22
ATOM     22  C   UNL     1       7.559  -3.302   5.104  0.00  0.00    +0.000 A 
ATOM     23  C   UNL     1       8.715  -4.000   4.741  0.00  0.00    +0.000 A 
ATOM     24  C   UNL     1       9.176  -5.082   5.502  0.00  0.00    +0.000 A 
ATOM     25  C   UNL     1       8.502  -5.467   6.664  0.00  0.00    +0.000 A 
ATOM     26  C   UNL     1       7.339  -4.790   7.035  0.00  0.00    +0.000 A 
ATOM     27  C   UNL     1       6.885  -3.713   6.265  0.00  0.00    +0.000 A 
BRANCH  25  28
ATOM     28  C   UNL     1       9.060  -6.585   7.470  0.00  0.00    +0.000 C 
ATOM     29  N   UNL     1       8.751  -6.610   8.806  0.00  0.00    +0.000 N 
ATOM     30  O   UNL     1       9.804  -7.425   6.981  0.00  0.00    +0.000 OA
ATOM     31  H   UNL     1       8.367  -5.813   9.291  0.00  0.00    +0.000 HD
ATOM     32  H   UNL     1       9.239  -7.303   9.358  0.00  0.00    +0.000 HD
ENDBRANCH  25  28
ENDBRANCH  20  22
ENDBRANCH  19  20
ENDBRANCH   1  19
TORSDOF 7
