REMARK  Name = 
REMARK  5 active torsions:
REMARK  status: ('A' for Active; 'I' for Inactive)
REMARK    1  A    between atoms: N_1  and  C_2
REMARK    2  A    between atoms: C_2  and  C_3
REMARK    3  A    between atoms: C_6  and  C_7
REMARK    4  A    between atoms: C_7  and  N_8
REMARK    5  A    between atoms: C_13  and  C_14
REMARK                            x       y       z     vdW  Elec       q    Type
REMARK                         _______ _______ _______ _____ _____    ______ ____
ROOT
ATOM      1  N   UNL     1       6.250   4.385   0.178  0.00  0.00    +0.000 N 
ATOM      2  C   UNL     1       6.869   5.273  -0.670  0.00  0.00    +0.000 A 
ATOM      3  C   UNL     1       8.228   5.127  -0.524  0.00  0.00    +0.000 A 
ATOM      4  C   UNL     1       8.447   4.191   0.521  0.00  0.00    +0.000 A 
ATOM      5  C   UNL     1       9.604   3.686   1.125  0.00  0.00    +0.000 A 
ATOM      6  C   UNL     1       9.410   2.810   2.182  0.00  0.00    +0.000 A 
ATOM      7  N   UNL     1       8.196   2.396   2.641  0.00  0.00    +0.000 NA
ATOM      8  C   UNL     1       7.079   2.858   2.030  0.00  0.00    +0.000 A 
ATOM      9  C   UNL     1       7.193   3.762   0.971  0.00  0.00    +0.000 A 
ENDROOT
BRANCH   6  10
ATOM     10  C   UNL     1      10.616   2.296   2.913  0.00  0.00    +0.000 C 
ATOM     11  N   UNL     1      10.358   1.492   3.987  0.00  0.00    +0.000 N 
ATOM     12  O   UNL     1      11.762   2.584   2.589  0.00  0.00    +0.000 OA
ATOM     13  H   UNL     1       9.397   1.304   4.249  0.00  0.00    +0.000 HD
ATOM     14  H   UNL     1      11.127   1.156   4.550  0.00  0.00    +0.000 HD
ENDBRANCH   6  10
BRANCH   1  15
ATOM     15  C   UNL     1       4.810   4.141   0.175  0.00  0.00    +0.000 C 
BRANCH  15  19
ATOM     16  C   UNL     1       2.808   1.018  -0.993  0.00  0.00    +0.000 C 
ATOM     17  C   UNL     1       4.341   1.105  -0.905  0.00  0.00    +0.000 C 
ATOM     18  C   UNL     1       4.911   2.319  -1.638  0.00  0.00    +0.000 C 
ATOM     19  C   UNL     1       4.281   3.651  -1.195  0.00  0.00    +0.000 C 
ATOM     20  C   UNL     1       2.745   3.566  -1.216  0.00  0.00    +0.000 C 
ATOM     21  C   UNL     1       2.191   2.337  -0.499  0.00  0.00    +0.000 C 
BRANCH  16  22
ATOM     22  C   UNL     1       2.368   0.595  -2.412  0.00  0.00    +0.000 C 
BRANCH  22  23
ATOM     23  N   UNL     1       0.922   0.436  -2.529  0.00  0.00    +0.000 NA
ATOM     24  H   UNL     1       0.704   0.005  -3.427  0.00  0.00    +0.000 HD
ATOM     25  H   UNL     1       0.478   1.353  -2.550  0.00  0.00    +0.000 HD
ENDBRANCH  22  23
ENDBRANCH  16  22
ENDBRANCH  15  19
ENDBRANCH   1  15
TORSDOF 5
