REMARK  Name = 
REMARK  5 active torsions:
REMARK  status: ('A' for Active; 'I' for Inactive)
REMARK    1  A    between atoms: C_2  and  C_3
REMARK    2  A    between atoms: C_11  and  C_12
REMARK    3  A    between atoms: C_12  and  N_13
REMARK    4  A    between atoms: N_13  and  C_14
REMARK    5  A    between atoms: C_17  and  C_18
REMARK                            x       y       z     vdW  Elec       q    Type
REMARK                         _______ _______ _______ _____ _____    ______ ____
ROOT
ATOM      1  C   UNL     1      -6.191  -1.392   1.098  0.00  0.00    +0.000 C 
ATOM      2  C   UNL     1      -6.995  -0.425   1.938  0.00  0.00    +0.000 C 
ATOM      3  C   UNL     1      -5.744  -1.002   2.512  0.00  0.00    +0.000 C 
ENDROOT
BRANCH   1  12
ATOM      4  C   UNL     1       0.907  -0.497  -0.247  0.00  0.00    +0.000 C 
ATOM      5  C   UNL     1       0.276  -0.044  -1.572  0.00  0.00    +0.000 C 
ATOM      6  C   UNL     1      -1.048   0.695  -1.363  0.00  0.00    +0.000 C 
ATOM      7  N   UNL     1      -1.891  -0.161  -0.550  0.00  0.00    +0.000 N 
ATOM      8  C   UNL     1      -3.249  -0.182  -0.781  0.00  0.00    +0.000 A 
ATOM      9  N   UNL     1      -3.745   0.333  -1.913  0.00  0.00    +0.000 NA
ATOM     10  C   UNL     1      -5.073   0.246  -2.104  0.00  0.00    +0.000 A 
ATOM     11  C   UNL     1      -5.933  -0.320  -1.199  0.00  0.00    +0.000 A 
ATOM     12  C   UNL     1      -5.361  -0.815  -0.048  0.00  0.00    +0.000 A 
ATOM     13  N   UNL     1      -4.024  -0.772   0.132  0.00  0.00    +0.000 NA
ATOM     14  C   UNL     1      -1.410  -0.461   0.792  0.00  0.00    +0.000 C 
ATOM     15  C   UNL     1      -0.097  -1.233   0.648  0.00  0.00    +0.000 C 
BRANCH   4  17
ATOM     16  N   UNL     1       1.938   1.562   1.034  0.00  0.00    +0.000 NA
ATOM     17  C   UNL     1       1.493   0.654   0.468  0.00  0.00    +0.000 C 
ENDBRANCH   4  17
ENDBRANCH   1  12
BRANCH   1  18
ATOM     18  N   UNL     1      -6.486  -2.834   0.973  0.00  0.00    +0.000 N 
ATOM     19  H   UNL     1      -5.642  -3.394   0.869  0.00  0.00    +0.000 HD
BRANCH  18  20
ATOM     20  C   UNL     1      -7.563  -3.394   0.259  0.00  0.00    +0.000 A 
ATOM     21  C   UNL     1      -8.677  -2.678  -0.174  0.00  0.00    +0.000 A 
ATOM     22  C   UNL     1      -9.754  -3.330  -0.793  0.00  0.00    +0.000 A 
ATOM     23  C   UNL     1      -9.739  -4.720  -0.968  0.00  0.00    +0.000 A 
ATOM     24  C   UNL     1      -8.645  -5.453  -0.506  0.00  0.00    +0.000 A 
ATOM     25  C   UNL     1      -7.579  -4.793   0.107  0.00  0.00    +0.000 A 
BRANCH  23  26
ATOM     26  C   UNL     1     -10.918  -5.380  -1.584  0.00  0.00    +0.000 C 
ATOM     27  N   UNL     1     -10.725  -6.594  -2.184  0.00  0.00    +0.000 N 
ATOM     28  O   UNL     1     -12.025  -4.850  -1.582  0.00  0.00    +0.000 OA
ATOM     29  H   UNL     1      -9.812  -6.976  -2.383  0.00  0.00    +0.000 HD
ATOM     30  H   UNL     1     -11.522  -7.000  -2.656  0.00  0.00    +0.000 HD
ENDBRANCH  23  26
ENDBRANCH  18  20
ENDBRANCH   1  18
TORSDOF 5
