REMARK  Name = 
REMARK  7 active torsions:
REMARK  status: ('A' for Active; 'I' for Inactive)
REMARK    1  A    between atoms: C_1  and  C_2
REMARK    2  A    between atoms: C_2  and  N_3
REMARK    3  A    between atoms: C_2  and  C_19
REMARK    4  A    between atoms: C_7  and  C_8
REMARK    5  A    between atoms: C_8  and  C_9
REMARK    6  A    between atoms: C_9  and  O_10
REMARK    7  A    between atoms: C_9  and  C_11
REMARK                            x       y       z     vdW  Elec       q    Type
REMARK                         _______ _______ _______ _____ _____    ______ ____
ROOT
ATOM      1  N   UNL     1       2.467  10.479  -4.023  0.00  0.00    +0.000 N 
ATOM      2  C   UNL     1       2.116   9.164  -3.713  0.00  0.00    +0.000 A 
ATOM      3  C   UNL     1       1.850   8.836  -2.372  0.00  0.00    +0.000 A 
ATOM      4  N   UNL     1       1.257   7.688  -1.951  0.00  0.00    +0.000 NA
ATOM      5  C   UNL     1       0.880   6.849  -2.933  0.00  0.00    +0.000 A 
ATOM      6  C   UNL     1       1.244   7.107  -4.255  0.00  0.00    +0.000 A 
ATOM      7  N   UNL     1       1.853   8.255  -4.666  0.00  0.00    +0.000 NA
ATOM      8  H   UNL     1       2.956  10.897  -3.238  0.00  0.00    +0.000 HD
ENDROOT
BRANCH   1  10
ATOM      9  C   UNL     1       4.380  10.032  -5.559  0.00  0.00    +0.000 C 
ATOM     10  C   UNL     1       3.131  10.878  -5.269  0.00  0.00    +0.000 C 
BRANCH  10  11
ATOM     11  C   UNL     1       2.366  11.131  -6.556  0.00  0.00    +0.000 A 
ATOM     12  C   UNL     1       1.205  10.519  -6.989  0.00  0.00    +0.000 A 
ATOM     13  S   UNL     1       0.836  10.883  -8.627  0.00  0.00    +0.000 S 
ATOM     14  C   UNL     1       2.234  11.850  -8.799  0.00  0.00    +0.000 A 
ATOM     15  N   UNL     1       2.636  12.343  -9.999  0.00  0.00    +0.000 NA
ATOM     16  C   UNL     1       3.772  12.971  -9.961  0.00  0.00    +0.000 A 
ATOM     17  N   UNL     1       4.483  13.243  -8.820  0.00  0.00    +0.000 N 
ATOM     18  C   UNL     1       4.033  12.878  -7.572  0.00  0.00    +0.000 A 
ATOM     19  O   UNL     1       4.588  13.276  -6.553  0.00  0.00    +0.000 OA
ATOM     20  C   UNL     1       2.873  12.009  -7.594  0.00  0.00    +0.000 A 
ATOM     21  H   UNL     1       5.319  13.805  -8.843  0.00  0.00    +0.000 HD
ENDBRANCH  10  11
ENDBRANCH   1  10
BRANCH   5  22
ATOM     22  C   UNL     1      -0.014   5.681  -2.607  0.00  0.00    +0.000 C 
BRANCH  22  23
ATOM     23  C   UNL     1      -0.889   5.746  -1.332  0.00  0.00    +0.000 C 
BRANCH  23  24
ATOM     24  C   UNL     1      -1.873   6.885  -1.087  0.00  0.00    +0.000 A 
ATOM     25  C   UNL     1      -2.632   6.861   0.105  0.00  0.00    +0.000 A 
ATOM     26  C   UNL     1      -3.436   7.938   0.483  0.00  0.00    +0.000 A 
ATOM     27  C   UNL     1      -3.498   9.069  -0.323  0.00  0.00    +0.000 A 
ATOM     28  C   UNL     1      -2.801   9.094  -1.529  0.00  0.00    +0.000 A 
ATOM     29  C   UNL     1      -2.012   8.003  -1.918  0.00  0.00    +0.000 A 
ENDBRANCH  23  24
BRANCH  23  30
ATOM     30  O   UNL     1      -1.621   4.500  -1.302  0.00  0.00    +0.000 OA
ATOM     31  H   UNL     1      -2.566   4.708  -1.401  0.00  0.00    +0.000 HD
ENDBRANCH  23  30
ENDBRANCH  22  23
ENDBRANCH   5  22
TORSDOF 6
