REMARK  Name = 
REMARK  10 active torsions:
REMARK  status: ('A' for Active; 'I' for Inactive)
REMARK    1  A    between atoms: C_1  and  C_2
REMARK    2  A    between atoms: C_4  and  S_5
REMARK    3  A    between atoms: S_5  and  C_6
REMARK    4  A    between atoms: C_11  and  N_12
REMARK    5  A    between atoms: N_12  and  C_13
REMARK    6  A    between atoms: C_13  and  C_14
REMARK    7  A    between atoms: C_14  and  C_17
REMARK    8  A    between atoms: C_21  and  C_22
REMARK    9  A    between atoms: C_22  and  C_23
REMARK   10  A    between atoms: N_25  and  C_26
REMARK                            x       y       z     vdW  Elec       q    Type
REMARK                         _______ _______ _______ _____ _____    ______ ____
ROOT
ATOM      1  C   UNL     1       2.931  -3.972  -0.098  0.00  0.00    +0.000 C 
ATOM      2  F   UNL     1       3.655  -4.331   1.006  0.00  0.00    +0.000 F 
ATOM      3  F   UNL     1       3.787  -4.147  -1.153  0.00  0.00    +0.000 F 
ENDROOT
BRANCH   1   4
ATOM      4  C   UNL     1       1.667  -4.806  -0.244  0.00  0.00    +0.000 A 
ATOM      5  C   UNL     1       1.127  -5.065  -1.512  0.00  0.00    +0.000 A 
ATOM      6  C   UNL     1      -0.066  -5.778  -1.640  0.00  0.00    +0.000 A 
ATOM      7  C   UNL     1      -0.715  -6.277  -0.509  0.00  0.00    +0.000 A 
ATOM      8  C   UNL     1      -0.160  -6.096   0.765  0.00  0.00    +0.000 A 
ATOM      9  C   UNL     1       1.015  -5.334   0.888  0.00  0.00    +0.000 A 
BRANCH   8  10
ATOM     10  C   UNL     1      -0.762  -6.787   1.968  0.00  0.00    +0.000 C 
BRANCH  10  11
ATOM     11  C   UNL     1      -1.702  -5.883   2.752  0.00  0.00    +0.000 C 
ATOM     12  C   UNL     1      -2.323  -6.566   3.993  0.00  0.00    +0.000 C 
ATOM     13  N   UNL     1      -3.671  -6.196   3.539  0.00  0.00    +0.000 NA
ATOM     14  C   UNL     1      -4.192  -5.084   4.331  0.00  0.00    +0.000 C 
ATOM     15  C   UNL     1      -3.151  -5.724   2.246  0.00  0.00    +0.000 C 
ENDBRANCH  10  11
ENDBRANCH   8  10
ENDBRANCH   1   4
BRANCH   1  16
ATOM     16  C   UNL     1       2.596  -2.455   0.000  0.00  0.00    +0.000 C 
BRANCH  16  17
ATOM     17  N   UNL     1       3.785  -1.589   0.141  0.00  0.00    +0.000 N 
ATOM     18  H   UNL     1       4.655  -1.988  -0.203  0.00  0.00    +0.000 HD
BRANCH  17  25
ATOM     19  C   UNL     1       6.267  -0.029   0.209  0.00  0.00    +0.000 C 
ATOM     20  C   UNL     1       4.893   0.574   0.353  0.00  0.00    +0.000 A 
ATOM     21  C   UNL     1       4.811   1.957   0.619  0.00  0.00    +0.000 A 
ATOM     22  C   UNL     1       3.569   2.566   0.768  0.00  0.00    +0.000 A 
ATOM     23  C   UNL     1       2.401   1.841   0.577  0.00  0.00    +0.000 A 
ATOM     24  C   UNL     1       2.481   0.469   0.316  0.00  0.00    +0.000 A 
ATOM     25  C   UNL     1       3.714  -0.200   0.219  0.00  0.00    +0.000 A 
BRANCH  22  26
ATOM     26  S   UNL     1       3.467   4.272   1.260  0.00  0.00    +0.000 S 
ATOM     27  C   UNL     1       3.359   4.159   3.027  0.00  0.00    +0.000 C 
ATOM     28  O   UNL     1       4.733   4.908   0.922  0.00  0.00    +0.000 OA
ATOM     29  O   UNL     1       2.215   4.798   0.758  0.00  0.00    +0.000 OA
ENDBRANCH  22  26
ENDBRANCH  17  25
ENDBRANCH  16  17
ENDBRANCH   1  16
TORSDOF 7
