REMARK  Name = 
REMARK  6 active torsions:
REMARK  status: ('A' for Active; 'I' for Inactive)
REMARK    1  A    between atoms: C_1  and  N_2
REMARK    2  A    between atoms: N_5  and  C_6
REMARK    3  A    between atoms: C_10  and  C_11
REMARK    4  A    between atoms: C_11  and  O_12
REMARK    5  A    between atoms: O_12  and  C_13
REMARK    6  A    between atoms: C_16  and  C_17
REMARK                            x       y       z     vdW  Elec       q    Type
REMARK                         _______ _______ _______ _____ _____    ______ ____
ROOT
ATOM      1  C   UNL     1      -3.050  -0.005   0.831  0.00  0.00    +0.000 A 
ATOM      2  C   UNL     1      -4.161   0.597   0.240  0.00  0.00    +0.000 A 
ATOM      3  N   UNL     1      -5.416   0.619   0.763  0.00  0.00    +0.000 NA
ATOM      4  C   UNL     1      -5.579  -0.003   1.949  0.00  0.00    +0.000 A 
ATOM      5  C   UNL     1      -4.564  -0.648   2.637  0.00  0.00    +0.000 A 
ATOM      6  C   UNL     1      -3.297  -0.653   2.047  0.00  0.00    +0.000 A 
ENDROOT
BRANCH   1  11
ATOM      7  C   UNL     1       1.972  -1.290  -1.198  0.00  0.00    +0.000 C 
ATOM      8  N   UNL     1       0.864  -0.431  -0.794  0.00  0.00    +0.000 NA
ATOM      9  C   UNL     1      -0.357  -0.756  -1.571  0.00  0.00    +0.000 C 
ATOM     10  C   UNL     1      -1.563   0.122  -1.161  0.00  0.00    +0.000 C 
ATOM     11  N   UNL     1      -1.789  -0.033   0.280  0.00  0.00    +0.000 N 
ATOM     12  C   UNL     1      -0.613   0.278   1.111  0.00  0.00    +0.000 C 
ATOM     13  C   UNL     1       0.580  -0.592   0.651  0.00  0.00    +0.000 C 
ENDBRANCH   1  11
BRANCH   5  14
ATOM     14  C   UNL     1      -4.806  -1.307   3.962  0.00  0.00    +0.000 C 
BRANCH  14  15
ATOM     15  O   UNL     1      -5.221  -2.661   3.773  0.00  0.00    +0.000 OA
BRANCH  15  16
ATOM     16  C   UNL     1      -5.525  -3.360   4.909  0.00  0.00    +0.000 A 
ATOM     17  C   UNL     1      -5.420  -2.886   6.216  0.00  0.00    +0.000 A 
ATOM     18  C   UNL     1      -5.785  -3.707   7.282  0.00  0.00    +0.000 A 
ATOM     19  C   UNL     1      -6.242  -4.988   7.008  0.00  0.00    +0.000 A 
ATOM     20  N   UNL     1      -6.351  -5.496   5.749  0.00  0.00    +0.000 NA
ATOM     21  C   UNL     1      -5.988  -4.664   4.738  0.00  0.00    +0.000 A 
BRANCH  19  22
ATOM     22  C   UNL     1      -6.656  -5.878   8.139  0.00  0.00    +0.000 C 
ATOM     23  N   UNL     1      -7.104  -7.122   7.787  0.00  0.00    +0.000 N 
ATOM     24  O   UNL     1      -6.609  -5.520   9.308  0.00  0.00    +0.000 OA
ATOM     25  H   UNL     1      -7.140  -7.381   6.805  0.00  0.00    +0.000 HD
ATOM     26  H   UNL     1      -7.410  -7.763   8.500  0.00  0.00    +0.000 HD
ENDBRANCH  19  22
ENDBRANCH  15  16
ENDBRANCH  14  15
ENDBRANCH   5  14
TORSDOF 5
