REMARK  Name = 
REMARK  7 active torsions:
REMARK  status: ('A' for Active; 'I' for Inactive)
REMARK    1  A    between atoms: C_1  and  C_2
REMARK    2  A    between atoms: C_2  and  N_3
REMARK    3  A    between atoms: C_2  and  C_12
REMARK    4  A    between atoms: C_4  and  C_6
REMARK    5  A    between atoms: C_15  and  C_16
REMARK    6  A    between atoms: C_16  and  N_17
REMARK    7  A    between atoms: C_18  and  C_20
REMARK                            x       y       z     vdW  Elec       q    Type
REMARK                         _______ _______ _______ _____ _____    ______ ____
ROOT
ATOM      1  C   UNL     1      -0.935  -1.178   3.507  0.00  0.00    +0.000 A 
ATOM      2  C   UNL     1       0.150  -1.509   4.336  0.00  0.00    +0.000 A 
ATOM      3  C   UNL     1       0.697  -0.568   5.216  0.00  0.00    +0.000 A 
ATOM      4  C   UNL     1       0.160   0.722   5.303  0.00  0.00    +0.000 A 
ATOM      5  C   UNL     1      -0.941   1.047   4.504  0.00  0.00    +0.000 A 
ATOM      6  C   UNL     1      -1.490   0.105   3.630  0.00  0.00    +0.000 A 
ENDROOT
BRANCH   1   8
ATOM      7  C   UNL     1      -2.100  -1.604   1.275  0.00  0.00    +0.000 C 
ATOM      8  C   UNL     1      -1.478  -2.217   2.539  0.00  0.00    +0.000 C 
BRANCH   8   9
ATOM      9  N   UNL     1      -2.453  -3.047   3.224  0.00  0.00    +0.000 N 
ATOM     10  C   UNL     1      -2.864  -4.273   2.741  0.00  0.00    +0.000 C 
ATOM     11  O   UNL     1      -2.305  -4.865   1.829  0.00  0.00    +0.000 OA
ATOM     12  H   UNL     1      -2.946  -2.634   4.005  0.00  0.00    +0.000 HD
BRANCH  10  13
ATOM     13  C   UNL     1      -4.142  -4.760   3.411  0.00  0.00    +0.000 C 
ATOM     14  C   UNL     1      -5.294  -3.839   2.982  0.00  0.00    +0.000 C 
ATOM     15  C   UNL     1      -6.616  -4.319   3.563  0.00  0.00    +0.000 C 
ATOM     16  C   UNL     1      -6.859  -5.790   3.242  0.00  0.00    +0.000 C 
ATOM     17  N   UNL     1      -5.742  -6.628   3.682  0.00  0.00    +0.000 NA
ATOM     18  C   UNL     1      -4.476  -6.213   3.056  0.00  0.00    +0.000 C 
ATOM     19  H   UNL     1      -5.934  -7.598   3.433  0.00  0.00    +0.000 HD
ENDBRANCH  10  13
ENDBRANCH   8   9
ENDBRANCH   1   8
BRANCH   4  20
ATOM     20  C   UNL     1       0.785   1.773   6.181  0.00  0.00    +0.000 C 
BRANCH  20  21
ATOM     21  N   UNL     1       1.786   2.518   5.458  0.00  0.00    +0.000 N 
ATOM     22  C   UNL     1       2.541   3.478   6.081  0.00  0.00    +0.000 C 
ATOM     23  O   UNL     1       2.428   3.711   7.282  0.00  0.00    +0.000 OA
ATOM     24  H   UNL     1       1.741   2.495   4.443  0.00  0.00    +0.000 HD
BRANCH  22  25
ATOM     25  C   UNL     1       3.536   4.178   5.257  0.00  0.00    +0.000 A 
ATOM     26  C   UNL     1       4.630   4.775   5.870  0.00  0.00    +0.000 A 
ATOM     27  S   UNL     1       5.709   5.515   4.777  0.00  0.00    +0.000 S 
ATOM     28  C   UNL     1       4.729   5.107   3.448  0.00  0.00    +0.000 A 
ATOM     29  N   UNL     1       5.074   5.480   2.186  0.00  0.00    +0.000 NA
ATOM     30  C   UNL     1       4.226   5.130   1.276  0.00  0.00    +0.000 A 
ATOM     31  N   UNL     1       3.069   4.429   1.515  0.00  0.00    +0.000 N 
ATOM     32  C   UNL     1       2.697   4.007   2.771  0.00  0.00    +0.000 A 
ATOM     33  O   UNL     1       1.678   3.347   2.945  0.00  0.00    +0.000 OA
ATOM     34  C   UNL     1       3.606   4.393   3.831  0.00  0.00    +0.000 A 
ATOM     35  H   UNL     1       2.456   4.176   0.756  0.00  0.00    +0.000 HD
ENDBRANCH  22  25
ENDBRANCH  20  21
ENDBRANCH   4  20
TORSDOF 6
