REMARK  Name = 
REMARK  6 active torsions:
REMARK  status: ('A' for Active; 'I' for Inactive)
REMARK    1  A    between atoms: C_2  and  C_19
REMARK    2  A    between atoms: N_3  and  C_4
REMARK    3  A    between atoms: C_4  and  C_5
REMARK    4  A    between atoms: C_8  and  C_9
REMARK    5  A    between atoms: C_9  and  N_10
REMARK    6  A    between atoms: N_10  and  C_11
REMARK                            x       y       z     vdW  Elec       q    Type
REMARK                         _______ _______ _______ _____ _____    ______ ____
ROOT
ATOM      1  C   UNL     1       2.184   2.188   1.250  0.00  0.00    +0.000 C 
ENDROOT
BRANCH   1   2
ATOM      2  C   UNL     1       3.191   3.196   1.737  0.00  0.00    +0.000 C 
ATOM      3  C   UNL     1       4.336   2.830   2.346  0.00  0.00    +0.000 C 
ATOM      4  C   UNL     1       5.312   3.806   2.945  0.00  0.00    +0.000 C 
ATOM      5  C   UNL     1       4.703   5.199   3.184  0.00  0.00    +0.000 C 
ATOM      6  C   UNL     1       3.938   5.625   1.918  0.00  0.00    +0.000 C 
ATOM      7  C   UNL     1       2.811   4.649   1.561  0.00  0.00    +0.000 C 
BRANCH   5   8
ATOM      8  C   UNL     1       3.786   5.243   4.427  0.00  0.00    +0.000 C 
BRANCH   8   9
ATOM      9  N   UNL     1       4.523   4.929   5.655  0.00  0.00    +0.000 NA
ATOM     10  H   UNL     1       5.270   5.609   5.793  0.00  0.00    +0.000 HD
BRANCH   9  11
ATOM     11  C   UNL     1       3.665   4.871   6.848  0.00  0.00    +0.000 C 
ATOM     12  C   UNL     1       2.988   6.210   7.166  0.00  0.00    +0.000 C 
ATOM     13  C   UNL     1       2.268   6.149   8.505  0.00  0.00    +0.000 C 
ATOM     14  O   UNL     1       3.161   5.762   9.545  0.00  0.00    +0.000 OA
ATOM     15  C   UNL     1       3.700   4.459   9.329  0.00  0.00    +0.000 C 
ATOM     16  C   UNL     1       4.516   4.421   8.044  0.00  0.00    +0.000 C 
ENDBRANCH   9  11
ENDBRANCH   8   9
ENDBRANCH   5   8
ENDBRANCH   1   2
BRANCH   1  19
ATOM     17  O   UNL     1       0.826   0.300  -0.268  0.00  0.00    +0.000 OA
ATOM     18  C   UNL     1       1.746   0.921  -0.793  0.00  0.00    +0.000 C 
ATOM     19  N   UNL     1       2.498   1.841  -0.107  0.00  0.00    +0.000 N 
ATOM     20  H   UNL     1       3.111   2.466  -0.618  0.00  0.00    +0.000 HD
BRANCH  18  21
ATOM     21  C   UNL     1       2.134   0.683  -2.187  0.00  0.00    +0.000 A 
ATOM     22  C   UNL     1       1.877  -0.545  -2.782  0.00  0.00    +0.000 A 
ATOM     23  S   UNL     1       2.397  -0.638  -4.404  0.00  0.00    +0.000 S 
ATOM     24  C   UNL     1       2.948   0.974  -4.377  0.00  0.00    +0.000 A 
ATOM     25  N   UNL     1       3.484   1.551  -5.486  0.00  0.00    +0.000 NA
ATOM     26  C   UNL     1       3.819   2.789  -5.336  0.00  0.00    +0.000 A 
ATOM     27  N   UNL     1       3.680   3.499  -4.169  0.00  0.00    +0.000 N 
ATOM     28  C   UNL     1       3.194   2.942  -3.012  0.00  0.00    +0.000 A 
ATOM     29  O   UNL     1       3.166   3.584  -1.965  0.00  0.00    +0.000 OA
ATOM     30  C   UNL     1       2.766   1.563  -3.140  0.00  0.00    +0.000 A 
ATOM     31  H   UNL     1       3.986   4.459  -4.110  0.00  0.00    +0.000 HD
ENDBRANCH  18  21
ENDBRANCH   1  19
TORSDOF 6
