REMARK  Name = 
REMARK  7 active torsions:
REMARK  status: ('A' for Active; 'I' for Inactive)
REMARK    1  A    between atoms: N_1  and  C_2
REMARK    2  A    between atoms: C_2  and  C_3
REMARK    3  A    between atoms: C_3  and  C_4
REMARK    4  A    between atoms: C_7  and  O_8
REMARK    5  A    between atoms: O_8  and  C_9
REMARK    6  A    between atoms: C_9  and  C_10
REMARK    7  A    between atoms: C_12  and  C_13
REMARK                            x       y       z     vdW  Elec       q    Type
REMARK                         _______ _______ _______ _____ _____    ______ ____
ROOT
ATOM      1  O   UNL     1       8.685  -1.230   0.888  0.00  0.00    +0.000 OA
ENDROOT
BRANCH   1   5
ATOM      2  C   UNL     1       4.562  -1.094   0.892  0.00  0.00    +0.000 A 
ATOM      3  C   UNL     1       5.291  -0.045   1.458  0.00  0.00    +0.000 A 
ATOM      4  C   UNL     1       6.683  -0.088   1.452  0.00  0.00    +0.000 A 
ATOM      5  C   UNL     1       7.306  -1.198   0.896  0.00  0.00    +0.000 A 
ATOM      6  N   UNL     1       6.632  -2.215   0.324  0.00  0.00    +0.000 NA
ATOM      7  C   UNL     1       5.284  -2.142   0.333  0.00  0.00    +0.000 A 
BRANCH   2   8
ATOM      8  C   UNL     1       3.057  -1.091   0.855  0.00  0.00    +0.000 C 
BRANCH   8   9
ATOM      9  C   UNL     1       2.517  -0.417  -0.411  0.00  0.00    +0.000 C 
BRANCH   9  10
ATOM     10  N   UNL     1       1.056  -0.433  -0.429  0.00  0.00    +0.000 NA
ATOM     11  H   UNL     1       0.724   0.047  -1.266  0.00  0.00    +0.000 HD
ATOM     12  H   UNL     1       0.694   0.097   0.362  0.00  0.00    +0.000 HD
ENDBRANCH   9  10
ENDBRANCH   8   9
ENDBRANCH   2   8
ENDBRANCH   1   5
BRANCH   1  13
ATOM     13  C   UNL     1       9.174  -2.579   0.843  0.00  0.00    +0.000 C 
BRANCH  13  14
ATOM     14  C   UNL     1      10.686  -2.581   0.754  0.00  0.00    +0.000 A 
ATOM     15  C   UNL     1      11.319  -2.051  -0.368  0.00  0.00    +0.000 A 
ATOM     16  C   UNL     1      12.717  -2.067  -0.441  0.00  0.00    +0.000 A 
ATOM     17  C   UNL     1      13.435  -2.629   0.619  0.00  0.00    +0.000 A 
ATOM     18  C   UNL     1      12.731  -3.145   1.692  0.00  0.00    +0.000 A 
ATOM     19  N   UNL     1      11.383  -3.136   1.779  0.00  0.00    +0.000 NA
BRANCH  16  20
ATOM     20  C   UNL     1      13.441  -1.484  -1.625  0.00  0.00    +0.000 C 
ATOM     21  F   UNL     1      12.610  -0.981  -2.578  0.00  0.00    +0.000 F 
ATOM     22  F   UNL     1      14.269  -0.461  -1.274  0.00  0.00    +0.000 F 
ATOM     23  F   UNL     1      14.226  -2.398  -2.259  0.00  0.00    +0.000 F 
ENDBRANCH  16  20
ENDBRANCH  13  14
ENDBRANCH   1  13
TORSDOF 7
