REMARK  Name = 
REMARK  8 active torsions:
REMARK  status: ('A' for Active; 'I' for Inactive)
REMARK    1  A    between atoms: C_1  and  C_2
REMARK    2  A    between atoms: C_2  and  N_3
REMARK    3  A    between atoms: C_2  and  C_17
REMARK    4  A    between atoms: C_4  and  C_6
REMARK    5  A    between atoms: N_12  and  C_13
REMARK    6  A    between atoms: C_20  and  O_21
REMARK    7  A    between atoms: O_21  and  C_22
REMARK    8  A    between atoms: C_22  and  C_23
REMARK                            x       y       z     vdW  Elec       q    Type
REMARK                         _______ _______ _______ _____ _____    ______ ____
ROOT
ATOM      1  C   UNL     1       0.908   0.142  -0.002  0.00  0.00    +0.000 C 
ATOM      2  C   UNL     1       2.436   0.095  -0.020  0.00  0.00    +0.000 C 
ENDROOT
BRANCH   2   3
ATOM      3  C   UNL     1       2.948  -1.195   0.590  0.00  0.00    +0.000 A 
ATOM      4  C   UNL     1       3.164  -1.381   1.962  0.00  0.00    +0.000 A 
ATOM      5  C   UNL     1       3.686  -2.586   2.432  0.00  0.00    +0.000 A 
ATOM      6  C   UNL     1       3.952  -3.587   1.517  0.00  0.00    +0.000 A 
ATOM      7  N   UNL     1       3.717  -3.467   0.192  0.00  0.00    +0.000 NA
ATOM      8  C   UNL     1       3.223  -2.283  -0.235  0.00  0.00    +0.000 A 
BRANCH   6   9
ATOM      9  O   UNL     1       4.496  -4.756   2.013  0.00  0.00    +0.000 OA
BRANCH   9  10
ATOM     10  C   UNL     1       4.723  -5.734   0.991  0.00  0.00    +0.000 C 
BRANCH  10  11
ATOM     11  C   UNL     1       5.339  -6.985   1.627  0.00  0.00    +0.000 C 
ATOM     12  C   UNL     1       5.625  -8.062   0.599  0.00  0.00    +0.000 C 
ATOM     13  C   UNL     1       4.301  -8.790   0.486  0.00  0.00    +0.000 C 
ATOM     14  O   UNL     1       3.626  -8.631   1.740  0.00  0.00    +0.000 OA
ATOM     15  C   UNL     1       4.359  -7.695   2.545  0.00  0.00    +0.000 C 
ENDBRANCH  10  11
ENDBRANCH   9  10
ENDBRANCH   6   9
ENDBRANCH   2   3
BRANCH   2  16
ATOM     16  N   UNL     1       2.982   1.247   0.671  0.00  0.00    +0.000 N 
ATOM     17  C   UNL     1       3.246   2.450   0.073  0.00  0.00    +0.000 C 
ATOM     18  O   UNL     1       3.177   2.620  -1.140  0.00  0.00    +0.000 OA
ATOM     19  H   UNL     1       2.838   1.256   1.671  0.00  0.00    +0.000 HD
BRANCH  17  20
ATOM     20  C   UNL     1       3.673   3.522   0.984  0.00  0.00    +0.000 A 
ATOM     21  C   UNL     1       4.496   4.542   0.529  0.00  0.00    +0.000 A 
ATOM     22  S   UNL     1       4.902   5.676   1.739  0.00  0.00    +0.000 S 
ATOM     23  C   UNL     1       3.957   4.864   2.899  0.00  0.00    +0.000 A 
ATOM     24  N   UNL     1       3.845   5.337   4.167  0.00  0.00    +0.000 NA
ATOM     25  C   UNL     1       3.078   4.634   4.936  0.00  0.00    +0.000 A 
ATOM     26  N   UNL     1       2.406   3.488   4.567  0.00  0.00    +0.000 N 
ATOM     27  C   UNL     1       1.585   2.762   5.513  0.00  0.00    +0.000 C 
ATOM     28  C   UNL     1       2.525   2.963   3.286  0.00  0.00    +0.000 A 
ATOM     29  O   UNL     1       1.993   1.907   2.955  0.00  0.00    +0.000 OA
ATOM     30  C   UNL     1       3.361   3.733   2.381  0.00  0.00    +0.000 A 
ENDBRANCH  17  20
ENDBRANCH   2  16
TORSDOF 6
