REMARK  Name = 
REMARK  8 active torsions:
REMARK  status: ('A' for Active; 'I' for Inactive)
REMARK    1  A    between atoms: N_1  and  C_2
REMARK    2  A    between atoms: C_2  and  C_3
REMARK    3  A    between atoms: C_3  and  C_4
REMARK    4  A    between atoms: C_4  and  C_5
REMARK    5  A    between atoms: C_6  and  C_7
REMARK    6  A    between atoms: C_10  and  C_11
REMARK    7  A    between atoms: C_11  and  N_12
REMARK    8  A    between atoms: C_17  and  C_18
REMARK                            x       y       z     vdW  Elec       q    Type
REMARK                         _______ _______ _______ _____ _____    ______ ____
ROOT
ATOM      1  C   UNL     1       5.852   1.430   5.230  0.00  0.00    +0.000 A 
ATOM      2  C   UNL     1       5.787   2.738   5.682  0.00  0.00    +0.000 A 
ATOM      3  C   UNL     1       6.252   3.074   6.960  0.00  0.00    +0.000 A 
ATOM      4  C   UNL     1       6.882   2.111   7.748  0.00  0.00    +0.000 A 
ATOM      5  N   UNL     1       6.909   0.807   7.353  0.00  0.00    +0.000 NA
ATOM      6  C   UNL     1       6.372   0.497   6.127  0.00  0.00    +0.000 A 
ENDROOT
BRANCH   1   8
ATOM      7  C   UNL     1       4.954   0.783   2.712  0.00  0.00    +0.000 C 
ATOM      8  C   UNL     1       5.389   1.092   3.901  0.00  0.00    +0.000 C 
BRANCH   7   9
ATOM      9  C   UNL     1       4.447   0.422   1.325  0.00  0.00    +0.000 C 
BRANCH   9  10
ATOM     10  C   UNL     1       2.923   0.419   1.314  0.00  0.00    +0.000 C 
BRANCH  10  11
ATOM     11  C   UNL     1       2.398   0.058  -0.069  0.00  0.00    +0.000 C 
BRANCH  11  12
ATOM     12  N   UNL     1       0.942   0.059  -0.067  0.00  0.00    +0.000 NA
ATOM     13  H   UNL     1       0.600  -0.148  -1.004  0.00  0.00    +0.000 HD
ATOM     14  H   UNL     1       0.599   0.991   0.165  0.00  0.00    +0.000 HD
ENDBRANCH  11  12
ENDBRANCH  10  11
ENDBRANCH   9  10
ENDBRANCH   7   9
ENDBRANCH   1   8
BRANCH   4  15
ATOM     15  C   UNL     1       7.650   2.521   9.027  0.00  0.00    +0.000 C 
BRANCH  15  16
ATOM     16  N   UNL     1       6.797   2.611  10.210  0.00  0.00    +0.000 N 
ATOM     17  C   UNL     1       7.347   2.823  11.467  0.00  0.00    +0.000 A 
ATOM     18  C   UNL     1       6.508   2.754  12.564  0.00  0.00    +0.000 A 
ATOM     19  C   UNL     1       7.091   2.768  13.813  0.00  0.00    +0.000 A 
ATOM     20  N   UNL     1       8.379   3.078  14.026  0.00  0.00    +0.000 NA
ATOM     21  C   UNL     1       9.086   3.315  12.899  0.00  0.00    +0.000 A 
ATOM     22  N   UNL     1       8.646   3.146  11.629  0.00  0.00    +0.000 NA
ATOM     23  H   UNL     1       5.907   2.131  10.169  0.00  0.00    +0.000 HD
BRANCH  21  24
ATOM     24  C   UNL     1      10.471   3.922  13.064  0.00  0.00    +0.000 C 
ATOM     25  N   UNL     1      10.897   4.175  14.361  0.00  0.00    +0.000 N 
ATOM     26  O   UNL     1      11.181   4.213  12.138  0.00  0.00    +0.000 OA
ATOM     27  H   UNL     1      10.321   3.979  15.166  0.00  0.00    +0.000 HD
ATOM     28  H   UNL     1      11.807   4.603  14.471  0.00  0.00    +0.000 HD
ENDBRANCH  21  24
ENDBRANCH  15  16
ENDBRANCH   4  15
TORSDOF 8
