REMARK  Name = 
REMARK  7 active torsions:
REMARK  status: ('A' for Active; 'I' for Inactive)
REMARK    1  A    between atoms: C_1  and  O_2
REMARK    2  A    between atoms: O_2  and  C_3
REMARK    3  A    between atoms: C_5  and  C_6
REMARK    4  A    between atoms: C_11  and  O_12
REMARK    5  A    between atoms: O_12  and  C_13
REMARK    6  A    between atoms: C_13  and  C_14
REMARK    7  A    between atoms: C_19  and  C_20
REMARK                            x       y       z     vdW  Elec       q    Type
REMARK                         _______ _______ _______ _____ _____    ______ ____
ROOT
ATOM      1  O   UNL     1       4.561  -1.459  -1.288  0.00  0.00    +0.000 OA
ENDROOT
BRANCH   1   7
ATOM      2  C   UNL     1       3.056   0.529  -1.040  0.00  0.00    +0.000 A 
ATOM      3  C   UNL     1       2.842   1.857  -1.435  0.00  0.00    +0.000 A 
ATOM      4  C   UNL     1       3.708   2.513  -2.318  0.00  0.00    +0.000 A 
ATOM      5  C   UNL     1       4.821   1.826  -2.807  0.00  0.00    +0.000 A 
ATOM      6  C   UNL     1       5.045   0.500  -2.418  0.00  0.00    +0.000 A 
ATOM      7  C   UNL     1       4.175  -0.162  -1.539  0.00  0.00    +0.000 A 
BRANCH   4   8
ATOM      8  C   UNL     1       3.377   3.926  -2.669  0.00  0.00    +0.000 C 
ATOM      9  N   UNL     1       4.211   4.610  -3.506  0.00  0.00    +0.000 N 
ATOM     10  O   UNL     1       2.377   4.478  -2.223  0.00  0.00    +0.000 OA
ATOM     11  H   UNL     1       5.056   4.248  -3.916  0.00  0.00    +0.000 HD
ATOM     12  H   UNL     1       3.950   5.564  -3.719  0.00  0.00    +0.000 HD
ENDBRANCH   4   8
BRANCH   2  14
ATOM     13  C   UNL     1       0.901   0.386  -0.024  0.00  0.00    +0.000 C 
ATOM     14  O   UNL     1       2.237  -0.093  -0.135  0.00  0.00    +0.000 OA
ENDBRANCH   2  14
ENDBRANCH   1   7
BRANCH   1  15
ATOM     15  C   UNL     1       3.721  -2.243  -0.443  0.00  0.00    +0.000 C 
BRANCH  15  16
ATOM     16  C   UNL     1       4.224  -3.666  -0.307  0.00  0.00    +0.000 A 
ATOM     17  C   UNL     1       4.000  -4.356   0.892  0.00  0.00    +0.000 A 
ATOM     18  C   UNL     1       4.358  -5.694   1.009  0.00  0.00    +0.000 A 
ATOM     19  C   UNL     1       4.917  -6.358  -0.080  0.00  0.00    +0.000 A 
ATOM     20  F   UNL     1       5.236  -7.651   0.087  0.00  0.00    +0.000 F 
ATOM     21  C   UNL     1       5.130  -5.722  -1.315  0.00  0.00    +0.000 A 
ATOM     22  C   UNL     1       4.787  -4.356  -1.395  0.00  0.00    +0.000 A 
BRANCH  21  23
ATOM     23  C   UNL     1       5.633  -6.451  -2.498  0.00  0.00    +0.000 A 
ATOM     24  C   UNL     1       6.449  -5.845  -3.465  0.00  0.00    +0.000 A 
ATOM     25  C   UNL     1       6.869  -6.555  -4.590  0.00  0.00    +0.000 A 
ATOM     26  C   UNL     1       6.467  -7.871  -4.726  0.00  0.00    +0.000 A 
ATOM     27  N   UNL     1       5.683  -8.504  -3.832  0.00  0.00    +0.000 NA
ATOM     28  C   UNL     1       5.291  -7.784  -2.751  0.00  0.00    +0.000 A 
ENDBRANCH  21  23
ENDBRANCH  15  16
ENDBRANCH   1  15
TORSDOF 6
