REMARK  Name = 
REMARK  6 active torsions:
REMARK  status: ('A' for Active; 'I' for Inactive)
REMARK    1  A    between atoms: C_2  and  C_4
REMARK    2  A    between atoms: N_8  and  C_9
REMARK    3  A    between atoms: C_9  and  C_10
REMARK    4  A    between atoms: C_10  and  C_13
REMARK    5  A    between atoms: C_18  and  O_19
REMARK    6  A    between atoms: O_19  and  C_20
REMARK                            x       y       z     vdW  Elec       q    Type
REMARK                         _______ _______ _______ _____ _____    ______ ____
ROOT
ATOM      1  C   UNL     1       5.981  -1.381  -7.136  0.00  0.00    +0.000 C 
ATOM      2  F   UNL     1       7.259  -1.187  -6.702  0.00  0.00    +0.000 F 
ATOM      3  F   UNL     1       5.823  -2.735  -7.214  0.00  0.00    +0.000 F 
ENDROOT
BRANCH   1   4
ATOM      4  C   UNL     1       5.717  -0.700  -8.467  0.00  0.00    +0.000 A 
ATOM      5  C   UNL     1       6.368   0.493  -8.810  0.00  0.00    +0.000 A 
ATOM      6  C   UNL     1       6.034   1.166  -9.989  0.00  0.00    +0.000 A 
ATOM      7  C   UNL     1       5.061   0.642 -10.845  0.00  0.00    +0.000 A 
ATOM      8 CL   UNL     1       4.644   1.537 -12.260  0.00  0.00    +0.000 Cl
ATOM      9  C   UNL     1       4.435  -0.569 -10.536  0.00  0.00    +0.000 A 
ATOM     10  C   UNL     1       4.749  -1.222  -9.337  0.00  0.00    +0.000 A 
BRANCH   9  11
ATOM     11  O   UNL     1       3.441  -1.043 -11.363  0.00  0.00    +0.000 OA
BRANCH  11  12
ATOM     12  C   UNL     1       3.309  -2.349 -11.600  0.00  0.00    +0.000 A 
ATOM     13  C   UNL     1       4.167  -3.429 -11.618  0.00  0.00    +0.000 A 
ATOM     14  C   UNL     1       3.351  -4.535 -11.921  0.00  0.00    +0.000 A 
ATOM     15  N   UNL     1       2.074  -4.191 -12.100  0.00  0.00    +0.000 NA
ATOM     16  N   UNL     1       2.082  -2.856 -11.932  0.00  0.00    +0.000 N 
ATOM     17  H   UNL     1       1.211  -2.347 -12.024  0.00  0.00    +0.000 HD
ENDBRANCH  11  12
ENDBRANCH   9  11
ENDBRANCH   1   4
BRANCH   1  18
ATOM     18  C   UNL     1       4.993  -0.823  -6.082  0.00  0.00    +0.000 C 
BRANCH  18  23
ATOM     19  C   UNL     1       2.785  -0.677  -1.446  0.00  0.00    +0.000 A 
ATOM     20  C   UNL     1       2.539   0.061  -2.597  0.00  0.00    +0.000 A 
ATOM     21  C   UNL     1       3.333  -0.158  -3.724  0.00  0.00    +0.000 A 
ATOM     22  C   UNL     1       4.351  -1.108  -3.685  0.00  0.00    +0.000 A 
ATOM     23  N   UNL     1       5.170  -1.376  -4.746  0.00  0.00    +0.000 N 
ATOM     24  N   UNL     1       4.605  -1.814  -2.569  0.00  0.00    +0.000 NA
ATOM     25  C   UNL     1       3.834  -1.581  -1.473  0.00  0.00    +0.000 A 
ATOM     26  H   UNL     1       5.828  -2.133  -4.589  0.00  0.00    +0.000 HD
BRANCH  19  28
ATOM     27  N   UNL     1       0.710  -0.074  -0.342  0.00  0.00    +0.000 N 
ATOM     28  C   UNL     1       1.996  -0.519  -0.208  0.00  0.00    +0.000 C 
ATOM     29  O   UNL     1       2.457  -0.807   0.888  0.00  0.00    +0.000 OA
ATOM     30  H   UNL     1       0.147  -0.074   0.500  0.00  0.00    +0.000 HD
ATOM     31  H   UNL     1       0.223  -0.072  -1.227  0.00  0.00    +0.000 HD
ENDBRANCH  19  28
ENDBRANCH  18  23
ENDBRANCH   1  18
TORSDOF 6
