REMARK  Name = 
REMARK  7 active torsions:
REMARK  status: ('A' for Active; 'I' for Inactive)
REMARK    1  A    between atoms: C_1  and  O_2
REMARK    2  A    between atoms: O_2  and  C_3
REMARK    3  A    between atoms: C_3  and  C_4
REMARK    4  A    between atoms: C_7  and  C_8
REMARK    5  A    between atoms: C_8  and  N_9
REMARK    6  A    between atoms: N_9  and  C_10
REMARK    7  A    between atoms: C_13  and  C_14
REMARK                            x       y       z     vdW  Elec       q    Type
REMARK                         _______ _______ _______ _____ _____    ______ ____
ROOT
ATOM      1  N   UNL     1       7.113   2.951   4.350  0.00  0.00    +0.000 N 
ATOM      2  H   UNL     1       8.103   2.724   4.280  0.00  0.00    +0.000 HD
ENDROOT
BRANCH   1   3
ATOM      3  C   UNL     1       6.865   3.922   5.330  0.00  0.00    +0.000 A 
ATOM      4  C   UNL     1       7.780   4.123   6.363  0.00  0.00    +0.000 A 
ATOM      5  C   UNL     1       7.550   5.122   7.308  0.00  0.00    +0.000 A 
ATOM      6  C   UNL     1       6.374   5.852   7.229  0.00  0.00    +0.000 A 
ATOM      7  N   UNL     1       5.413   5.638   6.294  0.00  0.00    +0.000 NA
ATOM      8  C   UNL     1       5.683   4.664   5.389  0.00  0.00    +0.000 A 
BRANCH   6   9
ATOM      9  C   UNL     1       6.139   6.975   8.179  0.00  0.00    +0.000 C 
ATOM     10  N   UNL     1       4.956   7.658   8.011  0.00  0.00    +0.000 N 
ATOM     11  O   UNL     1       6.939   7.291   9.045  0.00  0.00    +0.000 OA
ATOM     12  H   UNL     1       4.319   7.389   7.270  0.00  0.00    +0.000 HD
ATOM     13  H   UNL     1       4.756   8.445   8.610  0.00  0.00    +0.000 HD
ENDBRANCH   6   9
ENDBRANCH   1   3
BRANCH   1  14
ATOM     14  C   UNL     1       6.502   3.197   3.041  0.00  0.00    +0.000 C 
BRANCH  14  18
ATOM     15  C   UNL     1       4.353   0.833   1.012  0.00  0.00    +0.000 C 
ATOM     16  C   UNL     1       4.847   0.548   2.440  0.00  0.00    +0.000 C 
ATOM     17  C   UNL     1       6.363   0.710   2.575  0.00  0.00    +0.000 C 
ATOM     18  C   UNL     1       6.873   2.071   2.068  0.00  0.00    +0.000 C 
ATOM     19  C   UNL     1       6.350   2.367   0.653  0.00  0.00    +0.000 C 
ATOM     20  C   UNL     1       4.833   2.216   0.545  0.00  0.00    +0.000 C 
BRANCH  15  21
ATOM     21  C   UNL     1       4.794  -0.282   0.049  0.00  0.00    +0.000 C 
BRANCH  21  23
ATOM     22  C   UNL     1       4.623  -2.591  -0.369  0.00  0.00    +0.000 C 
ATOM     23  O   UNL     1       4.229  -1.523   0.476  0.00  0.00    +0.000 OA
ENDBRANCH  21  23
ENDBRANCH  15  21
ENDBRANCH  14  18
ENDBRANCH   1  14
TORSDOF 6
