REMARK  Name = 
REMARK  6 active torsions:
REMARK  status: ('A' for Active; 'I' for Inactive)
REMARK    1  A    between atoms: C_2  and  C_4
REMARK    2  A    between atoms: N_8  and  C_9
REMARK    3  A    between atoms: C_9  and  C_10
REMARK    4  A    between atoms: C_10  and  C_13
REMARK    5  A    between atoms: C_15  and  S_16
REMARK    6  A    between atoms: S_16  and  C_17
REMARK                            x       y       z     vdW  Elec       q    Type
REMARK                         _______ _______ _______ _____ _____    ______ ____
ROOT
ATOM      1  C   UNL     1       6.172  -6.966  -1.387  0.00  0.00    +0.000 C 
ATOM      2  F   UNL     1       7.430  -6.460  -1.546  0.00  0.00    +0.000 F 
ATOM      3  F   UNL     1       6.155  -7.489  -0.119  0.00  0.00    +0.000 F 
ENDROOT
BRANCH   1   4
ATOM      4  C   UNL     1       5.870  -8.022  -2.430  0.00  0.00    +0.000 A 
ATOM      5  C   UNL     1       5.532  -9.340  -2.072  0.00  0.00    +0.000 A 
ATOM      6  C   UNL     1       5.314 -10.321  -3.052  0.00  0.00    +0.000 A 
ATOM      7  C   UNL     1       5.438  -9.980  -4.403  0.00  0.00    +0.000 A 
ATOM      8  C   UNL     1       5.763  -8.673  -4.770  0.00  0.00    +0.000 A 
ATOM      9  C   UNL     1       5.978  -7.712  -3.786  0.00  0.00    +0.000 A 
ATOM     10  F   UNL     1       6.303  -6.469  -4.165  0.00  0.00    +0.000 F 
BRANCH   6  11
ATOM     11  S   UNL     1       5.045 -12.019  -2.588  0.00  0.00    +0.000 S 
BRANCH  11  12
ATOM     12  C   UNL     1       3.234 -11.991  -2.334  0.00  0.00    +0.000 C 
ATOM     13  C   UNL     1       2.711 -13.340  -1.817  0.00  0.00    +0.000 C 
ATOM     14  O   UNL     1       1.807 -13.470  -2.942  0.00  0.00    +0.000 OA
ATOM     15  C   UNL     1       2.426 -12.332  -3.591  0.00  0.00    +0.000 C 
ENDBRANCH  11  12
ENDBRANCH   6  11
ENDBRANCH   1   4
BRANCH   1  16
ATOM     16  C   UNL     1       5.143  -5.806  -1.420  0.00  0.00    +0.000 C 
BRANCH  16  21
ATOM     17  C   UNL     1       7.782  -1.428  -0.788  0.00  0.00    +0.000 A 
ATOM     18  C   UNL     1       7.233  -1.973  -1.943  0.00  0.00    +0.000 A 
ATOM     19  C   UNL     1       6.435  -3.113  -1.846  0.00  0.00    +0.000 A 
ATOM     20  C   UNL     1       6.222  -3.707  -0.608  0.00  0.00    +0.000 A 
ATOM     21  N   UNL     1       5.352  -4.763  -0.407  0.00  0.00    +0.000 N 
ATOM     22  N   UNL     1       6.780  -3.210   0.513  0.00  0.00    +0.000 NA
ATOM     23  C   UNL     1       7.549  -2.092   0.405  0.00  0.00    +0.000 A 
ATOM     24  H   UNL     1       5.490  -5.099   0.546  0.00  0.00    +0.000 HD
BRANCH  17  26
ATOM     25  N   UNL     1       8.331   0.708  -1.803  0.00  0.00    +0.000 N 
ATOM     26  C   UNL     1       8.577  -0.183  -0.793  0.00  0.00    +0.000 C 
ATOM     27  O   UNL     1       9.390   0.066   0.087  0.00  0.00    +0.000 OA
ATOM     28  H   UNL     1       8.798   1.604  -1.739  0.00  0.00    +0.000 HD
ATOM     29  H   UNL     1       7.506   0.656  -2.384  0.00  0.00    +0.000 HD
ENDBRANCH  17  26
ENDBRANCH  16  21
ENDBRANCH   1  16
TORSDOF 6
