REMARK  Name = 
REMARK  7 active torsions:
REMARK  status: ('A' for Active; 'I' for Inactive)
REMARK    1  A    between atoms: C_1  and  C_2
REMARK    2  A    between atoms: C_2  and  N_3
REMARK    3  A    between atoms: C_2  and  C_16
REMARK    4  A    between atoms: C_4  and  C_6
REMARK    5  A    between atoms: C_19  and  C_20
REMARK    6  A    between atoms: C_20  and  N_21
REMARK    7  A    between atoms: C_22  and  C_24
REMARK                            x       y       z     vdW  Elec       q    Type
REMARK                         _______ _______ _______ _____ _____    ______ ____
ROOT
ATOM      1  C   UNL     1       1.387  -0.919  -0.672  0.00  0.00    +0.000 C 
ATOM      2  C   UNL     1       2.409  -0.013   0.023  0.00  0.00    +0.000 C 
ENDROOT
BRANCH   2   3
ATOM      3  C   UNL     1       2.777  -0.463   1.430  0.00  0.00    +0.000 A 
ATOM      4  C   UNL     1       3.132   0.495   2.394  0.00  0.00    +0.000 A 
ATOM      5  C   UNL     1       3.474   0.116   3.698  0.00  0.00    +0.000 A 
ATOM      6  C   UNL     1       3.487  -1.235   4.066  0.00  0.00    +0.000 A 
ATOM      7  C   UNL     1       3.150  -2.195   3.105  0.00  0.00    +0.000 A 
ATOM      8  C   UNL     1       2.816  -1.815   1.801  0.00  0.00    +0.000 A 
BRANCH   6   9
ATOM      9  C   UNL     1       3.867  -1.660   5.458  0.00  0.00    +0.000 C 
BRANCH   9  10
ATOM     10  N   UNL     1       2.737  -1.749   6.344  0.00  0.00    +0.000 N 
ATOM     11  C   UNL     1       2.899  -2.151   7.649  0.00  0.00    +0.000 C 
ATOM     12  O   UNL     1       3.987  -2.454   8.134  0.00  0.00    +0.000 OA
ATOM     13  H   UNL     1       1.796  -1.532   6.033  0.00  0.00    +0.000 HD
BRANCH  11  14
ATOM     14  C   UNL     1       1.652  -2.186   8.414  0.00  0.00    +0.000 A 
ATOM     15  C   UNL     1       1.516  -2.543   9.743  0.00  0.00    +0.000 A 
ATOM     16  N   UNL     1       0.184  -2.422  10.022  0.00  0.00    +0.000 N 
ATOM     17  C   UNL     1      -0.441  -2.003   8.881  0.00  0.00    +0.000 A 
ATOM     18  N   UNL     1       0.411  -1.851   7.890  0.00  0.00    +0.000 NA
ATOM     19  H   UNL     1      -0.262  -2.606  10.912  0.00  0.00    +0.000 HD
ENDBRANCH  11  14
ENDBRANCH   9  10
ENDBRANCH   6   9
ENDBRANCH   2   3
BRANCH   2  20
ATOM     20  N   UNL     1       3.615   0.091  -0.776  0.00  0.00    +0.000 N 
ATOM     21  C   UNL     1       3.731   0.961  -1.829  0.00  0.00    +0.000 C 
ATOM     22  O   UNL     1       2.854   1.770  -2.117  0.00  0.00    +0.000 OA
ATOM     23  H   UNL     1       4.273  -0.676  -0.693  0.00  0.00    +0.000 HD
BRANCH  21  24
ATOM     24  C   UNL     1       5.000   0.918  -2.563  0.00  0.00    +0.000 A 
ATOM     25  C   UNL     1       5.461   2.054  -3.215  0.00  0.00    +0.000 A 
ATOM     26  S   UNL     1       6.967   1.835  -3.985  0.00  0.00    +0.000 S 
ATOM     27  C   UNL     1       7.030   0.199  -3.519  0.00  0.00    +0.000 A 
ATOM     28  N   UNL     1       8.071  -0.595  -3.888  0.00  0.00    +0.000 NA
ATOM     29  C   UNL     1       7.970  -1.822  -3.499  0.00  0.00    +0.000 A 
ATOM     30  N   UNL     1       6.925  -2.325  -2.766  0.00  0.00    +0.000 N 
ATOM     31  C   UNL     1       5.876  -1.551  -2.330  0.00  0.00    +0.000 A 
ATOM     32  O   UNL     1       4.997  -2.014  -1.611  0.00  0.00    +0.000 OA
ATOM     33  C   UNL     1       5.929  -0.168  -2.765  0.00  0.00    +0.000 A 
ATOM     34  H   UNL     1       6.916  -3.292  -2.478  0.00  0.00    +0.000 HD
ENDBRANCH  21  24
ENDBRANCH   2  20
TORSDOF 6
