REMARK  Name = 
REMARK  10 active torsions:
REMARK  status: ('A' for Active; 'I' for Inactive)
REMARK    1  A    between atoms: C_1  and  C_2
REMARK    2  A    between atoms: C_2  and  N_3
REMARK    3  A    between atoms: C_2  and  C_19
REMARK    4  A    between atoms: N_3  and  C_4
REMARK    5  A    between atoms: C_4  and  C_5
REMARK    6  A    between atoms: C_8  and  C_9
REMARK    7  A    between atoms: C_9  and  O_10
REMARK    8  A    between atoms: C_9  and  C_11
REMARK    9  A    between atoms: C_11  and  N_12
REMARK   10  A    between atoms: C_19  and  C_21
REMARK                            x       y       z     vdW  Elec       q    Type
REMARK                         _______ _______ _______ _____ _____    ______ ____
ROOT
ATOM      1  N   UNL     1       1.169  -1.295   1.032  0.00  0.00    +0.000 NA
ATOM      2  H   UNL     1       0.815  -1.598   0.121  0.00  0.00    +0.000 HD
ENDROOT
BRANCH   1   4
ATOM      3  C   UNL     1       3.194  -2.663   0.820  0.00  0.00    +0.000 C 
ATOM      4  C   UNL     1       2.649  -1.244   0.975  0.00  0.00    +0.000 C 
BRANCH   4   5
ATOM      5  C   UNL     1       3.127  -0.337  -0.190  0.00  0.00    +0.000 C 
ATOM      6  O   UNL     1       2.568  -0.362  -1.288  0.00  0.00    +0.000 OA
BRANCH   5   7
ATOM      7  C   UNL     1       4.277   0.546   0.053  0.00  0.00    +0.000 A 
ATOM      8  C   UNL     1       5.306   0.218   0.916  0.00  0.00    +0.000 A 
ATOM      9  S   UNL     1       6.598   1.333   0.875  0.00  0.00    +0.000 S 
ATOM     10  C   UNL     1       5.805   2.294  -0.289  0.00  0.00    +0.000 A 
ATOM     11  N   UNL     1       6.410   3.383  -0.821  0.00  0.00    +0.000 NA
ATOM     12  C   UNL     1       5.696   3.995  -1.712  0.00  0.00    +0.000 A 
ATOM     13  N   UNL     1       4.423   3.642  -2.076  0.00  0.00    +0.000 N 
ATOM     14  C   UNL     1       3.712   2.653  -1.428  0.00  0.00    +0.000 A 
ATOM     15  O   UNL     1       2.494   2.576  -1.510  0.00  0.00    +0.000 OA
ATOM     16  C   UNL     1       4.537   1.820  -0.566  0.00  0.00    +0.000 A 
ATOM     17  H   UNL     1       3.891   4.237  -2.694  0.00  0.00    +0.000 HD
ENDBRANCH   5   7
ENDBRANCH   4   5
ENDBRANCH   1   4
BRANCH   1  18
ATOM     18  C   UNL     1       0.646   0.047   1.297  0.00  0.00    +0.000 C 
BRANCH  18  19
ATOM     19  C   UNL     1      -0.853   0.076   1.379  0.00  0.00    +0.000 A 
ATOM     20  C   UNL     1      -1.540  -0.698   2.322  0.00  0.00    +0.000 A 
ATOM     21  C   UNL     1      -2.928  -0.601   2.434  0.00  0.00    +0.000 A 
ATOM     22  C   UNL     1      -3.646   0.273   1.601  0.00  0.00    +0.000 A 
ATOM     23  C   UNL     1      -2.947   1.050   0.663  0.00  0.00    +0.000 A 
ATOM     24  C   UNL     1      -1.565   0.947   0.550  0.00  0.00    +0.000 A 
BRANCH  22  25
ATOM     25  C   UNL     1      -5.151   0.353   1.709  0.00  0.00    +0.000 C 
BRANCH  25  26
ATOM     26  O   UNL     1      -5.507   1.665   2.149  0.00  0.00    +0.000 OA
ATOM     27  H   UNL     1      -5.161   2.294   1.497  0.00  0.00    +0.000 HD
ENDBRANCH  25  26
BRANCH  25  28
ATOM     28  C   UNL     1      -5.824  -0.013   0.351  0.00  0.00    +0.000 C 
BRANCH  28  29
ATOM     29  N   UNL     1      -7.298   0.053   0.335  0.00  0.00    +0.000 NA
ATOM     30  C   UNL     1      -7.941  -0.907   1.243  0.00  0.00    +0.000 C 
ATOM     31  C   UNL     1      -8.179  -2.151   0.412  0.00  0.00    +0.000 C 
ATOM     32  C   UNL     1      -8.483  -1.606  -0.967  0.00  0.00    +0.000 C 
ATOM     33  C   UNL     1      -7.826  -0.231  -1.011  0.00  0.00    +0.000 C 
ENDBRANCH  28  29
ENDBRANCH  25  28
ENDBRANCH  22  25
ENDBRANCH  18  19
ENDBRANCH   1  18
TORSDOF 9
