REMARK  Name = 
REMARK  6 active torsions:
REMARK  status: ('A' for Active; 'I' for Inactive)
REMARK    1  A    between atoms: N_1  and  C_2
REMARK    2  A    between atoms: C_2  and  C_3
REMARK    3  A    between atoms: C_6  and  C_7
REMARK    4  A    between atoms: C_7  and  N_8
REMARK    5  A    between atoms: N_8  and  C_9
REMARK    6  A    between atoms: C_12  and  C_13
REMARK                            x       y       z     vdW  Elec       q    Type
REMARK                         _______ _______ _______ _____ _____    ______ ____
ROOT
ATOM      1  N   UNL     1       3.169   5.159  -3.746  0.00  0.00    +0.000 N 
ATOM      2  H   UNL     1       3.152   5.568  -2.815  0.00  0.00    +0.000 HD
ENDROOT
BRANCH   1   3
ATOM      3  C   UNL     1       3.383   6.172  -4.671  0.00  0.00    +0.000 A 
ATOM      4  N   UNL     1       3.222   7.425  -4.189  0.00  0.00    +0.000 NA
ATOM      5  C   UNL     1       3.352   8.468  -5.056  0.00  0.00    +0.000 A 
ATOM      6  C   UNL     1       3.654   8.334  -6.404  0.00  0.00    +0.000 A 
ATOM      7  C   UNL     1       3.826   7.040  -6.888  0.00  0.00    +0.000 A 
ATOM      8  C   UNL     1       3.678   5.962  -6.025  0.00  0.00    +0.000 A 
ATOM      9  F   UNL     1       3.837   4.730  -6.532  0.00  0.00    +0.000 F 
BRANCH   6  10
ATOM     10  C   UNL     1       3.800   9.469  -7.345  0.00  0.00    +0.000 C 
ATOM     11  N   UNL     1       3.605  10.743  -6.892  0.00  0.00    +0.000 N 
ATOM     12  O   UNL     1       4.091   9.276  -8.521  0.00  0.00    +0.000 OA
ATOM     13  H   UNL     1       3.344  11.012  -5.959  0.00  0.00    +0.000 HD
ATOM     14  H   UNL     1       3.706  11.481  -7.580  0.00  0.00    +0.000 HD
ENDBRANCH   6  10
ENDBRANCH   1   3
BRANCH   1  15
ATOM     15  C   UNL     1       3.933   3.933  -3.871  0.00  0.00    +0.000 C 
BRANCH  15  19
ATOM     16  C   UNL     1       3.050   0.945  -0.861  0.00  0.00    +0.000 A 
ATOM     17  C   UNL     1       2.031   1.460  -1.674  0.00  0.00    +0.000 A 
ATOM     18  C   UNL     1       2.303   2.456  -2.615  0.00  0.00    +0.000 A 
ATOM     19  C   UNL     1       3.603   2.964  -2.758  0.00  0.00    +0.000 A 
ATOM     20  C   UNL     1       4.613   2.477  -1.920  0.00  0.00    +0.000 A 
ATOM     21  C   UNL     1       4.341   1.477  -0.981  0.00  0.00    +0.000 A 
BRANCH  16  22
ATOM     22  C   UNL     1       2.761  -0.167   0.114  0.00  0.00    +0.000 C 
BRANCH  22  23
ATOM     23  N   UNL     1       2.272  -1.360  -0.569  0.00  0.00    +0.000 NA
ATOM     24  H   UNL     1       2.172  -2.117   0.103  0.00  0.00    +0.000 HD
ATOM     25  H   UNL     1       2.973  -1.661  -1.245  0.00  0.00    +0.000 HD
ENDBRANCH  22  23
ENDBRANCH  16  22
ENDBRANCH  15  19
ENDBRANCH   1  15
TORSDOF 6
