REMARK  Name = 
REMARK  8 active torsions:
REMARK  status: ('A' for Active; 'I' for Inactive)
REMARK    1  A    between atoms: C_1  and  C_2
REMARK    2  A    between atoms: C_2  and  N_3
REMARK    3  A    between atoms: C_2  and  C_25
REMARK    4  A    between atoms: N_3  and  C_4
REMARK    5  A    between atoms: C_4  and  C_5
REMARK    6  A    between atoms: C_8  and  C_9
REMARK    7  A    between atoms: C_9  and  N_10
REMARK    8  A    between atoms: C_11  and  C_13
REMARK                            x       y       z     vdW  Elec       q    Type
REMARK                         _______ _______ _______ _____ _____    ______ ____
ROOT
ATOM      1  C   UNL     1      -0.978  -0.692  -1.377  0.00  0.00    +0.000 A 
ATOM      2  C   UNL     1      -1.604  -1.702  -0.643  0.00  0.00    +0.000 A 
ATOM      3  C   UNL     1      -2.993  -1.788  -0.625  0.00  0.00    +0.000 A 
ATOM      4  C   UNL     1      -3.734  -0.860  -1.353  0.00  0.00    +0.000 A 
ATOM      5  N   UNL     1      -3.151   0.147  -2.052  0.00  0.00    +0.000 NA
ATOM      6  C   UNL     1      -1.799   0.206  -2.049  0.00  0.00    +0.000 A 
ENDROOT
BRANCH   1   7
ATOM      7  C   UNL     1       0.519  -0.547  -1.393  0.00  0.00    +0.000 C 
BRANCH   7   8
ATOM      8  N   UNL     1       1.165  -1.769  -1.867  0.00  0.00    +0.000 NA
ATOM      9  H   UNL     1       0.851  -1.950  -2.823  0.00  0.00    +0.000 HD
BRANCH   8  11
ATOM     10  C   UNL     1       3.248  -1.395  -0.523  0.00  0.00    +0.000 C 
ATOM     11  C   UNL     1       2.639  -1.672  -1.903  0.00  0.00    +0.000 C 
BRANCH  11  12
ATOM     12  C   UNL     1       3.251  -2.942  -2.502  0.00  0.00    +0.000 A 
ATOM     13  C   UNL     1       3.038  -4.188  -1.908  0.00  0.00    +0.000 A 
ATOM     14  C   UNL     1       3.610  -5.320  -2.485  0.00  0.00    +0.000 A 
ATOM     15  C   UNL     1       4.368  -5.183  -3.640  0.00  0.00    +0.000 A 
ATOM     16  C   UNL     1       4.527  -3.914  -4.170  0.00  0.00    +0.000 A 
ATOM     17  N   UNL     1       3.988  -2.797  -3.631  0.00  0.00    +0.000 NA
ENDBRANCH  11  12
ENDBRANCH   8  11
ENDBRANCH   7   8
ENDBRANCH   1   7
BRANCH   4  18
ATOM     18  C   UNL     1      -5.242  -0.926  -1.352  0.00  0.00    +0.000 C 
BRANCH  18  19
ATOM     19  N   UNL     1      -5.808  -0.138  -0.279  0.00  0.00    +0.000 N 
ATOM     20  C   UNL     1      -6.982  -0.495   0.329  0.00  0.00    +0.000 C 
ATOM     21  O   UNL     1      -7.571  -1.535   0.046  0.00  0.00    +0.000 OA
ATOM     22  H   UNL     1      -5.463   0.815  -0.200  0.00  0.00    +0.000 HD
BRANCH  20  23
ATOM     23  C   UNL     1      -7.475   0.389   1.393  0.00  0.00    +0.000 A 
ATOM     24  C   UNL     1      -8.317  -0.127   2.369  0.00  0.00    +0.000 A 
ATOM     25  S   UNL     1      -8.789   1.016   3.542  0.00  0.00    +0.000 S 
ATOM     26  C   UNL     1      -7.921   2.254   2.761  0.00  0.00    +0.000 A 
ATOM     27  N   UNL     1      -7.937   3.526   3.241  0.00  0.00    +0.000 NA
ATOM     28  C   UNL     1      -7.266   4.371   2.532  0.00  0.00    +0.000 A 
ATOM     29  N   UNL     1      -6.569   4.056   1.394  0.00  0.00    +0.000 N 
ATOM     30  C   UNL     1      -6.490   2.776   0.896  0.00  0.00    +0.000 A 
ATOM     31  O   UNL     1      -5.804   2.514  -0.086  0.00  0.00    +0.000 OA
ATOM     32  C   UNL     1      -7.255   1.794   1.638  0.00  0.00    +0.000 A 
ATOM     33  H   UNL     1      -6.049   4.761   0.894  0.00  0.00    +0.000 HD
ENDBRANCH  20  23
ENDBRANCH  18  19
ENDBRANCH   4  18
TORSDOF 7
