REMARK  Name = 
REMARK  9 active torsions:
REMARK  status: ('A' for Active; 'I' for Inactive)
REMARK    1  A    between atoms: N_1  and  C_2
REMARK    2  A    between atoms: C_2  and  C_3
REMARK    3  A    between atoms: C_6  and  C_7
REMARK    4  A    between atoms: C_7  and  N_8
REMARK    5  A    between atoms: N_8  and  C_9
REMARK    6  A    between atoms: N_8  and  C_13
REMARK    7  A    between atoms: C_9  and  C_10
REMARK    8  A    between atoms: C_10  and  C_11
REMARK    9  A    between atoms: C_11  and  O_12
REMARK                            x       y       z     vdW  Elec       q    Type
REMARK                         _______ _______ _______ _____ _____    ______ ____
ROOT
ATOM      1  N   UNL     1       3.095   6.380  -0.658  0.00  0.00    +0.000 N 
ENDROOT
BRANCH   1   2
ATOM      2  C   UNL     1       3.408   7.736  -0.855  0.00  0.00    +0.000 A 
ATOM      3  C   UNL     1       2.448   8.668  -1.302  0.00  0.00    +0.000 A 
ATOM      4  C   UNL     1       2.755  10.013  -1.549  0.00  0.00    +0.000 A 
ATOM      5  C   UNL     1       4.040  10.484  -1.340  0.00  0.00    +0.000 A 
ATOM      6  C   UNL     1       5.010   9.610  -0.867  0.00  0.00    +0.000 A 
ATOM      7  C   UNL     1       4.692   8.265  -0.622  0.00  0.00    +0.000 A 
ENDBRANCH   1   2
BRANCH   1   8
ATOM      8  C   UNL     1       4.148   5.356  -0.653  0.00  0.00    +0.000 C 
BRANCH   8  12
ATOM      9  C   UNL     1       5.941   3.784  -4.262  0.00  0.00    +0.000 A 
ATOM     10  C   UNL     1       5.680   5.156  -4.150  0.00  0.00    +0.000 A 
ATOM     11  C   UNL     1       4.997   5.667  -3.042  0.00  0.00    +0.000 A 
ATOM     12  C   UNL     1       4.564   4.821  -2.013  0.00  0.00    +0.000 A 
ATOM     13  C   UNL     1       4.729   3.435  -2.187  0.00  0.00    +0.000 A 
ATOM     14  C   UNL     1       5.406   2.922  -3.299  0.00  0.00    +0.000 A 
BRANCH   9  15
ATOM     15  C   UNL     1       6.838   3.270  -5.361  0.00  0.00    +0.000 C 
BRANCH  15  16
ATOM     16  N   UNL     1       8.177   3.841  -5.250  0.00  0.00    +0.000 NA
ATOM     17  H   UNL     1       8.766   3.488  -6.000  0.00  0.00    +0.000 HD
ATOM     18  H   UNL     1       8.593   3.532  -4.376  0.00  0.00    +0.000 HD
ENDBRANCH  15  16
ENDBRANCH   9  15
ENDBRANCH   8  12
ENDBRANCH   1   8
BRANCH   1  19
ATOM     19  C   UNL     1       1.683   5.981  -0.797  0.00  0.00    +0.000 C 
BRANCH  19  20
ATOM     20  C   UNL     1       1.331   4.544  -0.421  0.00  0.00    +0.000 C 
BRANCH  20  21
ATOM     21  C   UNL     1      -0.167   4.315  -0.618  0.00  0.00    +0.000 C 
BRANCH  21  22
ATOM     22  O   UNL     1      -0.535   2.963  -0.377  0.00  0.00    +0.000 OA
ATOM     23  H   UNL     1       0.244   2.468  -0.077  0.00  0.00    +0.000 HD
ENDBRANCH  21  22
ENDBRANCH  20  21
ENDBRANCH  19  20
ENDBRANCH   1  19
TORSDOF 9
