REMARK  Name = 
REMARK  8 active torsions:
REMARK  status: ('A' for Active; 'I' for Inactive)
REMARK    1  A    between atoms: C_1  and  C_2
REMARK    2  A    between atoms: C_7  and  C_8
REMARK    3  A    between atoms: C_8  and  C_9
REMARK    4  A    between atoms: C_8  and  C_10
REMARK    5  A    between atoms: C_8  and  C_11
REMARK    6  A    between atoms: C_11  and  N_12
REMARK    7  A    between atoms: C_16  and  C_17
REMARK    8  A    between atoms: C_27  and  C_28
REMARK                            x       y       z     vdW  Elec       q    Type
REMARK                         _______ _______ _______ _____ _____    ______ ____
ROOT
ATOM      1  C   UNL     1       2.344   4.812  -4.986  0.00  0.00    +0.000 C 
ATOM      2  C   UNL     1       1.447   5.492  -6.041  0.00  0.00    +0.000 C 
ATOM      3  C   UNL     1       2.393   5.688  -3.711  0.00  0.00    +0.000 C 
ENDROOT
BRANCH   1  10
ATOM      4  C   UNL     1       1.864   1.252   0.456  0.00  0.00    +0.000 C 
ATOM      5  C   UNL     1       3.159   0.603  -0.036  0.00  0.00    +0.000 C 
ATOM      6  C   UNL     1       3.593   1.128  -1.417  0.00  0.00    +0.000 C 
ATOM      7  N   UNL     1       2.736   0.574  -2.466  0.00  0.00    +0.000 N 
ATOM      8  C   UNL     1       2.013   1.349  -3.339  0.00  0.00    +0.000 A 
ATOM      9  C   UNL     1       2.452   2.627  -3.685  0.00  0.00    +0.000 A 
ATOM     10  C   UNL     1       1.774   3.425  -4.609  0.00  0.00    +0.000 A 
ATOM     11  C   UNL     1       0.603   2.886  -5.140  0.00  0.00    +0.000 A 
ATOM     12  C   UNL     1       0.208   1.620  -4.742  0.00  0.00    +0.000 A 
ATOM     13  F   UNL     1      -0.926   1.118  -5.261  0.00  0.00    +0.000 F 
ATOM     14  N   UNL     1       0.884   0.845  -3.874  0.00  0.00    +0.000 NA
ATOM     15  C   UNL     1       2.561  -0.879  -2.434  0.00  0.00    +0.000 C 
ATOM     16  C   UNL     1       2.168  -1.345  -1.021  0.00  0.00    +0.000 C 
ATOM     17  C   UNL     1       2.202  -2.865  -0.941  0.00  0.00    +0.000 C 
ATOM     18  O   UNL     1       3.071  -0.834  -0.019  0.00  0.00    +0.000 OA
ENDBRANCH   1  10
BRANCH   1  19
ATOM     19  C   UNL     1       3.786   4.683  -5.580  0.00  0.00    +0.000 C 
BRANCH  19  20
ATOM     20  N   UNL     1       4.352   5.984  -5.955  0.00  0.00    +0.000 N 
ATOM     21  C   UNL     1       5.633   5.908  -6.484  0.00  0.00    +0.000 A 
ATOM     22  N   UNL     1       5.994   4.822  -7.175  0.00  0.00    +0.000 NA
ATOM     23  C   UNL     1       7.276   4.753  -7.595  0.00  0.00    +0.000 A 
ATOM     24  C   UNL     1       8.202   5.740  -7.366  0.00  0.00    +0.000 A 
ATOM     25  C   UNL     1       7.733   6.827  -6.667  0.00  0.00    +0.000 A 
ATOM     26  N   UNL     1       6.457   6.932  -6.216  0.00  0.00    +0.000 NA
ATOM     27  H   UNL     1       4.401   6.685  -5.227  0.00  0.00    +0.000 HD
BRANCH  24  28
ATOM     28  C   UNL     1       9.589   5.545  -7.797  0.00  0.00    +0.000 C 
ATOM     29  N   UNL     1      10.347   6.654  -8.064  0.00  0.00    +0.000 N 
ATOM     30  O   UNL     1      10.053   4.423  -7.922  0.00  0.00    +0.000 OA
ATOM     31  H   UNL     1      10.009   7.604  -8.067  0.00  0.00    +0.000 HD
ATOM     32  H   UNL     1      11.288   6.487  -8.403  0.00  0.00    +0.000 HD
ENDBRANCH  24  28
ENDBRANCH  19  20
ENDBRANCH   1  19
TORSDOF 4
