REMARK  Name = 
REMARK  6 active torsions:
REMARK  status: ('A' for Active; 'I' for Inactive)
REMARK    1  A    between atoms: C_2  and  C_4
REMARK    2  A    between atoms: C_7  and  N_8
REMARK    3  A    between atoms: N_8  and  C_9
REMARK    4  A    between atoms: C_9  and  C_10
REMARK    5  A    between atoms: C_14  and  C_15
REMARK    6  A    between atoms: C_19  and  C_20
REMARK                            x       y       z     vdW  Elec       q    Type
REMARK                         _______ _______ _______ _____ _____    ______ ____
ROOT
ATOM      1  C   UNL     1       5.799  -0.203  -7.180  0.00  0.00    +0.000 A 
ATOM      2  C   UNL     1       6.433   0.848  -7.851  0.00  0.00    +0.000 A 
ATOM      3  C   UNL     1       7.361   0.580  -8.853  0.00  0.00    +0.000 A 
ATOM      4  C   UNL     1       7.656  -0.741  -9.199  0.00  0.00    +0.000 A 
ATOM      5  C   UNL     1       7.045  -1.830  -8.548  0.00  0.00    +0.000 A 
ATOM      6  C   UNL     1       6.107  -1.528  -7.541  0.00  0.00    +0.000 A 
ENDROOT
BRANCH   5   7
ATOM      7  C   UNL     1       7.385  -3.231  -8.901  0.00  0.00    +0.000 A 
ATOM      8  C   UNL     1       6.432  -4.263  -8.836  0.00  0.00    +0.000 A 
ATOM      9  C   UNL     1       6.757  -5.585  -9.160  0.00  0.00    +0.000 A 
ATOM     10  C   UNL     1       8.044  -5.905  -9.585  0.00  0.00    +0.000 A 
ATOM     11  C   UNL     1       9.018  -4.906  -9.682  0.00  0.00    +0.000 A 
ATOM     12  C   UNL     1       8.682  -3.588  -9.319  0.00  0.00    +0.000 A 
BRANCH  11  13
ATOM     13  C   UNL     1      10.409  -5.213 -10.179  0.00  0.00    +0.000 C 
ATOM     14  F   UNL     1      10.583  -6.510 -10.554  0.00  0.00    +0.000 F 
ATOM     15  F   UNL     1      10.744  -4.464 -11.268  0.00  0.00    +0.000 F 
ATOM     16  F   UNL     1      11.367  -4.961  -9.246  0.00  0.00    +0.000 F 
ENDBRANCH  11  13
ENDBRANCH   5   7
BRANCH   1  17
ATOM     17  C   UNL     1       4.789   0.084  -6.092  0.00  0.00    +0.000 C 
BRANCH  17  18
ATOM     18  N   UNL     1       3.488   0.337  -6.699  0.00  0.00    +0.000 N 
ATOM     19  H   UNL     1       3.218  -0.407  -7.336  0.00  0.00    +0.000 HD
BRANCH  18  23
ATOM     20  C   UNL     1       0.407   1.216  -4.118  0.00  0.00    +0.000 A 
ATOM     21  C   UNL     1       1.681   0.963  -3.637  0.00  0.00    +0.000 A 
ATOM     22  N   UNL     1       2.722   0.653  -4.454  0.00  0.00    +0.000 NA
ATOM     23  C   UNL     1       2.460   0.596  -5.779  0.00  0.00    +0.000 A 
ATOM     24  C   UNL     1       1.163   0.862  -6.244  0.00  0.00    +0.000 A 
ATOM     25  N   UNL     1       0.107   1.165  -5.444  0.00  0.00    +0.000 NA
BRANCH  20  27
ATOM     26  N   UNL     1      -1.915   1.780  -3.737  0.00  0.00    +0.000 N 
ATOM     27  C   UNL     1      -0.687   1.566  -3.173  0.00  0.00    +0.000 C 
ATOM     28  O   UNL     1      -0.505   1.662  -1.965  0.00  0.00    +0.000 OA
ATOM     29  H   UNL     1      -2.696   2.038  -3.151  0.00  0.00    +0.000 HD
ATOM     30  H   UNL     1      -2.031   1.707  -4.742  0.00  0.00    +0.000 HD
ENDBRANCH  20  27
ENDBRANCH  18  23
ENDBRANCH  17  18
ENDBRANCH   1  17
TORSDOF 6
