REMARK  Name = 
REMARK  7 active torsions:
REMARK  status: ('A' for Active; 'I' for Inactive)
REMARK    1  A    between atoms: C_2  and  C_20
REMARK    2  A    between atoms: N_3  and  C_4
REMARK    3  A    between atoms: C_4  and  C_5
REMARK    4  A    between atoms: C_8  and  C_9
REMARK    5  A    between atoms: C_9  and  N_10
REMARK    6  A    between atoms: N_10  and  C_11
REMARK    7  A    between atoms: C_14  and  O_15
REMARK                            x       y       z     vdW  Elec       q    Type
REMARK                         _______ _______ _______ _____ _____    ______ ____
ROOT
ATOM      1  C   UNL     1       9.751  -3.265  10.636  0.00  0.00    +0.000 A 
ATOM      2  C   UNL     1       8.810  -4.276  10.440  0.00  0.00    +0.000 A 
ATOM      3  C   UNL     1       8.581  -4.774   9.163  0.00  0.00    +0.000 A 
ATOM      4  C   UNL     1       9.315  -4.259   8.099  0.00  0.00    +0.000 A 
ATOM      5  N   UNL     1      10.267  -3.301   8.264  0.00  0.00    +0.000 NA
ATOM      6  C   UNL     1      10.464  -2.836   9.521  0.00  0.00    +0.000 A 
ENDROOT
BRANCH   1   7
ATOM      7  C   UNL     1       9.973  -2.666  11.992  0.00  0.00    +0.000 C 
BRANCH   7  10
ATOM      8  O   UNL     1       9.379  -4.692  13.862  0.00  0.00    +0.000 OA
ATOM      9  C   UNL     1      10.554  -4.416  13.634  0.00  0.00    +0.000 C 
ATOM     10  N   UNL     1      10.925  -3.418  12.771  0.00  0.00    +0.000 N 
ATOM     11  H   UNL     1      11.897  -3.328  12.503  0.00  0.00    +0.000 HD
BRANCH   9  12
ATOM     12  C   UNL     1      11.651  -5.115  14.312  0.00  0.00    +0.000 A 
ATOM     13  C   UNL     1      11.438  -5.715  15.546  0.00  0.00    +0.000 A 
ATOM     14  S   UNL     1      12.814  -6.515  16.161  0.00  0.00    +0.000 S 
ATOM     15  C   UNL     1      13.732  -6.113  14.781  0.00  0.00    +0.000 A 
ATOM     16  N   UNL     1      15.013  -6.540  14.642  0.00  0.00    +0.000 NA
ATOM     17  C   UNL     1      15.572  -6.197  13.528  0.00  0.00    +0.000 A 
ATOM     18  N   UNL     1      14.968  -5.448  12.551  0.00  0.00    +0.000 N 
ATOM     19  C   UNL     1      13.710  -4.914  12.694  0.00  0.00    +0.000 A 
ATOM     20  O   UNL     1      13.268  -4.105  11.879  0.00  0.00    +0.000 OA
ATOM     21  C   UNL     1      13.011  -5.337  13.890  0.00  0.00    +0.000 A 
ATOM     22  H   UNL     1      15.479  -5.170  11.725  0.00  0.00    +0.000 HD
ENDBRANCH   9  12
ENDBRANCH   7  10
ENDBRANCH   1   7
BRANCH   4  23
ATOM     23  C   UNL     1       9.049  -4.757   6.690  0.00  0.00    +0.000 C 
BRANCH  23  24
ATOM     24  N   UNL     1      10.233  -5.259   5.985  0.00  0.00    +0.000 NA
ATOM     25  H   UNL     1      10.884  -4.469   5.957  0.00  0.00    +0.000 HD
BRANCH  24  26
ATOM     26  C   UNL     1      10.927  -6.389   6.614  0.00  0.00    +0.000 C 
ATOM     27  C   UNL     1      10.093  -7.676   6.740  0.00  0.00    +0.000 C 
ATOM     28  C   UNL     1      10.946  -8.849   7.236  0.00  0.00    +0.000 C 
ATOM     29  C   UNL     1      12.158  -9.077   6.335  0.00  0.00    +0.000 C 
ATOM     30  C   UNL     1      13.002  -7.813   6.220  0.00  0.00    +0.000 C 
ATOM     31  C   UNL     1      12.170  -6.636   5.737  0.00  0.00    +0.000 C 
BRANCH  29  32
ATOM     32  O   UNL     1      12.956 -10.137   6.851  0.00  0.00    +0.000 OA
ATOM     33  H   UNL     1      13.400  -9.819   7.656  0.00  0.00    +0.000 HD
ENDBRANCH  29  32
ENDBRANCH  24  26
ENDBRANCH  23  24
ENDBRANCH   4  23
TORSDOF 7
