REMARK  Name = 
REMARK  13 active torsions:
REMARK  status: ('A' for Active; 'I' for Inactive)
REMARK    1  A    between atoms: C_1  and  C_2
REMARK    2  A    between atoms: C_2  and  C_3
REMARK    3  A    between atoms: C_2  and  C_4
REMARK    4  A    between atoms: C_2  and  C_6
REMARK    5  A    between atoms: C_4  and  O_5
REMARK    6  A    between atoms: C_10  and  N_11
REMARK    7  A    between atoms: N_11  and  C_12
REMARK    8  A    between atoms: C_12  and  C_13
REMARK    9  A    between atoms: C_13  and  C_14
REMARK   10  A    between atoms: C_13  and  C_15
REMARK   11  A    between atoms: C_13  and  C_16
REMARK   12  A    between atoms: C_20  and  N_21
REMARK   13  A    between atoms: N_21  and  C_22
REMARK                            x       y       z     vdW  Elec       q    Type
REMARK                         _______ _______ _______ _____ _____    ______ ____
ROOT
ATOM      1  C   UNL     1       7.281  -2.416   0.841  0.00  0.00    +0.000 C 
ENDROOT
BRANCH   1   2
ATOM      2  C   UNL     1       8.664  -3.065   1.164  0.00  0.00    +0.000 C 
ATOM      3  C   UNL     1       9.055  -3.992  -0.012  0.00  0.00    +0.000 C 
ATOM      4  C   UNL     1       9.713  -1.938   1.247  0.00  0.00    +0.000 C 
BRANCH   2   5
ATOM      5  C   UNL     1       8.684  -3.840   2.488  0.00  0.00    +0.000 A 
ATOM      6  C   UNL     1       7.881  -3.487   3.570  0.00  0.00    +0.000 A 
ATOM      7  N   UNL     1       7.842  -4.189   4.724  0.00  0.00    +0.000 NA
ATOM      8  C   UNL     1       8.623  -5.292   4.743  0.00  0.00    +0.000 A 
ATOM      9  C   UNL     1       9.478  -5.657   3.702  0.00  0.00    +0.000 A 
ATOM     10  N   UNL     1       9.523  -4.911   2.577  0.00  0.00    +0.000 NA
BRANCH   9  11
ATOM     11  N   UNL     1      10.211  -6.866   3.777  0.00  0.00    +0.000 N 
ATOM     12  H   UNL     1      10.251  -7.189   4.739  0.00  0.00    +0.000 HD
BRANCH  11  13
ATOM     13  C   UNL     1      11.490  -7.031   3.132  0.00  0.00    +0.000 C 
ATOM     14  C   UNL     1      11.529  -6.944   1.602  0.00  0.00    +0.000 C 
ATOM     15  O   UNL     1      12.222  -8.222   1.520  0.00  0.00    +0.000 OA
ATOM     16  C   UNL     1      11.854  -8.504   2.896  0.00  0.00    +0.000 C 
ENDBRANCH  11  13
ENDBRANCH   9  11
ENDBRANCH   2   5
ENDBRANCH   1   2
BRANCH   1  17
ATOM     17  N   UNL     1       6.199  -3.398   0.851  0.00  0.00    +0.000 N 
ATOM     18  H   UNL     1       6.435  -4.303   0.448  0.00  0.00    +0.000 HD
BRANCH  17  23
ATOM     19  C   UNL     1       3.030  -1.433   0.444  0.00  0.00    +0.000 A 
ATOM     20  C   UNL     1       2.172  -2.527   0.357  0.00  0.00    +0.000 A 
ATOM     21  N   UNL     1       2.568  -3.817   0.397  0.00  0.00    +0.000 NA
ATOM     22  C   UNL     1       3.894  -4.038   0.538  0.00  0.00    +0.000 A 
ATOM     23  C   UNL     1       4.874  -3.047   0.611  0.00  0.00    +0.000 A 
ATOM     24  C   UNL     1       4.403  -1.733   0.578  0.00  0.00    +0.000 A 
BRANCH  19  26
ATOM     25  C   UNL     1       1.008   0.154   0.269  0.00  0.00    +0.000 C 
ATOM     26  C   UNL     1       2.544   0.024   0.402  0.00  0.00    +0.000 C 
ATOM     27  C   UNL     1       3.162   0.718  -0.835  0.00  0.00    +0.000 C 
BRANCH  26  28
ATOM     28  C   UNL     1       2.977   0.755   1.704  0.00  0.00    +0.000 C 
BRANCH  28  29
ATOM     29  O   UNL     1       2.611   2.133   1.704  0.00  0.00    +0.000 OA
ATOM     30  H   UNL     1       3.214   2.603   1.106  0.00  0.00    +0.000 HD
ENDBRANCH  28  29
ENDBRANCH  26  28
ENDBRANCH  19  26
ENDBRANCH  17  23
ENDBRANCH   1  17
TORSDOF 9
