REMARK  Name = 
REMARK  5 active torsions:
REMARK  status: ('A' for Active; 'I' for Inactive)
REMARK    1  A    between atoms: N_1  and  C_2
REMARK    2  A    between atoms: C_2  and  C_3
REMARK    3  A    between atoms: C_3  and  C_4
REMARK    4  A    between atoms: C_8  and  C_9
REMARK    5  A    between atoms: C_9  and  N_10
REMARK                            x       y       z     vdW  Elec       q    Type
REMARK                         _______ _______ _______ _____ _____    ______ ____
ROOT
ATOM      1  C   UNL     1       4.385   0.943   1.108  0.00  0.00    +0.000 A 
ATOM      2  C   UNL     1       5.143  -0.154   1.502  0.00  0.00    +0.000 A 
ATOM      3  N   UNL     1       6.493  -0.159   1.554  0.00  0.00    +0.000 NA
ATOM      4  C   UNL     1       7.121   0.988   1.214  0.00  0.00    +0.000 A 
ATOM      5  C   UNL     1       6.469   2.144   0.798  0.00  0.00    +0.000 A 
ATOM      6  C   UNL     1       5.071   2.102   0.731  0.00  0.00    +0.000 A 
ENDROOT
BRANCH   1   7
ATOM      7  C   UNL     1       2.880   0.889   1.103  0.00  0.00    +0.000 C 
BRANCH   7   8
ATOM      8  C   UNL     1       2.307   0.360  -0.215  0.00  0.00    +0.000 C 
BRANCH   8   9
ATOM      9  N   UNL     1       0.845   0.344  -0.176  0.00  0.00    +0.000 NA
ATOM     10  H   UNL     1       0.486   0.016  -1.072  0.00  0.00    +0.000 HD
ATOM     11  H   UNL     1       0.493   1.293  -0.060  0.00  0.00    +0.000 HD
ENDBRANCH   8   9
ENDBRANCH   7   8
ENDBRANCH   1   7
BRANCH   5  12
ATOM     12  C   UNL     1       7.239   3.387   0.461  0.00  0.00    +0.000 C 
BRANCH  12  13
ATOM     13  N   UNL     1       7.414   4.263   1.613  0.00  0.00    +0.000 N 
ATOM     14  C   UNL     1       8.466   4.210   2.501  0.00  0.00    +0.000 A 
ATOM     15  C   UNL     1       8.357   5.283   3.359  0.00  0.00    +0.000 A 
ATOM     16  C   UNL     1       7.208   6.022   2.970  0.00  0.00    +0.000 A 
ATOM     17  C   UNL     1       6.581   7.195   3.383  0.00  0.00    +0.000 A 
ATOM     18  N   UNL     1       5.471   7.624   2.738  0.00  0.00    +0.000 NA
ATOM     19  C   UNL     1       5.018   6.878   1.707  0.00  0.00    +0.000 A 
ATOM     20  N   UNL     1       5.537   5.737   1.217  0.00  0.00    +0.000 NA
ATOM     21  C   UNL     1       6.638   5.361   1.894  0.00  0.00    +0.000 A 
ENDBRANCH  12  13
ENDBRANCH   5  12
TORSDOF 5
