REMARK  Name = 
REMARK  10 active torsions:
REMARK  status: ('A' for Active; 'I' for Inactive)
REMARK    1  A    between atoms: C_1  and  C_2
REMARK    2  A    between atoms: N_4  and  C_5
REMARK    3  A    between atoms: C_9  and  C_10
REMARK    4  A    between atoms: C_10  and  C_11
REMARK    5  A    between atoms: C_10  and  C_12
REMARK    6  A    between atoms: C_10  and  C_13
REMARK    7  A    between atoms: C_13  and  N_14
REMARK    8  A    between atoms: N_14  and  C_15
REMARK    9  A    between atoms: C_18  and  C_19
REMARK   10  A    between atoms: C_26  and  C_27
REMARK                            x       y       z     vdW  Elec       q    Type
REMARK                         _______ _______ _______ _____ _____    ______ ____
ROOT
ATOM      1  C   UNL     1      -1.398   1.107  -5.281  0.00  0.00    +0.000 C 
ATOM      2  C   UNL     1      -0.928  -0.179  -6.006  0.00  0.00    +0.000 C 
ATOM      3  C   UNL     1      -2.420   0.738  -4.183  0.00  0.00    +0.000 C 
ENDROOT
BRANCH   1   8
ATOM      4  C   UNL     1       1.847   1.517  -3.197  0.00  0.00    +0.000 A 
ATOM      5  C   UNL     1       2.239   2.804  -3.574  0.00  0.00    +0.000 A 
ATOM      6  C   UNL     1       1.459   3.582  -4.427  0.00  0.00    +0.000 A 
ATOM      7  C   UNL     1       0.273   3.072  -4.954  0.00  0.00    +0.000 A 
ATOM      8  C   UNL     1      -0.160   1.778  -4.631  0.00  0.00    +0.000 A 
ATOM      9  C   UNL     1       0.627   1.049  -3.712  0.00  0.00    +0.000 A 
BRANCH   4  13
ATOM     10  C   UNL     1       1.885  -2.234  -3.113  0.00  0.00    +0.000 C 
ATOM     11  C   UNL     1       2.586  -1.683  -1.872  0.00  0.00    +0.000 C 
ATOM     12  C   UNL     1       2.100  -0.278  -1.467  0.00  0.00    +0.000 C 
ATOM     13  N   UNL     1       2.638   0.757  -2.357  0.00  0.00    +0.000 N 
ATOM     14  C   UNL     1       4.094   0.683  -2.567  0.00  0.00    +0.000 C 
ATOM     15  C   UNL     1       4.515  -0.753  -2.954  0.00  0.00    +0.000 C 
ATOM     16  C   UNL     1       6.034  -0.878  -2.982  0.00  0.00    +0.000 C 
ATOM     17  O   UNL     1       4.019  -1.730  -2.018  0.00  0.00    +0.000 OA
ENDBRANCH   4  13
ENDBRANCH   1   8
BRANCH   1  18
ATOM     18  C   UNL     1      -2.073   2.037  -6.335  0.00  0.00    +0.000 C 
BRANCH  18  19
ATOM     19  N   UNL     1      -3.244   1.449  -7.002  0.00  0.00    +0.000 N 
ATOM     20  H   UNL     1      -3.913   1.051  -6.348  0.00  0.00    +0.000 HD
BRANCH  19  21
ATOM     21  C   UNL     1      -3.894   2.257  -7.951  0.00  0.00    +0.000 A 
ATOM     22  C   UNL     1      -3.221   3.175  -8.763  0.00  0.00    +0.000 A 
ATOM     23  C   UNL     1      -3.905   3.904  -9.731  0.00  0.00    +0.000 A 
ATOM     24  C   UNL     1      -5.261   3.672  -9.891  0.00  0.00    +0.000 A 
ATOM     25  N   UNL     1      -5.965   2.766  -9.159  0.00  0.00    +0.000 NA
ATOM     26  C   UNL     1      -5.256   2.078  -8.230  0.00  0.00    +0.000 A 
BRANCH  24  27
ATOM     27  C   UNL     1      -6.016   4.433 -10.932  0.00  0.00    +0.000 C 
ATOM     28  N   UNL     1      -7.345   4.140 -11.023  0.00  0.00    +0.000 N 
ATOM     29  O   UNL     1      -5.484   5.263 -11.662  0.00  0.00    +0.000 OA
ATOM     30  H   UNL     1      -7.747   3.433 -10.417  0.00  0.00    +0.000 HD
ATOM     31  H   UNL     1      -7.914   4.604 -11.717  0.00  0.00    +0.000 HD
ENDBRANCH  24  27
ENDBRANCH  19  21
ENDBRANCH  18  19
ENDBRANCH   1  18
TORSDOF 6
