REMARK  Name = 
REMARK  5 active torsions:
REMARK  status: ('A' for Active; 'I' for Inactive)
REMARK    1  A    between atoms: C_1  and  C_2
REMARK    2  A    between atoms: C_2  and  O_3
REMARK    3  A    between atoms: C_2  and  C_13
REMARK    4  A    between atoms: O_3  and  C_4
REMARK    5  A    between atoms: C_7  and  C_8
REMARK                            x       y       z     vdW  Elec       q    Type
REMARK                         _______ _______ _______ _____ _____    ______ ____
ROOT
ATOM      1  C   UNL     1       0.526  -1.136  -0.559  0.00  0.00    +0.000 A 
ATOM      2  C   UNL     1       1.041  -2.413  -0.663  0.00  0.00    +0.000 A 
ATOM      3  N   UNL     1       0.310  -3.513  -0.949  0.00  0.00    +0.000 NA
ATOM      4  C   UNL     1      -1.015  -3.300  -1.132  0.00  0.00    +0.000 A 
ATOM      5  N   UNL     1      -1.637  -2.110  -1.043  0.00  0.00    +0.000 NA
ATOM      6  C   UNL     1      -0.840  -1.056  -0.759  0.00  0.00    +0.000 A 
ENDROOT
BRANCH   4   7
ATOM      7  C   UNL     1      -1.834  -4.517  -1.495  0.00  0.00    +0.000 C 
ATOM      8  N   UNL     1      -1.128  -5.692  -1.608  0.00  0.00    +0.000 N 
ATOM      9  O   UNL     1      -3.043  -4.498  -1.691  0.00  0.00    +0.000 OA
ATOM     10  H   UNL     1      -0.124  -5.694  -1.462  0.00  0.00    +0.000 HD
ATOM     11  H   UNL     1      -1.613  -6.537  -1.875  0.00  0.00    +0.000 HD
ENDBRANCH   4   7
BRANCH   1  12
ATOM     12  O   UNL     1       1.199   0.022  -0.307  0.00  0.00    +0.000 OA
BRANCH  12  14
ATOM     13  C   UNL     1       3.378  -0.100  -1.382  0.00  0.00    +0.000 C 
ATOM     14  C   UNL     1       2.613  -0.047  -0.057  0.00  0.00    +0.000 C 
BRANCH  14  15
ATOM     15  C   UNL     1       3.050   1.164   0.818  0.00  0.00    +0.000 C 
ATOM     16  C   UNL     1       2.411   1.053   2.217  0.00  0.00    +0.000 C 
ATOM     17  C   UNL     1       2.788   2.219   3.128  0.00  0.00    +0.000 C 
ATOM     18  C   UNL     1       2.446   3.557   2.486  0.00  0.00    +0.000 C 
ATOM     19  C   UNL     1       3.119   3.692   1.126  0.00  0.00    +0.000 C 
ATOM     20  C   UNL     1       2.739   2.540   0.194  0.00  0.00    +0.000 C 
ENDBRANCH  14  15
ENDBRANCH  12  14
ENDBRANCH   1  12
TORSDOF 4
