REMARK  Name = 
REMARK  5 active torsions:
REMARK  status: ('A' for Active; 'I' for Inactive)
REMARK    1  A    between atoms: C_2  and  C_4
REMARK    2  A    between atoms: C_7  and  O_8
REMARK    3  A    between atoms: O_8  and  C_9
REMARK    4  A    between atoms: C_9  and  C_10
REMARK    5  A    between atoms: C_14  and  C_15
REMARK                            x       y       z     vdW  Elec       q    Type
REMARK                         _______ _______ _______ _____ _____    ______ ____
ROOT
ATOM      1  C   UNL     1       5.537  -3.924   4.063  0.00  0.00    +0.000 C 
ENDROOT
BRANCH   1   2
ATOM      2  C   UNL     1       6.586  -4.422   5.024  0.00  0.00    +0.000 A 
ATOM      3  C   UNL     1       6.674  -5.784   5.288  0.00  0.00    +0.000 A 
ATOM      4  N   UNL     1       7.557  -6.332   6.147  0.00  0.00    +0.000 NA
ATOM      5  C   UNL     1       8.397  -5.478   6.782  0.00  0.00    +0.000 A 
ATOM      6  C   UNL     1       8.425  -4.094   6.601  0.00  0.00    +0.000 A 
ATOM      7  C   UNL     1       7.486  -3.583   5.691  0.00  0.00    +0.000 A 
BRANCH   6   8
ATOM      8  C   UNL     1       9.373  -3.215   7.317  0.00  0.00    +0.000 A 
ATOM      9  C   UNL     1      10.673  -3.635   7.636  0.00  0.00    +0.000 A 
ATOM     10  C   UNL     1      11.527  -2.762   8.298  0.00  0.00    +0.000 A 
ATOM     11  N   UNL     1      11.192  -1.509   8.657  0.00  0.00    +0.000 NA
ATOM     12  C   UNL     1       9.943  -1.114   8.349  0.00  0.00    +0.000 A 
ATOM     13  F   UNL     1       9.583   0.132   8.685  0.00  0.00    +0.000 F 
ATOM     14  C   UNL     1       9.017  -1.913   7.697  0.00  0.00    +0.000 A 
ENDBRANCH   6   8
ENDBRANCH   1   2
BRANCH   1  15
ATOM     15  O   UNL     1       5.604  -2.503   3.892  0.00  0.00    +0.000 OA
BRANCH  15  19
ATOM     16  C   UNL     1       2.630  -1.040   1.447  0.00  0.00    +0.000 A 
ATOM     17  C   UNL     1       3.550  -0.158   2.019  0.00  0.00    +0.000 A 
ATOM     18  C   UNL     1       4.558  -0.666   2.841  0.00  0.00    +0.000 A 
ATOM     19  C   UNL     1       4.610  -2.035   3.057  0.00  0.00    +0.000 A 
ATOM     20  N   UNL     1       3.739  -2.910   2.511  0.00  0.00    +0.000 NA
ATOM     21  C   UNL     1       2.763  -2.393   1.728  0.00  0.00    +0.000 A 
BRANCH  16  23
ATOM     22  N   UNL     1       1.631   0.556  -0.095  0.00  0.00    +0.000 N 
ATOM     23  C   UNL     1       1.502  -0.616   0.594  0.00  0.00    +0.000 C 
ATOM     24  O   UNL     1       0.498  -1.306   0.481  0.00  0.00    +0.000 OA
ATOM     25  H   UNL     1       0.888   0.770  -0.749  0.00  0.00    +0.000 HD
ATOM     26  H   UNL     1       2.517   1.024  -0.226  0.00  0.00    +0.000 HD
ENDBRANCH  16  23
ENDBRANCH  15  19
ENDBRANCH   1  15
TORSDOF 5
