REMARK  Name = 
REMARK  11 active torsions:
REMARK  status: ('A' for Active; 'I' for Inactive)
REMARK    1  A    between atoms: N_1  and  C_2
REMARK    2  A    between atoms: C_2  and  C_3
REMARK    3  A    between atoms: C_3  and  C_4
REMARK    4  A    between atoms: C_4  and  C_5
REMARK    5  A    between atoms: C_5  and  C_6
REMARK    6  A    between atoms: C_6  and  C_7
REMARK    7  A    between atoms: C_7  and  C_8
REMARK    8  A    between atoms: C_8  and  N_9
REMARK    9  A    between atoms: C_12  and  C_13
REMARK   10  A    between atoms: C_13  and  N_14
REMARK   11  A    between atoms: N_14  and  C_15
REMARK                            x       y       z     vdW  Elec       q    Type
REMARK                         _______ _______ _______ _____ _____    ______ ____
ROOT
ATOM      1  N   UNL     1       8.950  -1.827   5.430  0.00  0.00    +0.000 N 
ATOM      2  C   UNL     1      10.348  -1.984   5.534  0.00  0.00    +0.000 A 
ATOM      3  C   UNL     1      10.838  -2.858   6.511  0.00  0.00    +0.000 A 
ATOM      4  C   UNL     1      12.221  -3.083   6.627  0.00  0.00    +0.000 A 
ATOM      5  C   UNL     1      13.055  -2.373   5.773  0.00  0.00    +0.000 A 
ATOM      6  C   UNL     1      12.494  -1.492   4.859  0.00  0.00    +0.000 A 
ATOM      7  N   UNL     1      11.160  -1.289   4.736  0.00  0.00    +0.000 NA
ATOM      8  H   UNL     1       8.515  -2.682   5.753  0.00  0.00    +0.000 HD
ENDROOT
BRANCH   1   9
ATOM      9  C   UNL     1       8.517  -1.453   4.077  0.00  0.00    +0.000 C 
BRANCH   9  10
ATOM     10  C   UNL     1       6.994  -1.334   4.056  0.00  0.00    +0.000 C 
BRANCH  10  11
ATOM     11  C   UNL     1       6.484  -0.952   2.665  0.00  0.00    +0.000 C 
BRANCH  11  12
ATOM     12  C   UNL     1       4.961  -0.833   2.662  0.00  0.00    +0.000 C 
BRANCH  12  13
ATOM     13  C   UNL     1       4.440  -0.454   1.278  0.00  0.00    +0.000 C 
BRANCH  13  14
ATOM     14  C   UNL     1       2.918  -0.339   1.286  0.00  0.00    +0.000 C 
BRANCH  14  15
ATOM     15  C   UNL     1       2.393   0.039  -0.095  0.00  0.00    +0.000 C 
BRANCH  15  16
ATOM     16  N   UNL     1       0.940   0.140  -0.061  0.00  0.00    +0.000 NA
ATOM     17  H   UNL     1       0.601   0.438  -0.974  0.00  0.00    +0.000 HD
ATOM     18  H   UNL     1       0.662   0.866   0.598  0.00  0.00    +0.000 HD
ENDBRANCH  15  16
ENDBRANCH  14  15
ENDBRANCH  13  14
ENDBRANCH  12  13
ENDBRANCH  11  12
ENDBRANCH  10  11
ENDBRANCH   9  10
ENDBRANCH   1   9
BRANCH   4  19
ATOM     19  C   UNL     1      12.785  -4.085   7.609  0.00  0.00    +0.000 C 
BRANCH  19  20
ATOM     20  N   UNL     1      13.096  -3.470   8.894  0.00  0.00    +0.000 N 
ATOM     21  H   UNL     1      13.604  -2.591   8.822  0.00  0.00    +0.000 HD
BRANCH  20  22
ATOM     22  C   UNL     1      13.679  -4.224   9.917  0.00  0.00    +0.000 A 
ATOM     23  C   UNL     1      13.932  -5.598   9.851  0.00  0.00    +0.000 A 
ATOM     24  C   UNL     1      14.500  -6.275  10.931  0.00  0.00    +0.000 A 
ATOM     25  C   UNL     1      14.809  -5.588  12.102  0.00  0.00    +0.000 A 
ATOM     26  C   UNL     1      14.563  -4.222  12.189  0.00  0.00    +0.000 A 
ATOM     27  C   UNL     1      13.994  -3.552  11.111  0.00  0.00    +0.000 A 
ENDBRANCH  20  22
ENDBRANCH  19  20
ENDBRANCH   4  19
TORSDOF 11
