REMARK  Name = 
REMARK  3 active torsions:
REMARK  status: ('A' for Active; 'I' for Inactive)
REMARK    1  A    between atoms: C_2  and  C_4
REMARK    2  A    between atoms: N_8  and  C_9
REMARK    3  A    between atoms: C_9  and  C_10
REMARK                            x       y       z     vdW  Elec       q    Type
REMARK                         _______ _______ _______ _____ _____    ______ ____
ROOT
ATOM      1  C   UNL     1       4.178  -2.827  -1.488  0.00  0.00    +0.000 A 
ATOM      2  C   UNL     1       3.420  -3.836  -0.950  0.00  0.00    +0.000 A 
ATOM      3  N   UNL     1       3.604  -4.320   0.297  0.00  0.00    +0.000 NA
ATOM      4  C   UNL     1       4.611  -3.794   1.017  0.00  0.00    +0.000 A 
ATOM      5  N   UNL     1       4.668  -4.222   2.344  0.00  0.00    +0.000 N 
ATOM      6  N   UNL     1       5.457  -2.866   0.544  0.00  0.00    +0.000 NA
ATOM      7  C   UNL     1       5.221  -2.397  -0.704  0.00  0.00    +0.000 A 
ATOM      8  H   UNL     1       4.029  -5.009   2.397  0.00  0.00    +0.000 HD
ENDROOT
BRANCH   1  10
ATOM      9  N   UNL     1       2.622  -2.239  -3.253  0.00  0.00    +0.000 N 
ATOM     10  C   UNL     1       3.911  -2.215  -2.795  0.00  0.00    +0.000 C 
ATOM     11  O   UNL     1       4.798  -1.660  -3.430  0.00  0.00    +0.000 OA
ATOM     12  H   UNL     1       2.434  -1.701  -4.092  0.00  0.00    +0.000 HD
ATOM     13  H   UNL     1       1.826  -2.450  -2.669  0.00  0.00    +0.000 HD
ENDBRANCH   1  10
BRANCH   5  14
ATOM     14  C   UNL     1       5.951  -4.369   3.049  0.00  0.00    +0.000 C 
ATOM     15  C   UNL     1       5.988  -3.784   4.456  0.00  0.00    +0.000 C 
ATOM     16  C   UNL     1       6.832  -3.183   3.380  0.00  0.00    +0.000 C 
BRANCH  14  17
ATOM     17  C   UNL     1       6.597  -5.723   2.812  0.00  0.00    +0.000 A 
ATOM     18  C   UNL     1       6.327  -6.834   3.624  0.00  0.00    +0.000 A 
ATOM     19  C   UNL     1       6.854  -8.087   3.319  0.00  0.00    +0.000 A 
ATOM     20  C   UNL     1       7.652  -8.205   2.196  0.00  0.00    +0.000 A 
ATOM     21  N   UNL     1       7.961  -7.170   1.389  0.00  0.00    +0.000 NA
ATOM     22  C   UNL     1       7.428  -5.965   1.716  0.00  0.00    +0.000 A 
ENDBRANCH  14  17
ENDBRANCH   5  14
TORSDOF 3
