REMARK  Name = 
REMARK  6 active torsions:
REMARK  status: ('A' for Active; 'I' for Inactive)
REMARK    1  A    between atoms: C_2  and  C_19
REMARK    2  A    between atoms: N_3  and  C_4
REMARK    3  A    between atoms: C_4  and  C_5
REMARK    4  A    between atoms: N_8  and  C_9
REMARK    5  A    between atoms: C_9  and  C_10
REMARK    6  A    between atoms: C_10  and  N_11
REMARK                            x       y       z     vdW  Elec       q    Type
REMARK                         _______ _______ _______ _____ _____    ______ ____
ROOT
ATOM      1  O   UNL     1      -0.114  -0.165  -1.742  0.00  0.00    +0.000 OA
ATOM      2  C   UNL     1       0.791   0.419  -2.353  0.00  0.00    +0.000 C 
ATOM      3  N   UNL     1       1.995  -0.171  -2.629  0.00  0.00    +0.000 N 
ATOM      4  H   UNL     1       2.767   0.417  -2.948  0.00  0.00    +0.000 HD
ENDROOT
BRANCH   2   5
ATOM      5  C   UNL     1       0.604   1.767  -2.873  0.00  0.00    +0.000 A 
ATOM      6  C   UNL     1      -0.634   2.258  -3.250  0.00  0.00    +0.000 A 
ATOM      7  S   UNL     1      -0.561   3.870  -3.830  0.00  0.00    +0.000 S 
ATOM      8  C   UNL     1       1.115   3.951  -3.568  0.00  0.00    +0.000 A 
ATOM      9  N   UNL     1       1.831   5.072  -3.848  0.00  0.00    +0.000 NA
ATOM     10  C   UNL     1       3.090   4.993  -3.558  0.00  0.00    +0.000 A 
ATOM     11  N   UNL     1       3.699   3.901  -3.000  0.00  0.00    +0.000 N 
ATOM     12  C   UNL     1       3.047   2.732  -2.770  0.00  0.00    +0.000 A 
ATOM     13  O   UNL     1       3.661   1.728  -2.397  0.00  0.00    +0.000 OA
ATOM     14  C   UNL     1       1.621   2.780  -3.053  0.00  0.00    +0.000 A 
ATOM     15  H   UNL     1       4.690   3.886  -2.831  0.00  0.00    +0.000 HD
ENDBRANCH   2   5
BRANCH   3  16
ATOM     16  C   UNL     1       2.336  -1.476  -2.124  0.00  0.00    +0.000 C 
BRANCH  16  17
ATOM     17  C   UNL     1       3.347  -2.196  -3.028  0.00  0.00    +0.000 C 
ATOM     18  C   UNL     1       2.819  -2.365  -4.459  0.00  0.00    +0.000 C 
ATOM     19  C   UNL     1       1.725  -3.416  -4.557  0.00  0.00    +0.000 C 
ATOM     20  N   UNL     1       2.201  -4.708  -4.053  0.00  0.00    +0.000 NA
ATOM     21  C   UNL     1       2.581  -4.596  -2.630  0.00  0.00    +0.000 C 
ATOM     22  C   UNL     1       3.706  -3.573  -2.454  0.00  0.00    +0.000 C 
BRANCH  20  23
ATOM     23  C   UNL     1       1.140  -5.711  -4.212  0.00  0.00    +0.000 C 
BRANCH  23  24
ATOM     24  C   UNL     1       0.704  -6.015  -5.678  0.00  0.00    +0.000 C 
BRANCH  24  25
ATOM     25  N   UNL     1      -0.368  -7.026  -5.642  0.00  0.00    +0.000 NA
ATOM     26  C   UNL     1       0.102  -8.310  -5.092  0.00  0.00    +0.000 C 
ATOM     27  C   UNL     1       0.848  -9.195  -6.093  0.00  0.00    +0.000 C 
ATOM     28  O   UNL     1       0.024  -9.464  -7.227  0.00  0.00    +0.000 OA
ATOM     29  C   UNL     1      -0.314  -8.238  -7.886  0.00  0.00    +0.000 C 
ATOM     30  C   UNL     1      -1.028  -7.253  -6.942  0.00  0.00    +0.000 C 
ENDBRANCH  24  25
ENDBRANCH  23  24
ENDBRANCH  20  23
ENDBRANCH  16  17
ENDBRANCH   3  16
TORSDOF 6
