REMARK  Name = 
REMARK  5 active torsions:
REMARK  status: ('A' for Active; 'I' for Inactive)
REMARK    1  A    between atoms: C_2  and  C_17
REMARK    2  A    between atoms: N_3  and  C_4
REMARK    3  A    between atoms: C_4  and  C_5
REMARK    4  A    between atoms: C_8  and  C_9
REMARK    5  A    between atoms: C_9  and  C_10
REMARK                            x       y       z     vdW  Elec       q    Type
REMARK                         _______ _______ _______ _____ _____    ______ ____
ROOT
ATOM      1  O   UNL     1       0.965  -0.032  -0.033  0.00  0.00    +0.000 OA
ATOM      2  C   UNL     1       1.792   0.591  -0.693  0.00  0.00    +0.000 C 
ATOM      3  N   UNL     1       2.519   1.630  -0.163  0.00  0.00    +0.000 N 
ATOM      4  H   UNL     1       3.012   2.255  -0.790  0.00  0.00    +0.000 HD
ENDROOT
BRANCH   2   5
ATOM      5  C   UNL     1       2.085   0.230  -2.087  0.00  0.00    +0.000 A 
ATOM      6  C   UNL     1       1.816  -1.056  -2.539  0.00  0.00    +0.000 A 
ATOM      7  S   UNL     1       2.240  -1.307  -4.172  0.00  0.00    +0.000 S 
ATOM      8  C   UNL     1       2.746   0.307  -4.348  0.00  0.00    +0.000 A 
ATOM      9  N   UNL     1       3.203   0.772  -5.543  0.00  0.00    +0.000 NA
ATOM     10  C   UNL     1       3.522   2.024  -5.536  0.00  0.00    +0.000 A 
ATOM     11  N   UNL     1       3.434   2.852  -4.450  0.00  0.00    +0.000 N 
ATOM     12  C   UNL     1       3.009   2.418  -3.219  0.00  0.00    +0.000 A 
ATOM     13  O   UNL     1       2.987   3.173  -2.250  0.00  0.00    +0.000 OA
ATOM     14  C   UNL     1       2.621   1.021  -3.168  0.00  0.00    +0.000 A 
ATOM     15  H   UNL     1       3.715   3.814  -4.514  0.00  0.00    +0.000 HD
ENDBRANCH   2   5
BRANCH   3  16
ATOM     16  C   UNL     1       2.231   2.118   1.161  0.00  0.00    +0.000 C 
BRANCH  16  17
ATOM     17  C   UNL     1       3.139   3.241   1.571  0.00  0.00    +0.000 A 
ATOM     18  C   UNL     1       2.840   4.567   1.258  0.00  0.00    +0.000 A 
ATOM     19  C   UNL     1       3.672   5.593   1.707  0.00  0.00    +0.000 A 
ATOM     20  C   UNL     1       4.796   5.276   2.467  0.00  0.00    +0.000 A 
ATOM     21  N   UNL     1       5.131   3.992   2.742  0.00  0.00    +0.000 NA
ATOM     22  C   UNL     1       4.310   3.013   2.283  0.00  0.00    +0.000 A 
BRANCH  20  23
ATOM     23  C   UNL     1       5.728   6.361   2.960  0.00  0.00    +0.000 C 
BRANCH  23  24
ATOM     24  C   UNL     1       5.463   6.972   4.349  0.00  0.00    +0.000 C 
ATOM     25  C   UNL     1       5.519   6.006   5.531  0.00  0.00    +0.000 C 
ATOM     26  C   UNL     1       4.160   6.118   6.198  0.00  0.00    +0.000 C 
ATOM     27  N   UNL     1       3.674   7.460   5.865  0.00  0.00    +0.000 NA
ATOM     28  C   UNL     1       4.132   7.706   4.494  0.00  0.00    +0.000 C 
ATOM     29  H   UNL     1       4.113   8.133   6.491  0.00  0.00    +0.000 HD
ENDBRANCH  23  24
ENDBRANCH  20  23
ENDBRANCH  16  17
ENDBRANCH   3  16
TORSDOF 5
