REMARK  Name = 
REMARK  10 active torsions:
REMARK  status: ('A' for Active; 'I' for Inactive)
REMARK    1  A    between atoms: C_2  and  C_4
REMARK    2  A    between atoms: C_7  and  N_8
REMARK    3  A    between atoms: N_8  and  C_9
REMARK    4  A    between atoms: C_9  and  C_10
REMARK    5  A    between atoms: C_10  and  C_13
REMARK    6  A    between atoms: C_17  and  N_18
REMARK    7  A    between atoms: N_18  and  C_19
REMARK    8  A    between atoms: N_21  and  C_22
REMARK    9  A    between atoms: C_22  and  C_23
REMARK   10  A    between atoms: C_23  and  O_24
REMARK                            x       y       z     vdW  Elec       q    Type
REMARK                         _______ _______ _______ _____ _____    ______ ____
ROOT
ATOM      1  C   UNL     1       6.419  -4.718   5.117  0.00  0.00    +0.000 C 
ATOM      2  F   UNL     1       5.758  -4.437   3.953  0.00  0.00    +0.000 F 
ATOM      3  F   UNL     1       7.746  -4.531   4.825  0.00  0.00    +0.000 F 
ENDROOT
BRANCH   1   4
ATOM      4  C   UNL     1       6.161  -6.147   5.561  0.00  0.00    +0.000 A 
ATOM      5  C   UNL     1       6.465  -7.194   4.683  0.00  0.00    +0.000 A 
ATOM      6  C   UNL     1       6.247  -8.520   5.060  0.00  0.00    +0.000 A 
ATOM      7  C   UNL     1       5.704  -8.818   6.313  0.00  0.00    +0.000 A 
ATOM      8  C   UNL     1       5.380  -7.797   7.202  0.00  0.00    +0.000 A 
ATOM      9  C   UNL     1       5.623  -6.475   6.819  0.00  0.00    +0.000 A 
BRANCH   8  10
ATOM     10  N   UNL     1       4.870  -8.009   8.501  0.00  0.00    +0.000 N 
ATOM     11  H   UNL     1       5.583  -7.771   9.188  0.00  0.00    +0.000 HD
BRANCH  10  12
ATOM     12  C   UNL     1       4.070  -9.136   8.906  0.00  0.00    +0.000 C 
ATOM     13  C   UNL     1       3.702  -9.092  10.406  0.00  0.00    +0.000 C 
ATOM     14  N   UNL     1       4.185 -10.484  10.569  0.00  0.00    +0.000 NA
ATOM     15  C   UNL     1       4.849 -10.415   9.246  0.00  0.00    +0.000 C 
BRANCH  14  16
ATOM     16  C   UNL     1       3.038 -11.418  10.535  0.00  0.00    +0.000 C 
BRANCH  16  17
ATOM     17  C   UNL     1       3.507 -12.870  10.708  0.00  0.00    +0.000 C 
BRANCH  17  18
ATOM     18  O   UNL     1       4.211 -13.030  11.937  0.00  0.00    +0.000 OA
ATOM     19  H   UNL     1       4.851 -12.292  11.965  0.00  0.00    +0.000 HD
ENDBRANCH  17  18
ENDBRANCH  16  17
ENDBRANCH  14  16
ENDBRANCH  10  12
ENDBRANCH   8  10
ENDBRANCH   1   4
BRANCH   1  20
ATOM     20  C   UNL     1       6.025  -3.658   6.176  0.00  0.00    +0.000 C 
BRANCH  20  21
ATOM     21  N   UNL     1       6.308  -2.277   5.777  0.00  0.00    +0.000 N 
ATOM     22  H   UNL     1       7.161  -2.158   5.232  0.00  0.00    +0.000 HD
BRANCH  21  26
ATOM     23  C   UNL     1       5.272   1.021   8.181  0.00  0.00    +0.000 A 
ATOM     24  C   UNL     1       5.026  -0.270   8.656  0.00  0.00    +0.000 A 
ATOM     25  C   UNL     1       5.388  -1.376   7.880  0.00  0.00    +0.000 A 
ATOM     26  C   UNL     1       6.026  -1.222   6.641  0.00  0.00    +0.000 A 
ATOM     27  C   UNL     1       6.259   0.080   6.183  0.00  0.00    +0.000 A 
ATOM     28  C   UNL     1       5.882   1.192   6.937  0.00  0.00    +0.000 A 
BRANCH  23  30
ATOM     29  N   UNL     1       4.792   2.121  10.297  0.00  0.00    +0.000 N 
ATOM     30  C   UNL     1       4.857   2.229   8.937  0.00  0.00    +0.000 C 
ATOM     31  O   UNL     1       4.615   3.290   8.375  0.00  0.00    +0.000 OA
ATOM     32  H   UNL     1       4.615   2.981  10.803  0.00  0.00    +0.000 HD
ATOM     33  H   UNL     1       5.223   1.360  10.800  0.00  0.00    +0.000 HD
ENDBRANCH  23  30
ENDBRANCH  21  26
ENDBRANCH  20  21
ENDBRANCH   1  20
TORSDOF 10
