REMARK  Name = 
REMARK  5 active torsions:
REMARK  status: ('A' for Active; 'I' for Inactive)
REMARK    1  A    between atoms: N_1  and  C_2
REMARK    2  A    between atoms: C_2  and  C_3
REMARK    3  A    between atoms: C_6  and  C_7
REMARK    4  A    between atoms: C_7  and  N_8
REMARK    5  A    between atoms: C_13  and  C_14
REMARK                            x       y       z     vdW  Elec       q    Type
REMARK                         _______ _______ _______ _____ _____    ______ ____
ROOT
ATOM      1  N   UNL     1       0.465  -5.551   0.519  0.00  0.00    +0.000 N 
ATOM      2  C   UNL     1       0.989  -6.824   0.566  0.00  0.00    +0.000 A 
ATOM      3  C   UNL     1       0.571  -7.499  -0.559  0.00  0.00    +0.000 A 
ATOM      4  C   UNL     1      -0.380  -6.676  -1.209  0.00  0.00    +0.000 A 
ATOM      5  C   UNL     1      -1.200  -6.837  -2.339  0.00  0.00    +0.000 A 
ATOM      6  C   UNL     1      -2.121  -5.829  -2.624  0.00  0.00    +0.000 A 
ATOM      7  C   UNL     1      -2.119  -4.690  -1.820  0.00  0.00    +0.000 A 
ATOM      8  N   UNL     1      -1.295  -4.448  -0.761  0.00  0.00    +0.000 NA
ATOM      9  C   UNL     1      -0.467  -5.482  -0.497  0.00  0.00    +0.000 A 
ENDROOT
BRANCH   6  10
ATOM     10  C   UNL     1      -3.114  -5.943  -3.717  0.00  0.00    +0.000 C 
ATOM     11  N   UNL     1      -3.131  -7.084  -4.473  0.00  0.00    +0.000 N 
ATOM     12  O   UNL     1      -3.923  -5.046  -3.939  0.00  0.00    +0.000 OA
ATOM     13  H   UNL     1      -2.534  -7.882  -4.346  0.00  0.00    +0.000 HD
ATOM     14  H   UNL     1      -3.848  -7.147  -5.190  0.00  0.00    +0.000 HD
ENDBRANCH   6  10
BRANCH   1  15
ATOM     15  C   UNL     1       0.899  -4.452   1.374  0.00  0.00    +0.000 C 
BRANCH  15  19
ATOM     16  C   UNL     1       3.015  -1.298   0.418  0.00  0.00    +0.000 C 
ATOM     17  C   UNL     1       2.395  -2.327  -0.540  0.00  0.00    +0.000 C 
ATOM     18  C   UNL     1       2.817  -3.753  -0.195  0.00  0.00    +0.000 C 
ATOM     19  C   UNL     1       2.417  -4.153   1.237  0.00  0.00    +0.000 C 
ATOM     20  C   UNL     1       2.913  -3.101   2.248  0.00  0.00    +0.000 C 
ATOM     21  C   UNL     1       2.604  -1.652   1.860  0.00  0.00    +0.000 C 
BRANCH  16  22
ATOM     22  C   UNL     1       4.551  -1.171   0.285  0.00  0.00    +0.000 C 
BRANCH  22  23
ATOM     23  N   UNL     1       4.970  -0.792  -1.059  0.00  0.00    +0.000 NA
ATOM     24  H   UNL     1       5.986  -0.695  -1.087  0.00  0.00    +0.000 HD
ATOM     25  H   UNL     1       4.591   0.124  -1.298  0.00  0.00    +0.000 HD
ENDBRANCH  22  23
ENDBRANCH  16  22
ENDBRANCH  15  19
ENDBRANCH   1  15
TORSDOF 5
