REMARK  Name = 
REMARK  7 active torsions:
REMARK  status: ('A' for Active; 'I' for Inactive)
REMARK    1  A    between atoms: N_1  and  C_2
REMARK    2  A    between atoms: C_2  and  N_3
REMARK    3  A    between atoms: C_2  and  C_16
REMARK    4  A    between atoms: C_4  and  C_6
REMARK    5  A    between atoms: C_19  and  O_20
REMARK    6  A    between atoms: O_20  and  C_21
REMARK    7  A    between atoms: C_21  and  C_22
REMARK                            x       y       z     vdW  Elec       q    Type
REMARK                         _______ _______ _______ _____ _____    ______ ____
ROOT
ATOM      1  C   UNL     1       2.466   0.064   0.010  0.00  0.00    +0.000 C 
ENDROOT
BRANCH   1   2
ATOM      2  C   UNL     1       2.959  -0.804  -1.131  0.00  0.00    +0.000 A 
ATOM      3  C   UNL     1       3.750  -0.257  -2.151  0.00  0.00    +0.000 A 
ATOM      4  C   UNL     1       4.181  -1.050  -3.220  0.00  0.00    +0.000 A 
ATOM      5  C   UNL     1       3.834  -2.400  -3.276  0.00  0.00    +0.000 A 
ATOM      6  C   UNL     1       2.997  -2.938  -2.302  0.00  0.00    +0.000 A 
ATOM      7  C   UNL     1       2.565  -2.149  -1.241  0.00  0.00    +0.000 A 
BRANCH   5   8
ATOM      8  O   UNL     1       4.354  -3.110  -4.323  0.00  0.00    +0.000 OA
BRANCH   8   9
ATOM      9  C   UNL     1       4.430  -4.524  -4.098  0.00  0.00    +0.000 C 
BRANCH   9  10
ATOM     10  C   UNL     1       5.417  -5.169  -5.040  0.00  0.00    +0.000 A 
ATOM     11  C   UNL     1       5.554  -4.721  -6.350  0.00  0.00    +0.000 A 
ATOM     12  C   UNL     1       6.473  -5.355  -7.181  0.00  0.00    +0.000 A 
ATOM     13  C   UNL     1       7.214  -6.421  -6.688  0.00  0.00    +0.000 A 
ATOM     14  C   UNL     1       7.002  -6.818  -5.380  0.00  0.00    +0.000 A 
ATOM     15  N   UNL     1       6.119  -6.224  -4.551  0.00  0.00    +0.000 NA
ENDBRANCH   9  10
ENDBRANCH   8   9
ENDBRANCH   5   8
ENDBRANCH   1   2
BRANCH   1  16
ATOM     16  N   UNL     1       2.261  -0.699   1.212  0.00  0.00    +0.000 N 
ATOM     17  C   UNL     1       1.801  -0.148   2.381  0.00  0.00    +0.000 C 
ATOM     18  O   UNL     1       1.436   1.024   2.447  0.00  0.00    +0.000 OA
ATOM     19  H   UNL     1       2.860  -1.514   1.309  0.00  0.00    +0.000 HD
BRANCH  17  20
ATOM     20  C   UNL     1       1.649  -1.053   3.524  0.00  0.00    +0.000 A 
ATOM     21  C   UNL     1       0.688  -0.768   4.485  0.00  0.00    +0.000 A 
ATOM     22  S   UNL     1       0.626  -1.905   5.752  0.00  0.00    +0.000 S 
ATOM     23  C   UNL     1       1.906  -2.802   5.080  0.00  0.00    +0.000 A 
ATOM     24  N   UNL     1       2.391  -3.904   5.709  0.00  0.00    +0.000 NA
ATOM     25  C   UNL     1       3.378  -4.475   5.102  0.00  0.00    +0.000 A 
ATOM     26  N   UNL     1       3.909  -4.055   3.910  0.00  0.00    +0.000 N 
ATOM     27  C   UNL     1       3.422  -2.970   3.216  0.00  0.00    +0.000 A 
ATOM     28  O   UNL     1       3.860  -2.652   2.116  0.00  0.00    +0.000 OA
ATOM     29  C   UNL     1       2.343  -2.266   3.881  0.00  0.00    +0.000 A 
ATOM     30  H   UNL     1       4.665  -4.565   3.477  0.00  0.00    +0.000 HD
ENDBRANCH  17  20
ENDBRANCH   1  16
BRANCH   1  31
ATOM     31  N   UNL     1       1.184   0.626  -0.356  0.00  0.00    +0.000 NA
ATOM     32  H   UNL     1       0.882   1.194   0.439  0.00  0.00    +0.000 HD
ATOM     33  H   UNL     1       0.520  -0.141  -0.409  0.00  0.00    +0.000 HD
ENDBRANCH   1  31
TORSDOF 7
