REMARK  Name = 
REMARK  6 active torsions:
REMARK  status: ('A' for Active; 'I' for Inactive)
REMARK    1  A    between atoms: C_1  and  C_2
REMARK    2  A    between atoms: C_5  and  C_6
REMARK    3  A    between atoms: C_6  and  C_7
REMARK    4  A    between atoms: C_10  and  C_11
REMARK    5  A    between atoms: C_11  and  N_12
REMARK    6  A    between atoms: C_13  and  C_15
REMARK                            x       y       z     vdW  Elec       q    Type
REMARK                         _______ _______ _______ _____ _____    ______ ____
ROOT
ATOM      1  C   UNL     1      -5.102   2.892  -4.738  0.00  0.00    +0.000 C 
ENDROOT
BRANCH   1   5
ATOM      2  C   UNL     1      -3.676   0.869  -1.259  0.00  0.00    +0.000 A 
ATOM      3  C   UNL     1      -2.758   1.332  -2.205  0.00  0.00    +0.000 A 
ATOM      4  C   UNL     1      -3.209   2.000  -3.340  0.00  0.00    +0.000 A 
ATOM      5  C   UNL     1      -4.577   2.175  -3.517  0.00  0.00    +0.000 A 
ATOM      6  N   UNL     1      -5.490   1.745  -2.608  0.00  0.00    +0.000 NA
ATOM      7  C   UNL     1      -5.022   1.117  -1.504  0.00  0.00    +0.000 A 
BRANCH   2   8
ATOM      8  C   UNL     1      -3.239   0.124  -0.029  0.00  0.00    +0.000 C 
BRANCH   8  13
ATOM      9  C   UNL     1      -2.149   3.086   4.790  0.00  0.00    +0.000 C 
ATOM     10  C   UNL     1      -2.401   2.384   3.494  0.00  0.00    +0.000 A 
ATOM     11  C   UNL     1      -1.405   2.239   2.530  0.00  0.00    +0.000 A 
ATOM     12  C   UNL     1      -1.677   1.540   1.355  0.00  0.00    +0.000 A 
ATOM     13  C   UNL     1      -2.945   0.990   1.173  0.00  0.00    +0.000 A 
ATOM     14  N   UNL     1      -3.939   1.150   2.081  0.00  0.00    +0.000 NA
ATOM     15  C   UNL     1      -3.648   1.841   3.208  0.00  0.00    +0.000 A 
ENDBRANCH   8  13
ENDBRANCH   2   8
ENDBRANCH   1   5
BRANCH   1  16
ATOM     16  N   UNL     1      -5.256   4.311  -4.511  0.00  0.00    +0.000 N 
ATOM     17  C   UNL     1      -4.320   5.226  -4.905  0.00  0.00    +0.000 C 
ATOM     18  O   UNL     1      -3.286   4.898  -5.486  0.00  0.00    +0.000 OA
ATOM     19  H   UNL     1      -5.967   4.568  -3.833  0.00  0.00    +0.000 HD
BRANCH  17  20
ATOM     20  C   UNL     1      -4.646   6.640  -4.664  0.00  0.00    +0.000 A 
ATOM     21  C   UNL     1      -4.021   7.625  -5.417  0.00  0.00    +0.000 A 
ATOM     22  S   UNL     1      -4.552   9.206  -5.060  0.00  0.00    +0.000 S 
ATOM     23  C   UNL     1      -5.604   8.638  -3.850  0.00  0.00    +0.000 A 
ATOM     24  N   UNL     1      -6.360   9.501  -3.119  0.00  0.00    +0.000 NA
ATOM     25  C   UNL     1      -7.085   8.938  -2.211  0.00  0.00    +0.000 A 
ATOM     26  N   UNL     1      -7.130   7.589  -1.974  0.00  0.00    +0.000 N 
ATOM     27  C   UNL     1      -6.429   6.676  -2.725  0.00  0.00    +0.000 A 
ATOM     28  O   UNL     1      -6.564   5.471  -2.546  0.00  0.00    +0.000 OA
ATOM     29  C   UNL     1      -5.567   7.259  -3.736  0.00  0.00    +0.000 A 
ATOM     30  H   UNL     1      -7.734   7.207  -1.262  0.00  0.00    +0.000 HD
ENDBRANCH  17  20
ENDBRANCH   1  16
TORSDOF 5
