REMARK  Name = 
REMARK  11 active torsions:
REMARK  status: ('A' for Active; 'I' for Inactive)
REMARK    1  A    between atoms: C_1  and  C_2
REMARK    2  A    between atoms: C_2  and  N_3
REMARK    3  A    between atoms: C_2  and  C_21
REMARK    4  A    between atoms: N_3  and  C_4
REMARK    5  A    between atoms: C_4  and  C_5
REMARK    6  A    between atoms: C_8  and  C_9
REMARK    7  A    between atoms: C_9  and  O_10
REMARK    8  A    between atoms: C_9  and  C_11
REMARK    9  A    between atoms: C_11  and  N_12
REMARK   10  A    between atoms: C_16  and  C_17
REMARK   11  A    between atoms: C_17  and  O_18
REMARK                            x       y       z     vdW  Elec       q    Type
REMARK                         _______ _______ _______ _____ _____    ______ ____
ROOT
ATOM      1  C   UNL     1      -6.104   0.971  -2.686  0.00  0.00    +0.000 A 
ATOM      2  C   UNL     1      -5.461   1.511  -1.565  0.00  0.00    +0.000 A 
ATOM      3  C   UNL     1      -5.151   0.713  -0.460  0.00  0.00    +0.000 A 
ATOM      4  C   UNL     1      -5.488  -0.647  -0.448  0.00  0.00    +0.000 A 
ATOM      5  C   UNL     1      -6.149  -1.184  -1.566  0.00  0.00    +0.000 A 
ATOM      6  C   UNL     1      -6.451  -0.385  -2.673  0.00  0.00    +0.000 A 
ENDROOT
BRANCH   1   7
ATOM      7  C   UNL     1      -6.485   1.855  -3.851  0.00  0.00    +0.000 C 
BRANCH   7   8
ATOM      8  N   UNL     1      -5.321   2.523  -4.442  0.00  0.00    +0.000 NA
ATOM      9  H   UNL     1      -4.667   1.805  -4.747  0.00  0.00    +0.000 HD
BRANCH   8  11
ATOM     10  C   UNL     1      -6.685   4.457  -5.258  0.00  0.00    +0.000 C 
ATOM     11  C   UNL     1      -5.670   3.360  -5.604  0.00  0.00    +0.000 C 
BRANCH  11  12
ATOM     12  C   UNL     1      -4.391   3.978  -6.159  0.00  0.00    +0.000 A 
ATOM     13  C   UNL     1      -3.229   4.226  -5.443  0.00  0.00    +0.000 A 
ATOM     14  S   UNL     1      -1.978   4.904  -6.393  0.00  0.00    +0.000 S 
ATOM     15  C   UNL     1      -2.970   4.954  -7.774  0.00  0.00    +0.000 A 
ATOM     16  N   UNL     1      -2.518   5.461  -8.955  0.00  0.00    +0.000 NA
ATOM     17  C   UNL     1      -3.401   5.479  -9.896  0.00  0.00    +0.000 A 
ATOM     18  N   UNL     1      -4.693   5.031  -9.772  0.00  0.00    +0.000 N 
ATOM     19  C   UNL     1      -5.186   4.485  -8.611  0.00  0.00    +0.000 A 
ATOM     20  O   UNL     1      -6.343   4.080  -8.532  0.00  0.00    +0.000 OA
ATOM     21  C   UNL     1      -4.232   4.449  -7.517  0.00  0.00    +0.000 A 
ATOM     22  H   UNL     1      -5.336   5.088 -10.546  0.00  0.00    +0.000 HD
ENDBRANCH  11  12
ENDBRANCH   8  11
ENDBRANCH   7   8
ENDBRANCH   1   7
BRANCH   4  23
ATOM     23  C   UNL     1      -5.067  -1.526   0.719  0.00  0.00    +0.000 C 
BRANCH  23  24
ATOM     24  O   UNL     1      -4.127  -2.486   0.222  0.00  0.00    +0.000 OA
ATOM     25  H   UNL     1      -4.116  -2.443  -0.748  0.00  0.00    +0.000 HD
ENDBRANCH  23  24
BRANCH  23  26
ATOM     26  C   UNL     1      -6.277  -2.230   1.407  0.00  0.00    +0.000 C 
BRANCH  26  27
ATOM     27  N   UNL     1      -6.005  -2.962   2.680  0.00  0.00    +0.000 NA
ATOM     28  C   UNL     1      -5.071  -4.094   2.512  0.00  0.00    +0.000 C 
ATOM     29  C   UNL     1      -5.916  -5.209   1.934  0.00  0.00    +0.000 C 
ATOM     30  C   UNL     1      -7.200  -5.089   2.736  0.00  0.00    +0.000 C 
ATOM     31  C   UNL     1      -7.264  -3.615   3.163  0.00  0.00    +0.000 C 
BRANCH  31  32
ATOM     32  C   UNL     1      -7.370  -3.471   4.693  0.00  0.00    +0.000 C 
BRANCH  32  33
ATOM     33  O   UNL     1      -7.391  -2.090   5.047  0.00  0.00    +0.000 OA
ATOM     34  H   UNL     1      -6.644  -1.702   4.548  0.00  0.00    +0.000 HD
ENDBRANCH  32  33
ENDBRANCH  31  32
ENDBRANCH  26  27
ENDBRANCH  23  26
ENDBRANCH   4  23
TORSDOF 10
