REMARK  Name = 
REMARK  9 active torsions:
REMARK  status: ('A' for Active; 'I' for Inactive)
REMARK    1  A    between atoms: C_2  and  C_22
REMARK    2  A    between atoms: N_3  and  C_4
REMARK    3  A    between atoms: C_4  and  C_5
REMARK    4  A    between atoms: C_8  and  C_9
REMARK    5  A    between atoms: C_9  and  N_10
REMARK    6  A    between atoms: N_10  and  C_11
REMARK    7  A    between atoms: C_11  and  C_12
REMARK    8  A    between atoms: C_15  and  C_16
REMARK    9  A    between atoms: C_16  and  O_17
REMARK                            x       y       z     vdW  Elec       q    Type
REMARK                         _______ _______ _______ _____ _____    ______ ____
ROOT
ATOM      1  C   UNL     1      12.374  -3.265 -13.417  0.00  0.00    +0.000 A 
ATOM      2  N   UNL     1      11.356  -3.848 -12.746  0.00  0.00    +0.000 NA
ATOM      3  C   UNL     1      10.356  -3.029 -12.348  0.00  0.00    +0.000 A 
ATOM      4  C   UNL     1      10.318  -1.676 -12.623  0.00  0.00    +0.000 A 
ATOM      5  C   UNL     1      11.378  -1.208 -13.367  0.00  0.00    +0.000 A 
ATOM      6  N   UNL     1      12.406  -1.970 -13.774  0.00  0.00    +0.000 NA
ENDROOT
BRANCH   1   7
ATOM      7  C   UNL     1      13.542  -4.132 -13.840  0.00  0.00    +0.000 C 
BRANCH   7  10
ATOM      8  O   UNL     1      14.367  -3.290 -16.429  0.00  0.00    +0.000 OA
ATOM      9  C   UNL     1      13.640  -4.261 -16.293  0.00  0.00    +0.000 C 
ATOM     10  N   UNL     1      13.272  -4.813 -15.083  0.00  0.00    +0.000 N 
ATOM     11  H   UNL     1      12.420  -5.354 -15.074  0.00  0.00    +0.000 HD
BRANCH   9  12
ATOM     12  C   UNL     1      12.868  -4.846 -17.377  0.00  0.00    +0.000 A 
ATOM     13  C   UNL     1      12.306  -4.069 -18.374  0.00  0.00    +0.000 A 
ATOM     14  S   UNL     1      10.897  -4.822 -18.999  0.00  0.00    +0.000 S 
ATOM     15  C   UNL     1      11.206  -6.256 -18.122  0.00  0.00    +0.000 A 
ATOM     16  N   UNL     1      10.320  -7.285 -18.068  0.00  0.00    +0.000 NA
ATOM     17  C   UNL     1      10.752  -8.321 -17.429  0.00  0.00    +0.000 A 
ATOM     18  N   UNL     1      12.007  -8.445 -16.877  0.00  0.00    +0.000 N 
ATOM     19  C   UNL     1      12.931  -7.418 -16.872  0.00  0.00    +0.000 A 
ATOM     20  O   UNL     1      14.046  -7.553 -16.413  0.00  0.00    +0.000 OA
ATOM     21  C   UNL     1      12.428  -6.203 -17.490  0.00  0.00    +0.000 A 
ATOM     22  H   UNL     1      12.311  -9.317 -16.479  0.00  0.00    +0.000 HD
ENDBRANCH   9  12
ENDBRANCH   7  10
ENDBRANCH   1   7
BRANCH   4  23
ATOM     23  C   UNL     1       9.227  -0.765 -12.160  0.00  0.00    +0.000 C 
BRANCH  23  24
ATOM     24  N   UNL     1       9.161  -0.715 -10.701  0.00  0.00    +0.000 NA
ATOM     25  H   UNL     1      10.065  -0.401 -10.348  0.00  0.00    +0.000 HD
BRANCH  24  26
ATOM     26  C   UNL     1       8.122   0.218 -10.257  0.00  0.00    +0.000 C 
BRANCH  26  27
ATOM     27  C   UNL     1       8.025   0.276  -8.715  0.00  0.00    +0.000 C 
ATOM     28  C   UNL     1       9.326   0.725  -8.026  0.00  0.00    +0.000 C 
ATOM     29  C   UNL     1       9.649   2.194  -8.298  0.00  0.00    +0.000 C 
ATOM     30  C   UNL     1       8.511   3.132  -7.862  0.00  0.00    +0.000 C 
ATOM     31  C   UNL     1       7.170   2.684  -8.468  0.00  0.00    +0.000 C 
ATOM     32  C   UNL     1       6.866   1.194  -8.284  0.00  0.00    +0.000 C 
BRANCH  30  33
ATOM     33  C   UNL     1       8.429   3.267  -6.333  0.00  0.00    +0.000 C 
BRANCH  33  34
ATOM     34  O   UNL     1       9.629   3.831  -5.814  0.00  0.00    +0.000 OA
ATOM     35  H   UNL     1       9.645   4.771  -6.062  0.00  0.00    +0.000 HD
ENDBRANCH  33  34
ENDBRANCH  30  33
ENDBRANCH  26  27
ENDBRANCH  24  26
ENDBRANCH  23  24
ENDBRANCH   4  23
TORSDOF 9
