REMARK  Name = 
REMARK  7 active torsions:
REMARK  status: ('A' for Active; 'I' for Inactive)
REMARK    1  A    between atoms: C_1  and  C_2
REMARK    2  A    between atoms: C_2  and  C_3
REMARK    3  A    between atoms: C_2  and  C_4
REMARK    4  A    between atoms: C_2  and  C_19
REMARK    5  A    between atoms: C_5  and  C_6
REMARK    6  A    between atoms: C_10  and  C_11
REMARK    7  A    between atoms: C_22  and  C_23
REMARK                            x       y       z     vdW  Elec       q    Type
REMARK                         _______ _______ _______ _____ _____    ______ ____
ROOT
ATOM      1  C   UNL     1       2.999  -0.306  -1.282  0.00  0.00    +0.000 C 
ATOM      2  C   UNL     1       2.682  -1.292  -2.141  0.00  0.00    +0.000 C 
ENDROOT
BRANCH   2   3
ATOM      3  C   UNL     1       3.251  -1.478  -3.483  0.00  0.00    +0.000 A 
ATOM      4  C   UNL     1       4.504  -0.976  -3.845  0.00  0.00    +0.000 A 
ATOM      5  C   UNL     1       5.018  -1.218  -5.115  0.00  0.00    +0.000 A 
ATOM      6  C   UNL     1       4.302  -2.001  -6.021  0.00  0.00    +0.000 A 
ATOM      7  C   UNL     1       3.069  -2.582  -5.675  0.00  0.00    +0.000 A 
ATOM      8  C   UNL     1       2.550  -2.278  -4.403  0.00  0.00    +0.000 A 
BRANCH   7   9
ATOM      9  C   UNL     1       2.395  -3.544  -6.578  0.00  0.00    +0.000 A 
ATOM     10  C   UNL     1       3.159  -4.453  -7.340  0.00  0.00    +0.000 A 
ATOM     11  C   UNL     1       2.555  -5.405  -8.164  0.00  0.00    +0.000 A 
ATOM     12  C   UNL     1       1.174  -5.474  -8.229  0.00  0.00    +0.000 A 
ATOM     13  F   UNL     1       0.594  -6.398  -9.005  0.00  0.00    +0.000 F 
ATOM     14  C   UNL     1       0.386  -4.599  -7.493  0.00  0.00    +0.000 A 
ATOM     15  C   UNL     1       0.993  -3.636  -6.678  0.00  0.00    +0.000 A 
ENDBRANCH   7   9
ENDBRANCH   2   3
BRANCH   1  17
ATOM     16  C   UNL     1       3.456  -0.761   1.117  0.00  0.00    +0.000 C 
ATOM     17  C   UNL     1       2.447  -0.116   0.135  0.00  0.00    +0.000 C 
ATOM     18  C   UNL     1       2.466   1.404   0.446  0.00  0.00    +0.000 C 
BRANCH  17  19
ATOM     19  C   UNL     1       1.030  -0.712   0.284  0.00  0.00    +0.000 A 
ATOM     20  C   UNL     1      -0.120   0.043  -0.007  0.00  0.00    +0.000 A 
ATOM     21  C   UNL     1      -1.401  -0.520   0.048  0.00  0.00    +0.000 A 
ATOM     22  C   UNL     1      -1.563  -1.869   0.366  0.00  0.00    +0.000 A 
ATOM     23  C   UNL     1      -0.440  -2.641   0.666  0.00  0.00    +0.000 A 
ATOM     24  C   UNL     1       0.836  -2.066   0.628  0.00  0.00    +0.000 A 
BRANCH  22  25
ATOM     25  C   UNL     1      -2.936  -2.434   0.375  0.00  0.00    +0.000 C 
ATOM     26  N   UNL     1      -3.065  -3.777   0.143  0.00  0.00    +0.000 N 
ATOM     27  O   UNL     1      -3.924  -1.729   0.543  0.00  0.00    +0.000 OA
ATOM     28  H   UNL     1      -2.319  -4.336  -0.241  0.00  0.00    +0.000 HD
ATOM     29  H   UNL     1      -4.012  -4.121   0.042  0.00  0.00    +0.000 HD
ENDBRANCH  22  25
ENDBRANCH  17  19
ENDBRANCH   1  17
TORSDOF 5
