REMARK  Name = 
REMARK  5 active torsions:
REMARK  status: ('A' for Active; 'I' for Inactive)
REMARK    1  A    between atoms: C_2  and  C_4
REMARK    2  A    between atoms: C_7  and  O_8
REMARK    3  A    between atoms: O_8  and  C_9
REMARK    4  A    between atoms: C_9  and  C_10
REMARK    5  A    between atoms: C_14  and  C_15
REMARK                            x       y       z     vdW  Elec       q    Type
REMARK                         _______ _______ _______ _____ _____    ______ ____
ROOT
ATOM      1  C   UNL     1       5.054   3.084   4.952  0.00  0.00    +0.000 C 
ENDROOT
BRANCH   1   2
ATOM      2  C   UNL     1       6.019   3.921   5.749  0.00  0.00    +0.000 A 
ATOM      3  C   UNL     1       6.998   3.305   6.518  0.00  0.00    +0.000 A 
ATOM      4  N   UNL     1       7.854   3.968   7.321  0.00  0.00    +0.000 NA
ATOM      5  C   UNL     1       7.718   5.316   7.372  0.00  0.00    +0.000 A 
ATOM      6  C   UNL     1       6.779   6.062   6.655  0.00  0.00    +0.000 A 
ATOM      7  C   UNL     1       5.920   5.316   5.831  0.00  0.00    +0.000 A 
BRANCH   6   8
ATOM      8  C   UNL     1       6.685   7.531   6.761  0.00  0.00    +0.000 A 
ATOM      9  C   UNL     1       7.806   8.342   6.993  0.00  0.00    +0.000 A 
ATOM     10  C   UNL     1       7.678   9.728   7.079  0.00  0.00    +0.000 A 
ATOM     11  C   UNL     1       6.422  10.284   6.922  0.00  0.00    +0.000 A 
ATOM     12  N   UNL     1       5.311   9.557   6.699  0.00  0.00    +0.000 NA
ATOM     13  C   UNL     1       5.470   8.211   6.630  0.00  0.00    +0.000 A 
ENDBRANCH   6   8
ENDBRANCH   1   2
BRANCH   1  14
ATOM     14  O   UNL     1       4.605   3.791   3.788  0.00  0.00    +0.000 OA
BRANCH  14  18
ATOM     15  C   UNL     1       1.856   1.657   1.588  0.00  0.00    +0.000 A 
ATOM     16  C   UNL     1       2.235   2.935   1.170  0.00  0.00    +0.000 A 
ATOM     17  C   UNL     1       3.163   3.650   1.925  0.00  0.00    +0.000 A 
ATOM     18  C   UNL     1       3.683   3.060   3.067  0.00  0.00    +0.000 A 
ATOM     19  N   UNL     1       3.331   1.830   3.498  0.00  0.00    +0.000 NA
ATOM     20  C   UNL     1       2.417   1.160   2.755  0.00  0.00    +0.000 A 
BRANCH  15  22
ATOM     21  N   UNL     1       0.739   1.016  -0.473  0.00  0.00    +0.000 N 
ATOM     22  C   UNL     1       0.876   0.817   0.872  0.00  0.00    +0.000 C 
ATOM     23  O   UNL     1       0.241  -0.053   1.451  0.00  0.00    +0.000 OA
ATOM     24  H   UNL     1       0.147   0.355  -0.961  0.00  0.00    +0.000 HD
ATOM     25  H   UNL     1       1.413   1.531  -1.021  0.00  0.00    +0.000 HD
ENDBRANCH  15  22
ENDBRANCH  14  18
ENDBRANCH   1  14
TORSDOF 5
