REMARK  Name = 
REMARK  5 active torsions:
REMARK  status: ('A' for Active; 'I' for Inactive)
REMARK    1  A    between atoms: C_2  and  C_4
REMARK    2  A    between atoms: C_8  and  C_9
REMARK    3  A    between atoms: C_9  and  C_10
REMARK    4  A    between atoms: C_10  and  C_11
REMARK    5  A    between atoms: C_15  and  C_16
REMARK                            x       y       z     vdW  Elec       q    Type
REMARK                         _______ _______ _______ _____ _____    ______ ____
ROOT
ATOM      1  C   UNL     1       7.078   3.076  -2.796  0.00  0.00    +0.000 C 
ATOM      2  C   UNL     1       7.326   4.270  -1.884  0.00  0.00    +0.000 C 
ATOM      3  C   UNL     1       6.768   4.512  -3.248  0.00  0.00    +0.000 C 
ENDROOT
BRANCH   1   4
ATOM      4  C   UNL     1       8.276   2.475  -3.523  0.00  0.00    +0.000 A 
ATOM      5  C   UNL     1       8.236   2.273  -4.903  0.00  0.00    +0.000 A 
ATOM      6  C   UNL     1       9.426   2.130  -5.604  0.00  0.00    +0.000 A 
ATOM      7  C   UNL     1      10.629   2.151  -4.908  0.00  0.00    +0.000 A 
ATOM      8  C   UNL     1      10.603   2.246  -3.520  0.00  0.00    +0.000 A 
ATOM      9  N   UNL     1       9.445   2.393  -2.838  0.00  0.00    +0.000 NA
BRANCH   8  10
ATOM     10  C   UNL     1      11.813   2.240  -2.690  0.00  0.00    +0.000 A 
ATOM     11  C   UNL     1      12.999   2.889  -3.064  0.00  0.00    +0.000 A 
ATOM     12  C   UNL     1      14.118   2.833  -2.236  0.00  0.00    +0.000 A 
ATOM     13  C   UNL     1      14.025   2.129  -1.048  0.00  0.00    +0.000 A 
ATOM     14  F   UNL     1      15.109   2.057  -0.264  0.00  0.00    +0.000 F 
ATOM     15  N   UNL     1      12.908   1.506  -0.630  0.00  0.00    +0.000 NA
ATOM     16  C   UNL     1      11.833   1.589  -1.453  0.00  0.00    +0.000 A 
ENDBRANCH   8  10
ENDBRANCH   1   4
BRANCH   1  17
ATOM     17  C   UNL     1       5.857   2.212  -2.583  0.00  0.00    +0.000 C 
BRANCH  17  22
ATOM     18  C   UNL     1       4.707  -1.009  -0.958  0.00  0.00    +0.000 A 
ATOM     19  C   UNL     1       5.827  -1.436  -0.245  0.00  0.00    +0.000 A 
ATOM     20  C   UNL     1       6.985  -0.650  -0.248  0.00  0.00    +0.000 A 
ATOM     21  C   UNL     1       7.045   0.553  -0.970  0.00  0.00    +0.000 A 
ATOM     22  C   UNL     1       5.943   0.973  -1.722  0.00  0.00    +0.000 A 
ATOM     23  C   UNL     1       4.777   0.184  -1.687  0.00  0.00    +0.000 A 
BRANCH  18  25
ATOM     24  N   UNL     1       3.151  -2.619   0.017  0.00  0.00    +0.000 N 
ATOM     25  C   UNL     1       3.437  -1.776  -1.018  0.00  0.00    +0.000 C 
ATOM     26  O   UNL     1       2.638  -1.633  -1.941  0.00  0.00    +0.000 OA
ATOM     27  H   UNL     1       2.222  -3.020   0.013  0.00  0.00    +0.000 HD
ATOM     28  H   UNL     1       3.636  -2.567   0.901  0.00  0.00    +0.000 HD
ENDBRANCH  18  25
ENDBRANCH  17  22
ENDBRANCH   1  17
TORSDOF 5
