REMARK  Name = 
REMARK  8 active torsions:
REMARK  status: ('A' for Active; 'I' for Inactive)
REMARK    1  A    between atoms: C_1  and  C_2
REMARK    2  A    between atoms: C_2  and  C_3
REMARK    3  A    between atoms: C_3  and  N_4
REMARK    4  A    between atoms: C_3  and  C_17
REMARK    5  A    between atoms: C_5  and  C_7
REMARK    6  A    between atoms: C_20  and  C_21
REMARK    7  A    between atoms: C_21  and  N_22
REMARK    8  A    between atoms: C_23  and  C_25
REMARK                            x       y       z     vdW  Elec       q    Type
REMARK                         _______ _______ _______ _____ _____    ______ ____
ROOT
ATOM      1  C   UNL     1       2.907   0.384  -1.299  0.00  0.00    +0.000 C 
ENDROOT
BRANCH   1   2
ATOM      2  C   UNL     1       4.430   0.476  -1.425  0.00  0.00    +0.000 A 
ATOM      3  C   UNL     1       5.124  -0.314  -2.352  0.00  0.00    +0.000 A 
ATOM      4  C   UNL     1       6.524  -0.260  -2.436  0.00  0.00    +0.000 A 
ATOM      5  C   UNL     1       7.263   0.585  -1.596  0.00  0.00    +0.000 A 
ATOM      6  C   UNL     1       6.568   1.406  -0.699  0.00  0.00    +0.000 A 
ATOM      7  C   UNL     1       5.173   1.348  -0.611  0.00  0.00    +0.000 A 
BRANCH   5   8
ATOM      8  C   UNL     1       8.770   0.591  -1.634  0.00  0.00    +0.000 C 
BRANCH   8   9
ATOM      9  N   UNL     1       9.310   1.513  -2.595  0.00  0.00    +0.000 N 
ATOM     10  C   UNL     1      10.669   1.703  -2.723  0.00  0.00    +0.000 C 
ATOM     11  O   UNL     1      11.499   1.125  -2.027  0.00  0.00    +0.000 OA
ATOM     12  H   UNL     1       8.716   2.002  -3.259  0.00  0.00    +0.000 HD
BRANCH  10  13
ATOM     13  C   UNL     1      11.046   2.670  -3.770  0.00  0.00    +0.000 A 
ATOM     14  C   UNL     1      12.364   3.039  -4.152  0.00  0.00    +0.000 A 
ATOM     15  C   UNL     1      12.209   3.971  -5.149  0.00  0.00    +0.000 A 
ATOM     16  N   UNL     1      10.866   4.116  -5.316  0.00  0.00    +0.000 N 
ATOM     17  N   UNL     1      10.129   3.335  -4.506  0.00  0.00    +0.000 NA
ATOM     18  H   UNL     1      10.382   4.730  -5.964  0.00  0.00    +0.000 HD
ENDBRANCH  10  13
ENDBRANCH   8   9
ENDBRANCH   5   8
ENDBRANCH   1   2
BRANCH   1  19
ATOM     19  N   UNL     1       2.342   1.699  -1.579  0.00  0.00    +0.000 N 
ATOM     20  C   UNL     1       1.000   1.971  -1.647  0.00  0.00    +0.000 C 
ATOM     21  O   UNL     1       0.129   1.155  -1.365  0.00  0.00    +0.000 OA
ATOM     22  H   UNL     1       2.968   2.326  -2.072  0.00  0.00    +0.000 HD
BRANCH  20  23
ATOM     23  C   UNL     1       0.651   3.343  -2.038  0.00  0.00    +0.000 A 
ATOM     24  C   UNL     1      -0.518   3.932  -1.575  0.00  0.00    +0.000 A 
ATOM     25  S   UNL     1      -0.753   5.521  -2.155  0.00  0.00    +0.000 S 
ATOM     26  C   UNL     1       0.674   5.457  -3.075  0.00  0.00    +0.000 A 
ATOM     27  N   UNL     1       1.054   6.499  -3.867  0.00  0.00    +0.000 NA
ATOM     28  C   UNL     1       2.145   6.300  -4.526  0.00  0.00    +0.000 A 
ATOM     29  N   UNL     1       2.906   5.161  -4.455  0.00  0.00    +0.000 N 
ATOM     30  C   UNL     1       2.587   4.105  -3.639  0.00  0.00    +0.000 A 
ATOM     31  O   UNL     1       3.330   3.135  -3.537  0.00  0.00    +0.000 OA
ATOM     32  C   UNL     1       1.346   4.261  -2.906  0.00  0.00    +0.000 A 
ATOM     33  H   UNL     1       3.769   5.075  -4.970  0.00  0.00    +0.000 HD
ENDBRANCH  20  23
ENDBRANCH   1  19
BRANCH   1  35
ATOM     34  C   UNL     1       3.010  -1.528   0.410  0.00  0.00    +0.000 C 
ATOM     35  C   UNL     1       2.479  -0.139   0.089  0.00  0.00    +0.000 C 
ENDBRANCH   1  35
TORSDOF 7
