REMARK  Name = 
REMARK  6 active torsions:
REMARK  status: ('A' for Active; 'I' for Inactive)
REMARK    1  A    between atoms: N_1  and  C_2
REMARK    2  A    between atoms: C_2  and  C_3
REMARK    3  A    between atoms: C_6  and  C_7
REMARK    4  A    between atoms: C_7  and  C_8
REMARK    5  A    between atoms: C_8  and  C_9
REMARK    6  A    between atoms: C_14  and  N_15
REMARK                            x       y       z     vdW  Elec       q    Type
REMARK                         _______ _______ _______ _____ _____    ______ ____
ROOT
ATOM      1  C   UNL     1       3.943   3.291  -4.320  0.00  0.00    +0.000 C 
ENDROOT
BRANCH   1   5
ATOM      2  C   UNL     1       2.980   0.694  -0.962  0.00  0.00    +0.000 A 
ATOM      3  C   UNL     1       2.104   1.721  -1.331  0.00  0.00    +0.000 A 
ATOM      4  C   UNL     1       2.411   2.583  -2.389  0.00  0.00    +0.000 A 
ATOM      5  C   UNL     1       3.614   2.455  -3.095  0.00  0.00    +0.000 A 
ATOM      6  C   UNL     1       4.501   1.438  -2.708  0.00  0.00    +0.000 A 
ATOM      7  C   UNL     1       4.191   0.571  -1.652  0.00  0.00    +0.000 A 
BRANCH   2   8
ATOM      8  C   UNL     1       2.608  -0.267   0.138  0.00  0.00    +0.000 C 
BRANCH   8   9
ATOM      9  N   UNL     1       1.393  -1.005  -0.195  0.00  0.00    +0.000 NA
ATOM     10  H   UNL     1       1.236  -1.728   0.503  0.00  0.00    +0.000 HD
ATOM     11  H   UNL     1       1.537  -1.484  -1.083  0.00  0.00    +0.000 HD
ENDBRANCH   8   9
ENDBRANCH   2   8
ENDBRANCH   1   5
BRANCH   1  12
ATOM     12  C   UNL     1       3.367   4.713  -4.331  0.00  0.00    +0.000 C 
BRANCH  12  13
ATOM     13  C   UNL     1       3.645   5.457  -5.614  0.00  0.00    +0.000 A 
ATOM     14  C   UNL     1       2.733   5.352  -6.677  0.00  0.00    +0.000 A 
ATOM     15  C   UNL     1       2.951   6.056  -7.854  0.00  0.00    +0.000 A 
ATOM     16  C   UNL     1       4.087   6.837  -7.936  0.00  0.00    +0.000 A 
ATOM     17  N   UNL     1       5.001   6.939  -6.947  0.00  0.00    +0.000 NA
ATOM     18  C   UNL     1       4.772   6.256  -5.811  0.00  0.00    +0.000 A 
BRANCH  18  19
ATOM     19  N   UNL     1       5.763   6.388  -4.842  0.00  0.00    +0.000 N 
ATOM     20  H   UNL     1       6.444   7.042  -5.224  0.00  0.00    +0.000 HD
ATOM     21  H   UNL     1       5.380   6.727  -3.968  0.00  0.00    +0.000 HD
ENDBRANCH  18  19
ENDBRANCH  12  13
ENDBRANCH   1  12
TORSDOF 6
