REMARK  Name = 
REMARK  6 active torsions:
REMARK  status: ('A' for Active; 'I' for Inactive)
REMARK    1  A    between atoms: N_1  and  C_2
REMARK    2  A    between atoms: C_2  and  C_3
REMARK    3  A    between atoms: N_5  and  C_6
REMARK    4  A    between atoms: C_6  and  C_7
REMARK    5  A    between atoms: C_18  and  O_19
REMARK    6  A    between atoms: C_20  and  O_21
REMARK                            x       y       z     vdW  Elec       q    Type
REMARK                         _______ _______ _______ _____ _____    ______ ____
ROOT
ATOM      1  C   UNL     1       3.025   1.150  -0.914  0.00  0.00    +0.000 C 
ATOM      2  C   UNL     1       3.778   2.090   0.043  0.00  0.00    +0.000 C 
ATOM      3  N   UNL     1       2.881   2.815   0.970  0.00  0.00    +0.000 NA
ATOM      4  C   UNL     1       1.905   3.624   0.210  0.00  0.00    +0.000 C 
ATOM      5  C   UNL     1       1.093   2.801  -0.805  0.00  0.00    +0.000 C 
ATOM      6  C   UNL     1       2.030   1.993  -1.721  0.00  0.00    +0.000 C 
ENDROOT
BRANCH   5   7
ATOM      7  O   UNL     1       0.263   3.664  -1.592  0.00  0.00    +0.000 OA
ATOM      8  H   UNL     1       0.787   3.994  -2.344  0.00  0.00    +0.000 HD
ENDBRANCH   5   7
BRANCH   6   9
ATOM      9  O   UNL     1       1.300   1.181  -2.642  0.00  0.00    +0.000 OA
ATOM     10  H   UNL     1       0.372   1.139  -2.348  0.00  0.00    +0.000 HD
ENDBRANCH   6   9
BRANCH   1  11
ATOM     11  C   UNL     1       2.352  -0.040  -0.200  0.00  0.00    +0.000 C 
BRANCH  11  12
ATOM     12  N   UNL     1       3.323  -0.911   0.466  0.00  0.00    +0.000 NA
ATOM     13  H   UNL     1       2.855  -1.767   0.764  0.00  0.00    +0.000 HD
ATOM     14  H   UNL     1       3.643  -0.464   1.326  0.00  0.00    +0.000 HD
ENDBRANCH  11  12
ENDBRANCH   1  11
BRANCH   3  15
ATOM     15  C   UNL     1       3.624   3.693   1.900  0.00  0.00    +0.000 C 
BRANCH  15  16
ATOM     16  C   UNL     1       4.576   2.953   2.805  0.00  0.00    +0.000 A 
ATOM     17  C   UNL     1       5.898   2.752   2.432  0.00  0.00    +0.000 A 
ATOM     18  N   UNL     1       6.776   2.010   3.135  0.00  0.00    +0.000 NA
ATOM     19  C   UNL     1       6.330   1.460   4.288  0.00  0.00    +0.000 A 
ATOM     20  C   UNL     1       7.126   0.653   5.072  0.00  0.00    +0.000 A 
ATOM     21  N   UNL     1       6.762   0.101   6.252  0.00  0.00    +0.000 NA
ATOM     22  C   UNL     1       5.516   0.382   6.648  0.00  0.00    +0.000 A 
ATOM     23  N   UNL     1       4.623   1.119   5.970  0.00  0.00    +0.000 NA
ATOM     24  C   UNL     1       5.038   1.638   4.798  0.00  0.00    +0.000 A 
ATOM     25  C   UNL     1       4.166   2.389   4.020  0.00  0.00    +0.000 A 
ENDBRANCH  15  16
ENDBRANCH   3  15
TORSDOF 6
