REMARK  Name = 
REMARK  7 active torsions:
REMARK  status: ('A' for Active; 'I' for Inactive)
REMARK    1  A    between atoms: C_1  and  C_2
REMARK    2  A    between atoms: C_2  and  N_3
REMARK    3  A    between atoms: C_2  and  C_16
REMARK    4  A    between atoms: C_4  and  C_6
REMARK    5  A    between atoms: C_19  and  C_20
REMARK    6  A    between atoms: C_20  and  N_21
REMARK    7  A    between atoms: C_22  and  C_24
REMARK                            x       y       z     vdW  Elec       q    Type
REMARK                         _______ _______ _______ _____ _____    ______ ____
ROOT
ATOM      1  C   UNL     1       0.686   0.798  -2.081  0.00  0.00    +0.000 C 
ATOM      2  C   UNL     1       0.120   1.424  -0.800  0.00  0.00    +0.000 C 
ENDROOT
BRANCH   2   3
ATOM      3  C   UNL     1       0.913   2.646  -0.353  0.00  0.00    +0.000 A 
ATOM      4  C   UNL     1       1.086   2.906   1.016  0.00  0.00    +0.000 A 
ATOM      5  C   UNL     1       1.806   4.027   1.449  0.00  0.00    +0.000 A 
ATOM      6  C   UNL     1       2.355   4.925   0.524  0.00  0.00    +0.000 A 
ATOM      7  C   UNL     1       2.171   4.678  -0.841  0.00  0.00    +0.000 A 
ATOM      8  C   UNL     1       1.444   3.565  -1.272  0.00  0.00    +0.000 A 
BRANCH   6   9
ATOM      9  C   UNL     1       3.127   6.132   0.978  0.00  0.00    +0.000 C 
BRANCH   9  10
ATOM     10  N   UNL     1       4.536   5.853   1.128  0.00  0.00    +0.000 N 
ATOM     11  C   UNL     1       5.402   6.866   1.499  0.00  0.00    +0.000 C 
ATOM     12  O   UNL     1       5.016   8.005   1.747  0.00  0.00    +0.000 OA
ATOM     13  H   UNL     1       4.913   4.993   0.748  0.00  0.00    +0.000 HD
BRANCH  11  14
ATOM     14  C   UNL     1       6.879   6.422   1.572  0.00  0.00    +0.000 C 
ATOM     15  C   UNL     1       7.823   7.530   2.006  0.00  0.00    +0.000 C 
ATOM     16  C   UNL     1       7.680   7.542   3.517  0.00  0.00    +0.000 C 
ATOM     17  C   UNL     1       7.325   6.107   3.879  0.00  0.00    +0.000 C 
ATOM     18  N   UNL     1       7.059   5.395   2.622  0.00  0.00    +0.000 NA
ATOM     19  H   UNL     1       6.215   4.832   2.716  0.00  0.00    +0.000 HD
ENDBRANCH  11  14
ENDBRANCH   9  10
ENDBRANCH   6   9
ENDBRANCH   2   3
BRANCH   2  20
ATOM     20  N   UNL     1      -1.279   1.789  -0.931  0.00  0.00    +0.000 N 
ATOM     21  C   UNL     1      -2.294   0.890  -1.133  0.00  0.00    +0.000 C 
ATOM     22  O   UNL     1      -2.095  -0.312  -1.261  0.00  0.00    +0.000 OA
ATOM     23  H   UNL     1      -1.490   2.781  -0.900  0.00  0.00    +0.000 HD
BRANCH  21  24
ATOM     24  C   UNL     1      -3.657   1.443  -1.119  0.00  0.00    +0.000 A 
ATOM     25  C   UNL     1      -4.731   0.615  -0.819  0.00  0.00    +0.000 A 
ATOM     26  S   UNL     1      -6.233   1.424  -0.797  0.00  0.00    +0.000 S 
ATOM     27  C   UNL     1      -5.509   2.896  -1.246  0.00  0.00    +0.000 A 
ATOM     28  N   UNL     1      -6.264   4.015  -1.434  0.00  0.00    +0.000 NA
ATOM     29  C   UNL     1      -5.593   5.051  -1.813  0.00  0.00    +0.000 A 
ATOM     30  N   UNL     1      -4.235   5.071  -2.015  0.00  0.00    +0.000 N 
ATOM     31  C   UNL     1      -3.432   3.982  -1.786  0.00  0.00    +0.000 A 
ATOM     32  O   UNL     1      -2.212   4.062  -1.893  0.00  0.00    +0.000 OA
ATOM     33  C   UNL     1      -4.137   2.780  -1.386  0.00  0.00    +0.000 A 
ATOM     34  H   UNL     1      -3.766   5.920  -2.295  0.00  0.00    +0.000 HD
ENDBRANCH  21  24
ENDBRANCH   2  20
TORSDOF 6
