REMARK  Name = 
REMARK  5 active torsions:
REMARK  status: ('A' for Active; 'I' for Inactive)
REMARK    1  A    between atoms: C_7  and  C_8
REMARK    2  A    between atoms: N_10  and  C_11
REMARK    3  A    between atoms: C_11  and  C_12
REMARK    4  A    between atoms: C_15  and  C_16
REMARK    5  A    between atoms: C_16  and  N_17
REMARK                            x       y       z     vdW  Elec       q    Type
REMARK                         _______ _______ _______ _____ _____    ______ ____
ROOT
ATOM      1  C   UNL     1      -2.407  -2.192   1.166  0.00  0.00    +0.000 C 
ATOM      2  O   UNL     1      -3.061  -2.330   2.197  0.00  0.00    +0.000 OA
ATOM      3  N   UNL     1      -2.294  -3.198   0.237  0.00  0.00    +0.000 N 
ATOM      4  H   UNL     1      -1.792  -3.025  -0.630  0.00  0.00    +0.000 HD
ENDROOT
BRANCH   1  11
ATOM      5  N   UNL     1       1.617   1.549  -2.702  0.00  0.00    +0.000 N 
ATOM      6  C   UNL     1       0.779   0.911  -1.847  0.00  0.00    +0.000 A 
ATOM      7  N   UNL     1       0.412   1.488  -0.738  0.00  0.00    +0.000 NA
ATOM      8  C   UNL     1      -0.412   0.733   0.024  0.00  0.00    +0.000 A 
ATOM      9  N   UNL     1      -0.919   1.146   1.218  0.00  0.00    +0.000 N 
ATOM     10  C   UNL     1      -1.697   0.146   1.740  0.00  0.00    +0.000 A 
ATOM     11  C   UNL     1      -1.694  -0.945   0.873  0.00  0.00    +0.000 A 
ATOM     12  C   UNL     1      -0.886  -0.536  -0.230  0.00  0.00    +0.000 A 
ATOM     13  C   UNL     1      -0.485  -1.141  -1.475  0.00  0.00    +0.000 A 
ATOM     14  O   UNL     1      -0.865  -2.246  -1.852  0.00  0.00    +0.000 OA
ATOM     15  N   UNL     1       0.369  -0.350  -2.220  0.00  0.00    +0.000 N 
ATOM     16  H   UNL     1       2.058   2.356  -2.271  0.00  0.00    +0.000 HD
ATOM     17  H   UNL     1       2.270   0.977  -3.220  0.00  0.00    +0.000 HD
ATOM     18  H   UNL     1      -0.736   2.048   1.638  0.00  0.00    +0.000 HD
ATOM     19  H   UNL     1       0.642  -0.720  -3.114  0.00  0.00    +0.000 HD
ENDBRANCH   1  11
BRANCH   3  20
ATOM     20  C   UNL     1      -2.985  -4.458   0.376  0.00  0.00    +0.000 C 
BRANCH  20  21
ATOM     21  C   UNL     1      -2.046  -5.618   0.360  0.00  0.00    +0.000 A 
ATOM     22  C   UNL     1      -1.482  -6.135   1.509  0.00  0.00    +0.000 A 
ATOM     23  N   UNL     1      -0.649  -7.198   1.528  0.00  0.00    +0.000 NA
ATOM     24  C   UNL     1      -0.363  -7.768   0.337  0.00  0.00    +0.000 A 
ATOM     25  N   UNL     1      -0.838  -7.319  -0.843  0.00  0.00    +0.000 NA
ATOM     26  C   UNL     1      -1.667  -6.256  -0.801  0.00  0.00    +0.000 A 
BRANCH  24  27
ATOM     27  C   UNL     1       0.591  -8.930   0.321  0.00  0.00    +0.000 C 
BRANCH  27  28
ATOM     28  N   UNL     1      -0.096 -10.203   0.479  0.00  0.00    +0.000 N 
ATOM     29  C   UNL     1      -0.766 -10.649   1.589  0.00  0.00    +0.000 A 
ATOM     30  C   UNL     1      -1.122 -11.951   1.330  0.00  0.00    +0.000 A 
ATOM     31  C   UNL     1      -0.599 -12.216   0.053  0.00  0.00    +0.000 A 
ATOM     32  N   UNL     1       0.048 -11.167  -0.461  0.00  0.00    +0.000 NA
ENDBRANCH  27  28
ENDBRANCH  24  27
ENDBRANCH  20  21
ENDBRANCH   3  20
TORSDOF 5
