REMARK  Name = 
REMARK  5 active torsions:
REMARK  status: ('A' for Active; 'I' for Inactive)
REMARK    1  A    between atoms: C_1  and  C_2
REMARK    2  A    between atoms: C_2  and  N_3
REMARK    3  A    between atoms: C_2  and  C_13
REMARK    4  A    between atoms: C_7  and  C_8
REMARK    5  A    between atoms: C_16  and  C_17
REMARK                            x       y       z     vdW  Elec       q    Type
REMARK                         _______ _______ _______ _____ _____    ______ ____
ROOT
ATOM      1  N   UNL     1       2.850   1.284   0.858  0.00  0.00    +0.000 N 
ATOM      2  C   UNL     1       3.013   2.462   0.136  0.00  0.00    +0.000 A 
ATOM      3  N   UNL     1       2.271   2.707  -0.953  0.00  0.00    +0.000 NA
ATOM      4  C   UNL     1       2.515   3.850  -1.632  0.00  0.00    +0.000 A 
ATOM      5  C   UNL     1       3.456   4.774  -1.250  0.00  0.00    +0.000 A 
ATOM      6  C   UNL     1       4.162   4.441  -0.119  0.00  0.00    +0.000 A 
ATOM      7  N   UNL     1       3.960   3.300   0.585  0.00  0.00    +0.000 NA
ATOM      8  H   UNL     1       3.734   1.160   1.342  0.00  0.00    +0.000 HD
ENDROOT
BRANCH   5   9
ATOM      9  C   UNL     1       3.680   5.981  -2.057  0.00  0.00    +0.000 C 
ATOM     10  N   UNL     1       4.237   7.072  -1.450  0.00  0.00    +0.000 N 
ATOM     11  O   UNL     1       3.352   6.018  -3.236  0.00  0.00    +0.000 OA
ATOM     12  H   UNL     1       4.311   7.185  -0.449  0.00  0.00    +0.000 HD
ATOM     13  H   UNL     1       4.294   7.912  -2.015  0.00  0.00    +0.000 HD
ENDBRANCH   5   9
BRANCH   1  15
ATOM     14  C   UNL     1       0.920   0.035  -0.046  0.00  0.00    +0.000 C 
ATOM     15  C   UNL     1       2.449   0.132   0.046  0.00  0.00    +0.000 C 
BRANCH  15  16
ATOM     16  C   UNL     1       3.008  -1.168   0.628  0.00  0.00    +0.000 A 
ATOM     17  C   UNL     1       2.629  -1.628   1.891  0.00  0.00    +0.000 A 
ATOM     18  C   UNL     1       3.076  -2.877   2.320  0.00  0.00    +0.000 A 
ATOM     19  C   UNL     1       3.903  -3.640   1.494  0.00  0.00    +0.000 A 
ATOM     20  C   UNL     1       4.267  -3.091   0.275  0.00  0.00    +0.000 A 
ATOM     21  N   UNL     1       3.845  -1.884  -0.167  0.00  0.00    +0.000 NA
BRANCH  19  22
ATOM     22  C   UNL     1       4.383  -5.010   1.856  0.00  0.00    +0.000 C 
ATOM     23  F   UNL     1       3.938  -5.439   3.070  0.00  0.00    +0.000 F 
ATOM     24  F   UNL     1       3.984  -5.956   0.960  0.00  0.00    +0.000 F 
ATOM     25  F   UNL     1       5.741  -5.095   1.905  0.00  0.00    +0.000 F 
ENDBRANCH  19  22
ENDBRANCH  15  16
ENDBRANCH   1  15
TORSDOF 4
