REMARK  Name = 
REMARK  7 active torsions:
REMARK  status: ('A' for Active; 'I' for Inactive)
REMARK    1  A    between atoms: C_1  and  O_2
REMARK    2  A    between atoms: O_2  and  C_3
REMARK    3  A    between atoms: C_5  and  C_6
REMARK    4  A    between atoms: C_11  and  N_12
REMARK    5  A    between atoms: N_12  and  C_13
REMARK    6  A    between atoms: C_13  and  C_14
REMARK    7  A    between atoms: C_18  and  C_19
REMARK                            x       y       z     vdW  Elec       q    Type
REMARK                         _______ _______ _______ _____ _____    ______ ____
ROOT
ATOM      1  N   UNL     1       4.319  -0.705  -1.602  0.00  0.00    +0.000 N 
ATOM      2  H   UNL     1       5.326  -0.573  -1.600  0.00  0.00    +0.000 HD
ENDROOT
BRANCH   1   8
ATOM      3  C   UNL     1       4.343   0.292  -3.819  0.00  0.00    +0.000 A 
ATOM      4  C   UNL     1       3.798   0.358  -5.106  0.00  0.00    +0.000 A 
ATOM      5  C   UNL     1       2.751  -0.488  -5.468  0.00  0.00    +0.000 A 
ATOM      6  C   UNL     1       2.304  -1.385  -4.516  0.00  0.00    +0.000 A 
ATOM      7  N   UNL     1       2.816  -1.485  -3.265  0.00  0.00    +0.000 NA
ATOM      8  C   UNL     1       3.838  -0.669  -2.918  0.00  0.00    +0.000 A 
BRANCH   5   9
ATOM      9  C   UNL     1       2.162  -0.365  -6.823  0.00  0.00    +0.000 C 
ATOM     10  N   UNL     1       1.122  -1.179  -7.175  0.00  0.00    +0.000 N 
ATOM     11  O   UNL     1       2.590   0.460  -7.624  0.00  0.00    +0.000 OA
ATOM     12  H   UNL     1       0.680  -1.870  -6.594  0.00  0.00    +0.000 HD
ATOM     13  H   UNL     1       0.741  -1.038  -8.106  0.00  0.00    +0.000 HD
ENDBRANCH   5   9
BRANCH   3  15
ATOM     14  C   UNL     1       5.534   2.325  -4.101  0.00  0.00    +0.000 C 
ATOM     15  O   UNL     1       5.373   1.099  -3.387  0.00  0.00    +0.000 OA
ENDBRANCH   3  15
ENDBRANCH   1   8
BRANCH   1  16
ATOM     16  C   UNL     1       3.857  -1.790  -0.746  0.00  0.00    +0.000 C 
BRANCH  16  17
ATOM     17  C   UNL     1       4.633  -3.074  -0.952  0.00  0.00    +0.000 A 
ATOM     18  C   UNL     1       4.124  -4.092  -1.766  0.00  0.00    +0.000 A 
ATOM     19  C   UNL     1       4.839  -5.274  -1.948  0.00  0.00    +0.000 A 
ATOM     20  C   UNL     1       6.078  -5.444  -1.331  0.00  0.00    +0.000 A 
ATOM     21  C   UNL     1       6.636  -4.439  -0.522  0.00  0.00    +0.000 A 
ATOM     22  C   UNL     1       5.883  -3.262  -0.337  0.00  0.00    +0.000 A 
BRANCH  21  23
ATOM     23  C   UNL     1       7.980  -4.588   0.075  0.00  0.00    +0.000 A 
ATOM     24  C   UNL     1       8.305  -4.080   1.341  0.00  0.00    +0.000 A 
ATOM     25  C   UNL     1       9.605  -4.188   1.838  0.00  0.00    +0.000 A 
ATOM     26  C   UNL     1      10.556  -4.823   1.061  0.00  0.00    +0.000 A 
ATOM     27  N   UNL     1      10.297  -5.346  -0.152  0.00  0.00    +0.000 NA
ATOM     28  C   UNL     1       9.027  -5.211  -0.611  0.00  0.00    +0.000 A 
ENDBRANCH  21  23
ENDBRANCH  16  17
ENDBRANCH   1  16
TORSDOF 6
