REMARK  Name = 
REMARK  8 active torsions:
REMARK  status: ('A' for Active; 'I' for Inactive)
REMARK    1  A    between atoms: C_1  and  C_2
REMARK    2  A    between atoms: C_2  and  O_3
REMARK    3  A    between atoms: C_5  and  O_6
REMARK    4  A    between atoms: O_6  and  C_7
REMARK    5  A    between atoms: C_9  and  C_10
REMARK    6  A    between atoms: C_10  and  C_13
REMARK    7  A    between atoms: C_13  and  N_14
REMARK    8  A    between atoms: C_18  and  C_19
REMARK                            x       y       z     vdW  Elec       q    Type
REMARK                         _______ _______ _______ _____ _____    ______ ____
ROOT
ATOM      1  C   UNL     1      10.092  -0.892   1.538  0.00  0.00    +0.000 C 
ATOM      2  F   UNL     1      10.563  -0.103   0.527  0.00  0.00    +0.000 F 
ATOM      3  F   UNL     1      10.047  -0.070   2.635  0.00  0.00    +0.000 F 
ENDROOT
BRANCH   1   6
ATOM      4  C   UNL     1       6.386  -0.900   0.637  0.00  0.00    +0.000 A 
ATOM      5  C   UNL     1       7.689  -0.491   0.934  0.00  0.00    +0.000 A 
ATOM      6  C   UNL     1       8.703  -1.425   1.206  0.00  0.00    +0.000 A 
ATOM      7  C   UNL     1       8.378  -2.791   1.153  0.00  0.00    +0.000 A 
ATOM      8  C   UNL     1       7.082  -3.204   0.831  0.00  0.00    +0.000 A 
ATOM      9 CL   UNL     1       6.740  -4.893   0.782  0.00  0.00    +0.000 Cl
ATOM     10  C   UNL     1       6.090  -2.265   0.569  0.00  0.00    +0.000 A 
ATOM     11  F   UNL     1       4.845  -2.667   0.273  0.00  0.00    +0.000 F 
BRANCH   4  12
ATOM     12  O   UNL     1       5.359  -0.013   0.408  0.00  0.00    +0.000 OA
BRANCH  12  16
ATOM     13  C   UNL     1       3.474   2.589   3.576  0.00  0.00    +0.000 C 
ATOM     14  C   UNL     1       3.944   1.584   2.537  0.00  0.00    +0.000 C 
ATOM     15  C   UNL     1       5.471   1.327   2.579  0.00  0.00    +0.000 C 
ATOM     16  C   UNL     1       5.456   1.293   1.028  0.00  0.00    +0.000 C 
ATOM     17  C   UNL     1       4.153   2.123   1.097  0.00  0.00    +0.000 C 
BRANCH  14  18
ATOM     18  O   UNL     1       3.104   0.412   2.609  0.00  0.00    +0.000 OA
ATOM     19  H   UNL     1       3.268   0.018   3.482  0.00  0.00    +0.000 HD
ENDBRANCH  14  18
ENDBRANCH  12  16
ENDBRANCH   4  12
ENDBRANCH   1   6
BRANCH   1  20
ATOM     20  C   UNL     1      11.128  -1.999   1.831  0.00  0.00    +0.000 C 
BRANCH  20  21
ATOM     21  N   UNL     1      12.485  -1.511   2.148  0.00  0.00    +0.000 N 
ATOM     22  C   UNL     1      13.357  -2.565   2.480  0.00  0.00    +0.000 A 
ATOM     23  C   UNL     1      14.691  -2.297   2.808  0.00  0.00    +0.000 A 
ATOM     24  N   UNL     1      15.599  -3.249   3.150  0.00  0.00    +0.000 NA
ATOM     25  C   UNL     1      15.113  -4.521   3.129  0.00  0.00    +0.000 A 
ATOM     26  C   UNL     1      13.806  -4.811   2.780  0.00  0.00    +0.000 A 
ATOM     27  N   UNL     1      12.913  -3.843   2.449  0.00  0.00    +0.000 NA
ATOM     28  H   UNL     1      12.476  -0.813   2.890  0.00  0.00    +0.000 HD
BRANCH  25  29
ATOM     29  C   UNL     1      16.025  -5.627   3.525  0.00  0.00    +0.000 C 
ATOM     30  N   UNL     1      17.292  -5.253   3.882  0.00  0.00    +0.000 N 
ATOM     31  O   UNL     1      15.666  -6.795   3.541  0.00  0.00    +0.000 OA
ATOM     32  H   UNL     1      17.560  -4.275   3.862  0.00  0.00    +0.000 HD
ATOM     33  H   UNL     1      17.954  -5.958   4.170  0.00  0.00    +0.000 HD
ENDBRANCH  25  29
ENDBRANCH  20  21
ENDBRANCH   1  20
TORSDOF 7
