REMARK  Name = 
REMARK  3 active torsions:
REMARK  status: ('A' for Active; 'I' for Inactive)
REMARK    1  A    between atoms: C_2  and  C_4
REMARK    2  A    between atoms: N_8  and  C_9
REMARK    3  A    between atoms: C_9  and  C_10
REMARK                            x       y       z     vdW  Elec       q    Type
REMARK                         _______ _______ _______ _____ _____    ______ ____
ROOT
ATOM      1  C   UNL     1       2.851  -1.121  -0.636  0.00  0.00    +0.000 A 
ATOM      2  C   UNL     1       4.228  -0.991  -0.497  0.00  0.00    +0.000 A 
ATOM      3  C   UNL     1       5.057  -1.952  -1.080  0.00  0.00    +0.000 A 
ATOM      4  C   UNL     1       4.504  -3.004  -1.813  0.00  0.00    +0.000 A 
ATOM      5  N   UNL     1       5.416  -3.866  -2.456  0.00  0.00    +0.000 N 
ATOM      6  N   UNL     1       3.170  -3.150  -1.924  0.00  0.00    +0.000 NA
ATOM      7  C   UNL     1       2.373  -2.224  -1.326  0.00  0.00    +0.000 A 
ATOM      8  H   UNL     1       5.984  -4.344  -1.755  0.00  0.00    +0.000 HD
ENDROOT
BRANCH   1  10
ATOM      9  N   UNL     1       2.325   1.147   0.051  0.00  0.00    +0.000 N 
ATOM     10  C   UNL     1       1.892  -0.144  -0.081  0.00  0.00    +0.000 C 
ATOM     11  O   UNL     1       0.748  -0.463   0.211  0.00  0.00    +0.000 OA
ATOM     12  H   UNL     1       1.624   1.827   0.324  0.00  0.00    +0.000 HD
ATOM     13  H   UNL     1       3.150   1.494  -0.413  0.00  0.00    +0.000 HD
ENDBRANCH   1  10
BRANCH   5  14
ATOM     14  C   UNL     1       5.083  -4.766  -3.601  0.00  0.00    +0.000 C 
ATOM     15  C   UNL     1       5.090  -4.060  -4.961  0.00  0.00    +0.000 C 
ATOM     16  C   UNL     1       3.829  -4.680  -4.455  0.00  0.00    +0.000 C 
BRANCH  14  17
ATOM     17  C   UNL     1       5.818  -6.140  -3.524  0.00  0.00    +0.000 A 
ATOM     18  N   UNL     1       6.512  -6.425  -2.391  0.00  0.00    +0.000 NA
ATOM     19  C   UNL     1       7.193  -7.587  -2.359  0.00  0.00    +0.000 A 
ATOM     20  C   UNL     1       7.229  -8.478  -3.402  0.00  0.00    +0.000 A 
ATOM     21  C   UNL     1       6.502  -8.118  -4.507  0.00  0.00    +0.000 A 
ATOM     22  N   UNL     1       5.799  -6.973  -4.593  0.00  0.00    +0.000 NA
ENDBRANCH  14  17
ENDBRANCH   5  14
TORSDOF 3
