REMARK  Name = 
REMARK  7 active torsions:
REMARK  status: ('A' for Active; 'I' for Inactive)
REMARK    1  A    between atoms: C_1  and  C_2
REMARK    2  A    between atoms: C_2  and  N_3
REMARK    3  A    between atoms: C_2  and  C_12
REMARK    4  A    between atoms: C_4  and  C_6
REMARK    5  A    between atoms: C_15  and  C_16
REMARK    6  A    between atoms: C_16  and  N_17
REMARK    7  A    between atoms: C_18  and  C_20
REMARK                            x       y       z     vdW  Elec       q    Type
REMARK                         _______ _______ _______ _____ _____    ______ ____
ROOT
ATOM      1  C   UNL     1       6.377   4.917  -5.499  0.00  0.00    +0.000 A 
ATOM      2  C   UNL     1       7.358   4.801  -4.502  0.00  0.00    +0.000 A 
ATOM      3  C   UNL     1       8.646   5.318  -4.700  0.00  0.00    +0.000 A 
ATOM      4  C   UNL     1       8.982   5.961  -5.897  0.00  0.00    +0.000 A 
ATOM      5  C   UNL     1       8.006   6.078  -6.893  0.00  0.00    +0.000 A 
ATOM      6  C   UNL     1       6.719   5.575  -6.691  0.00  0.00    +0.000 A 
ENDROOT
BRANCH   1   8
ATOM      7  C   UNL     1       3.899   5.373  -5.302  0.00  0.00    +0.000 C 
ATOM      8  C   UNL     1       4.995   4.308  -5.305  0.00  0.00    +0.000 C 
BRANCH   8   9
ATOM      9  N   UNL     1       4.748   3.333  -6.358  0.00  0.00    +0.000 N 
ATOM     10  C   UNL     1       4.002   2.197  -6.184  0.00  0.00    +0.000 C 
ATOM     11  O   UNL     1       3.435   1.939  -5.119  0.00  0.00    +0.000 OA
ATOM     12  H   UNL     1       5.085   3.568  -7.277  0.00  0.00    +0.000 HD
BRANCH  10  13
ATOM     13  C   UNL     1       3.958   1.197  -7.379  0.00  0.00    +0.000 C 
ATOM     14  C   UNL     1       4.766   1.539  -8.639  0.00  0.00    +0.000 C 
ATOM     15  C   UNL     1       6.278   1.394  -8.452  0.00  0.00    +0.000 C 
ATOM     16  C   UNL     1       6.644   0.082  -7.768  0.00  0.00    +0.000 C 
ATOM     17  C   UNL     1       5.767  -0.207  -6.553  0.00  0.00    +0.000 C 
ATOM     18  N   UNL     1       4.345  -0.152  -6.900  0.00  0.00    +0.000 NA
ATOM     19  H   UNL     1       3.795  -0.342  -6.056  0.00  0.00    +0.000 HD
ENDBRANCH  10  13
ENDBRANCH   8   9
ENDBRANCH   1   8
BRANCH   4  20
ATOM     20  C   UNL     1      10.379   6.467  -6.152  0.00  0.00    +0.000 C 
BRANCH  20  21
ATOM     21  N   UNL     1      11.187   5.451  -6.781  0.00  0.00    +0.000 N 
ATOM     22  C   UNL     1      12.519   5.654  -7.037  0.00  0.00    +0.000 C 
ATOM     23  O   UNL     1      13.095   6.686  -6.704  0.00  0.00    +0.000 OA
ATOM     24  H   UNL     1      10.696   4.702  -7.259  0.00  0.00    +0.000 HD
BRANCH  22  25
ATOM     25  C   UNL     1      13.237   4.548  -7.681  0.00  0.00    +0.000 A 
ATOM     26  C   UNL     1      14.617   4.443  -7.527  0.00  0.00    +0.000 A 
ATOM     27  S   UNL     1      15.292   3.090  -8.314  0.00  0.00    +0.000 S 
ATOM     28  C   UNL     1      13.777   2.618  -8.926  0.00  0.00    +0.000 A 
ATOM     29  N   UNL     1      13.656   1.525  -9.726  0.00  0.00    +0.000 NA
ATOM     30  C   UNL     1      12.456   1.300 -10.145  0.00  0.00    +0.000 A 
ATOM     31  N   UNL     1      11.363   2.065  -9.828  0.00  0.00    +0.000 N 
ATOM     32  C   UNL     1      11.431   3.157  -8.995  0.00  0.00    +0.000 A 
ATOM     33  O   UNL     1      10.424   3.787  -8.689  0.00  0.00    +0.000 OA
ATOM     34  C   UNL     1      12.764   3.468  -8.515  0.00  0.00    +0.000 A 
ATOM     35  H   UNL     1      10.448   1.827 -10.179  0.00  0.00    +0.000 HD
ENDBRANCH  22  25
ENDBRANCH  20  21
ENDBRANCH   4  20
TORSDOF 6
