REMARK  Name = 
REMARK  7 active torsions:
REMARK  status: ('A' for Active; 'I' for Inactive)
REMARK    1  A    between atoms: C_2  and  C_19
REMARK    2  A    between atoms: N_3  and  C_4
REMARK    3  A    between atoms: C_4  and  C_5
REMARK    4  A    between atoms: C_8  and  C_9
REMARK    5  A    between atoms: C_9  and  N_10
REMARK    6  A    between atoms: N_10  and  C_11
REMARK    7  A    between atoms: C_14  and  O_15
REMARK                            x       y       z     vdW  Elec       q    Type
REMARK                         _______ _______ _______ _____ _____    ______ ____
ROOT
ATOM      1  C   UNL     1       2.429  -6.470  13.258  0.00  0.00    +0.000 C 
ENDROOT
BRANCH   1   2
ATOM      2  C   UNL     1       3.253  -6.145  12.039  0.00  0.00    +0.000 A 
ATOM      3  C   UNL     1       4.063  -5.002  12.014  0.00  0.00    +0.000 A 
ATOM      4  C   UNL     1       4.862  -4.720  10.902  0.00  0.00    +0.000 A 
ATOM      5  C   UNL     1       4.858  -5.569   9.788  0.00  0.00    +0.000 A 
ATOM      6  C   UNL     1       4.020  -6.694   9.802  0.00  0.00    +0.000 A 
ATOM      7  C   UNL     1       3.218  -6.973  10.911  0.00  0.00    +0.000 A 
BRANCH   5   8
ATOM      8  C   UNL     1       5.728  -5.279   8.585  0.00  0.00    +0.000 C 
BRANCH   8   9
ATOM      9  N   UNL     1       7.151  -5.358   8.922  0.00  0.00    +0.000 NA
ATOM     10  H   UNL     1       7.320  -6.274   9.331  0.00  0.00    +0.000 HD
BRANCH   9  11
ATOM     11  C   UNL     1       8.034  -5.120   7.772  0.00  0.00    +0.000 C 
ATOM     12  C   UNL     1       9.507  -5.161   8.246  0.00  0.00    +0.000 C 
ATOM     13  C   UNL     1      10.191  -6.304   7.487  0.00  0.00    +0.000 C 
ATOM     14  C   UNL     1       9.051  -7.188   7.007  0.00  0.00    +0.000 C 
ATOM     15  C   UNL     1       7.972  -6.178   6.656  0.00  0.00    +0.000 C 
BRANCH  14  16
ATOM     16  O   UNL     1       8.601  -8.071   8.027  0.00  0.00    +0.000 OA
ATOM     17  H   UNL     1       8.762  -7.659   8.892  0.00  0.00    +0.000 HD
ENDBRANCH  14  16
ENDBRANCH   9  11
ENDBRANCH   8   9
ENDBRANCH   5   8
ENDBRANCH   1   2
BRANCH   1  20
ATOM     18  O   UNL     1       1.749  -4.046  14.504  0.00  0.00    +0.000 OA
ATOM     19  C   UNL     1       0.909  -4.615  13.814  0.00  0.00    +0.000 C 
ATOM     20  N   UNL     1       1.143  -5.826  13.218  0.00  0.00    +0.000 N 
ATOM     21  H   UNL     1       0.485  -6.180  12.532  0.00  0.00    +0.000 HD
BRANCH  19  22
ATOM     22  C   UNL     1      -0.430  -4.045  13.623  0.00  0.00    +0.000 A 
ATOM     23  C   UNL     1      -0.930  -3.140  14.549  0.00  0.00    +0.000 A 
ATOM     24  S   UNL     1      -2.481  -2.546  14.152  0.00  0.00    +0.000 S 
ATOM     25  C   UNL     1      -2.516  -3.452  12.712  0.00  0.00    +0.000 A 
ATOM     26  N   UNL     1      -3.571  -3.360  11.853  0.00  0.00    +0.000 NA
ATOM     27  C   UNL     1      -3.447  -4.067  10.783  0.00  0.00    +0.000 A 
ATOM     28  N   UNL     1      -2.379  -4.877  10.499  0.00  0.00    +0.000 N 
ATOM     29  C   UNL     1      -1.342  -5.078  11.378  0.00  0.00    +0.000 A 
ATOM     30  O   UNL     1      -0.489  -5.935  11.172  0.00  0.00    +0.000 OA
ATOM     31  C   UNL     1      -1.390  -4.239  12.563  0.00  0.00    +0.000 A 
ATOM     32  H   UNL     1      -2.367  -5.441   9.662  0.00  0.00    +0.000 HD
ENDBRANCH  19  22
ENDBRANCH   1  20
TORSDOF 7
