REMARK  Name = 
REMARK  9 active torsions:
REMARK  status: ('A' for Active; 'I' for Inactive)
REMARK    1  A    between atoms: C_1  and  O_2
REMARK    2  A    between atoms: O_2  and  C_3
REMARK    3  A    between atoms: C_10  and  C_11
REMARK    4  A    between atoms: N_13  and  C_14
REMARK    5  A    between atoms: C_14  and  C_15
REMARK    6  A    between atoms: C_18  and  N_19
REMARK    7  A    between atoms: N_19  and  C_20
REMARK    8  A    between atoms: C_20  and  C_21
REMARK    9  A    between atoms: C_21  and  N_22
REMARK                            x       y       z     vdW  Elec       q    Type
REMARK                         _______ _______ _______ _____ _____    ______ ____
ROOT
ATOM      1  C   UNL     1       2.927   1.394  -3.117  0.00  0.00    +0.000 C 
ENDROOT
BRANCH   1   2
ATOM      2  C   UNL     1       1.771   0.444  -3.277  0.00  0.00    +0.000 A 
ATOM      3  C   UNL     1       1.987  -0.936  -3.344  0.00  0.00    +0.000 A 
ATOM      4  C   UNL     1       0.910  -1.821  -3.480  0.00  0.00    +0.000 A 
ATOM      5  C   UNL     1      -0.405  -1.350  -3.547  0.00  0.00    +0.000 A 
ATOM      6  C   UNL     1      -0.604   0.035  -3.561  0.00  0.00    +0.000 A 
ATOM      7  C   UNL     1       0.465   0.924  -3.417  0.00  0.00    +0.000 A 
BRANCH   5   8
ATOM      8  N   UNL     1      -1.535  -2.168  -3.644  0.00  0.00    +0.000 N 
ATOM      9  H   UNL     1      -1.938  -2.088  -4.577  0.00  0.00    +0.000 HD
BRANCH   8  10
ATOM     10  C   UNL     1      -1.474  -3.562  -3.191  0.00  0.00    +0.000 C 
BRANCH  10  11
ATOM     11  C   UNL     1      -1.383  -3.659  -1.646  0.00  0.00    +0.000 C 
BRANCH  11  12
ATOM     12  N   UNL     1      -1.169  -5.035  -1.165  0.00  0.00    +0.000 NA
ATOM     13  C   UNL     1      -2.324  -5.937  -1.350  0.00  0.00    +0.000 C 
ATOM     14  C   UNL     1      -3.365  -5.972  -0.216  0.00  0.00    +0.000 C 
ATOM     15  O   UNL     1      -2.762  -6.088   1.076  0.00  0.00    +0.000 OA
ATOM     16  C   UNL     1      -1.843  -5.011   1.280  0.00  0.00    +0.000 C 
ATOM     17  C   UNL     1      -0.715  -5.071   0.241  0.00  0.00    +0.000 C 
ENDBRANCH  11  12
ENDBRANCH  10  11
ENDBRANCH   8  10
ENDBRANCH   5   8
ENDBRANCH   1   2
BRANCH   1  20
ATOM     18  C   UNL     1       4.582   2.533  -4.530  0.00  0.00    +0.000 C 
ATOM     19  O   UNL     1       5.172   2.973  -3.544  0.00  0.00    +0.000 OA
ATOM     20  N   UNL     1       3.466   1.753  -4.402  0.00  0.00    +0.000 N 
ATOM     21  H   UNL     1       2.943   1.474  -5.221  0.00  0.00    +0.000 HD
BRANCH  18  29
ATOM     22  C   UNL     1       3.506   1.555  -7.658  0.00  0.00    +0.000 A 
ATOM     23  N   UNL     1       3.331   1.303  -8.970  0.00  0.00    +0.000 NA
ATOM     24  C   UNL     1       4.196   1.844  -9.832  0.00  0.00    +0.000 A 
ATOM     25  N   UNL     1       5.233   2.626  -9.544  0.00  0.00    +0.000 NA
ATOM     26  C   UNL     1       5.368   2.857  -8.228  0.00  0.00    +0.000 A 
ATOM     27  S   UNL     1       6.634   3.843  -7.676  0.00  0.00    +0.000 S 
ATOM     28  C   UNL     1       6.161   3.632  -6.058  0.00  0.00    +0.000 A 
ATOM     29  C   UNL     1       5.048   2.816  -5.900  0.00  0.00    +0.000 A 
ATOM     30  C   UNL     1       4.563   2.367  -7.200  0.00  0.00    +0.000 A 
BRANCH  22  32
ATOM     31  C   UNL     1       1.909  -0.114  -7.265  0.00  0.00    +0.000 C 
ATOM     32  O   UNL     1       2.581   1.041  -6.771  0.00  0.00    +0.000 OA
ENDBRANCH  22  32
ENDBRANCH  18  29
ENDBRANCH   1  20
TORSDOF 8
