REMARK  Name = 
REMARK  5 active torsions:
REMARK  status: ('A' for Active; 'I' for Inactive)
REMARK    1  A    between atoms: C_1  and  C_2
REMARK    2  A    between atoms: C_2  and  N_3
REMARK    3  A    between atoms: C_2  and  C_13
REMARK    4  A    between atoms: N_3  and  C_4
REMARK    5  A    between atoms: C_7  and  C_8
REMARK                            x       y       z     vdW  Elec       q    Type
REMARK                         _______ _______ _______ _____ _____    ______ ____
ROOT
ATOM      1  C   UNL     1       0.180   0.951   0.342  0.00  0.00    +0.000 A 
ATOM      2  C   UNL     1      -1.168   0.828   0.017  0.00  0.00    +0.000 A 
ATOM      3  N   UNL     1      -2.088   1.813   0.090  0.00  0.00    +0.000 NA
ATOM      4  C   UNL     1      -1.622   3.002   0.532  0.00  0.00    +0.000 A 
ATOM      5  N   UNL     1      -0.352   3.254   0.909  0.00  0.00    +0.000 NA
ATOM      6  C   UNL     1       0.509   2.216   0.804  0.00  0.00    +0.000 A 
ENDROOT
BRANCH   4   7
ATOM      7  C   UNL     1      -2.632   4.129   0.589  0.00  0.00    +0.000 C 
ATOM      8  N   UNL     1      -3.898   3.804   0.153  0.00  0.00    +0.000 N 
ATOM      9  O   UNL     1      -2.380   5.266   0.981  0.00  0.00    +0.000 OA
ATOM     10  H   UNL     1      -4.085   2.867  -0.178  0.00  0.00    +0.000 HD
ATOM     11  H   UNL     1      -4.620   4.508   0.149  0.00  0.00    +0.000 HD
ENDBRANCH   4   7
BRANCH   1  12
ATOM     12  N   UNL     1       1.028  -0.139   0.236  0.00  0.00    +0.000 N 
ATOM     13  H   UNL     1       0.812  -0.886   0.891  0.00  0.00    +0.000 HD
BRANCH  12  15
ATOM     14  C   UNL     1       3.319  -0.406   1.134  0.00  0.00    +0.000 C 
ATOM     15  C   UNL     1       2.457   0.001  -0.064  0.00  0.00    +0.000 C 
BRANCH  15  16
ATOM     16  C   UNL     1       2.840  -0.881  -1.248  0.00  0.00    +0.000 A 
ATOM     17  C   UNL     1       3.947  -0.524  -2.038  0.00  0.00    +0.000 A 
ATOM     18  C   UNL     1       4.387  -1.353  -3.072  0.00  0.00    +0.000 A 
ATOM     19  C   UNL     1       3.727  -2.550  -3.335  0.00  0.00    +0.000 A 
ATOM     20  C   UNL     1       2.623  -2.918  -2.569  0.00  0.00    +0.000 A 
ATOM     21  C   UNL     1       2.184  -2.092  -1.532  0.00  0.00    +0.000 A 
ENDBRANCH  15  16
ENDBRANCH  12  15
ENDBRANCH   1  12
TORSDOF 4
