REMARK  Name = 
REMARK  6 active torsions:
REMARK  status: ('A' for Active; 'I' for Inactive)
REMARK    1  A    between atoms: C_2  and  C_19
REMARK    2  A    between atoms: N_3  and  C_4
REMARK    3  A    between atoms: C_4  and  C_5
REMARK    4  A    between atoms: C_8  and  C_9
REMARK    5  A    between atoms: C_9  and  N_10
REMARK    6  A    between atoms: N_10  and  C_11
REMARK                            x       y       z     vdW  Elec       q    Type
REMARK                         _______ _______ _______ _____ _____    ______ ____
ROOT
ATOM      1  C   UNL     1       2.266   1.450   1.838  0.00  0.00    +0.000 C 
ENDROOT
BRANCH   1   2
ATOM      2  C   UNL     1       3.210   2.104   2.864  0.00  0.00    +0.000 C 
ATOM      3  C   UNL     1       3.276   1.310   4.180  0.00  0.00    +0.000 C 
ATOM      4  C   UNL     1       4.095   2.017   5.259  0.00  0.00    +0.000 C 
ATOM      5  C   UNL     1       3.579   3.438   5.501  0.00  0.00    +0.000 C 
ATOM      6  C   UNL     1       3.572   4.237   4.189  0.00  0.00    +0.000 C 
ATOM      7  C   UNL     1       2.741   3.544   3.117  0.00  0.00    +0.000 C 
BRANCH   5   8
ATOM      8  C   UNL     1       4.344   4.168   6.621  0.00  0.00    +0.000 C 
BRANCH   8   9
ATOM      9  N   UNL     1       5.747   4.439   6.302  0.00  0.00    +0.000 NA
ATOM     10  H   UNL     1       5.813   4.993   5.449  0.00  0.00    +0.000 HD
BRANCH   9  11
ATOM     11  C   UNL     1       6.470   5.110   7.395  0.00  0.00    +0.000 C 
ATOM     12  C   UNL     1       5.979   6.532   7.717  0.00  0.00    +0.000 C 
ATOM     13  C   UNL     1       6.379   7.559   6.657  0.00  0.00    +0.000 C 
ATOM     14  N   UNL     1       7.820   7.566   6.407  0.00  0.00    +0.000 NA
ATOM     15  C   UNL     1       8.296   6.238   6.010  0.00  0.00    +0.000 C 
ATOM     16  C   UNL     1       7.970   5.175   7.059  0.00  0.00    +0.000 C 
ATOM     17  H   UNL     1       8.308   7.855   7.255  0.00  0.00    +0.000 HD
ENDBRANCH   9  11
ENDBRANCH   8   9
ENDBRANCH   5   8
ENDBRANCH   1   2
BRANCH   1  20
ATOM     18  O   UNL     1       3.853   0.760  -0.390  0.00  0.00    +0.000 OA
ATOM     19  C   UNL     1       3.505  -0.124   0.387  0.00  0.00    +0.000 C 
ATOM     20  N   UNL     1       2.693   0.122   1.462  0.00  0.00    +0.000 N 
ATOM     21  H   UNL     1       2.522  -0.617   2.136  0.00  0.00    +0.000 HD
BRANCH  19  22
ATOM     22  C   UNL     1       3.909  -1.520   0.188  0.00  0.00    +0.000 A 
ATOM     23  C   UNL     1       4.286  -1.952  -1.076  0.00  0.00    +0.000 A 
ATOM     24  S   UNL     1       4.775  -3.585  -1.123  0.00  0.00    +0.000 S 
ATOM     25  C   UNL     1       4.538  -3.760   0.553  0.00  0.00    +0.000 A 
ATOM     26  N   UNL     1       4.837  -4.928   1.185  0.00  0.00    +0.000 NA
ATOM     27  C   UNL     1       4.663  -4.900   2.463  0.00  0.00    +0.000 A 
ATOM     28  N   UNL     1       4.191  -3.821   3.166  0.00  0.00    +0.000 N 
ATOM     29  C   UNL     1       3.746  -2.678   2.549  0.00  0.00    +0.000 A 
ATOM     30  O   UNL     1       3.107  -1.834   3.168  0.00  0.00    +0.000 OA
ATOM     31  C   UNL     1       4.029  -2.610   1.128  0.00  0.00    +0.000 A 
ATOM     32  H   UNL     1       4.015  -3.889   4.158  0.00  0.00    +0.000 HD
ENDBRANCH  19  22
ENDBRANCH   1  20
TORSDOF 6
