REMARK  Name = 
REMARK  9 active torsions:
REMARK  status: ('A' for Active; 'I' for Inactive)
REMARK    1  A    between atoms: C_1  and  O_2
REMARK    2  A    between atoms: O_2  and  C_3
REMARK    3  A    between atoms: C_10  and  C_11
REMARK    4  A    between atoms: N_13  and  C_14
REMARK    5  A    between atoms: C_14  and  C_15
REMARK    6  A    between atoms: C_18  and  N_19
REMARK    7  A    between atoms: N_19  and  C_20
REMARK    8  A    between atoms: C_20  and  C_21
REMARK    9  A    between atoms: C_26  and  C_27
REMARK                            x       y       z     vdW  Elec       q    Type
REMARK                         _______ _______ _______ _____ _____    ______ ____
ROOT
ATOM      1  C   UNL     1       1.768  -1.139  -3.120  0.00  0.00    +0.000 A 
ATOM      2  C   UNL     1       1.851  -2.536  -3.121  0.00  0.00    +0.000 A 
ATOM      3  C   UNL     1       0.734  -3.316  -2.794  0.00  0.00    +0.000 A 
ATOM      4  C   UNL     1      -0.485  -2.725  -2.438  0.00  0.00    +0.000 A 
ATOM      5  C   UNL     1      -0.586  -1.334  -2.551  0.00  0.00    +0.000 A 
ATOM      6  C   UNL     1       0.527  -0.547  -2.869  0.00  0.00    +0.000 A 
ENDROOT
BRANCH   4   7
ATOM      7  N   UNL     1      -1.567  -3.541  -2.080  0.00  0.00    +0.000 N 
ATOM      8  H   UNL     1      -1.264  -4.472  -1.805  0.00  0.00    +0.000 HD
BRANCH   7   9
ATOM      9  C   UNL     1      -2.608  -2.968  -1.221  0.00  0.00    +0.000 C 
BRANCH   9  10
ATOM     10  C   UNL     1      -3.231  -4.031  -0.297  0.00  0.00    +0.000 C 
ATOM     11  C   UNL     1      -3.932  -5.173  -1.057  0.00  0.00    +0.000 C 
ATOM     12  C   UNL     1      -5.270  -4.749  -1.666  0.00  0.00    +0.000 C 
ATOM     13  C   UNL     1      -6.162  -4.080  -0.624  0.00  0.00    +0.000 C 
ATOM     14  N   UNL     1      -5.453  -2.970   0.013  0.00  0.00    +0.000 N 
ATOM     15  C   UNL     1      -5.937  -1.686  -0.175  0.00  0.00    +0.000 C 
ATOM     16  C   UNL     1      -5.227  -0.508   0.446  0.00  0.00    +0.000 C 
ATOM     17  O   UNL     1      -6.951  -1.462  -0.843  0.00  0.00    +0.000 OA
ATOM     18  C   UNL     1      -4.216  -3.368   0.687  0.00  0.00    +0.000 C 
ENDBRANCH   9  10
ENDBRANCH   7   9
ENDBRANCH   4   7
BRANCH   1  19
ATOM     19  C   UNL     1       2.985  -0.296  -3.397  0.00  0.00    +0.000 C 
BRANCH  19  22
ATOM     20  C   UNL     1       4.394   0.161  -5.360  0.00  0.00    +0.000 C 
ATOM     21  O   UNL     1       5.413   0.163  -4.672  0.00  0.00    +0.000 OA
ATOM     22  N   UNL     1       3.164  -0.080  -4.811  0.00  0.00    +0.000 N 
ATOM     23  H   UNL     1       2.333   0.093  -5.358  0.00  0.00    +0.000 HD
BRANCH  20  31
ATOM     24  C   UNL     1       2.006   0.332  -7.835  0.00  0.00    +0.000 A 
ATOM     25  N   UNL     1       1.307   0.382  -8.987  0.00  0.00    +0.000 NA
ATOM     26  C   UNL     1       1.983   0.533 -10.129  0.00  0.00    +0.000 A 
ATOM     27  N   UNL     1       3.302   0.656 -10.267  0.00  0.00    +0.000 NA
ATOM     28  C   UNL     1       3.959   0.602  -9.099  0.00  0.00    +0.000 A 
ATOM     29  S   UNL     1       5.650   0.759  -9.086  0.00  0.00    +0.000 S 
ATOM     30  C   UNL     1       5.702   0.580  -7.397  0.00  0.00    +0.000 A 
ATOM     31  C   UNL     1       4.455   0.390  -6.812  0.00  0.00    +0.000 A 
ATOM     32  C   UNL     1       3.409   0.433  -7.832  0.00  0.00    +0.000 A 
BRANCH  24  34
ATOM     33  C   UNL     1       0.024  -0.356  -6.795  0.00  0.00    +0.000 C 
ATOM     34  O   UNL     1       1.298   0.271  -6.652  0.00  0.00    +0.000 OA
ENDBRANCH  24  34
ENDBRANCH  20  31
ENDBRANCH  19  22
ENDBRANCH   1  19
TORSDOF 7
