REMARK  Name = 
REMARK  6 active torsions:
REMARK  status: ('A' for Active; 'I' for Inactive)
REMARK    1  A    between atoms: C_1  and  C_2
REMARK    2  A    between atoms: C_5  and  C_6
REMARK    3  A    between atoms: C_6  and  N_7
REMARK    4  A    between atoms: C_11  and  C_12
REMARK    5  A    between atoms: C_12  and  N_13
REMARK    6  A    between atoms: C_16  and  C_17
REMARK                            x       y       z     vdW  Elec       q    Type
REMARK                         _______ _______ _______ _____ _____    ______ ____
ROOT
ATOM      1  N   UNL     1       7.384  -1.305   0.261  0.00  0.00    +0.000 N 
ATOM      2  C   UNL     1       8.789  -1.344   0.270  0.00  0.00    +0.000 A 
ATOM      3  C   UNL     1       9.416  -2.575   0.435  0.00  0.00    +0.000 A 
ATOM      4  C   UNL     1      10.810  -2.645   0.427  0.00  0.00    +0.000 A 
ATOM      5  C   UNL     1      11.562  -1.481   0.269  0.00  0.00    +0.000 A 
ATOM      6  C   UNL     1      10.848  -0.299   0.123  0.00  0.00    +0.000 A 
ATOM      7  N   UNL     1       9.498  -0.207   0.137  0.00  0.00    +0.000 NA
ATOM      8  H   UNL     1       7.047  -1.923  -0.472  0.00  0.00    +0.000 HD
ENDROOT
BRANCH   1   9
ATOM      9  C   UNL     1       6.842   0.048   0.100  0.00  0.00    +0.000 C 
BRANCH   9  14
ATOM     10  C   UNL     1       1.126  -0.007  -0.086  0.00  0.00    +0.000 C 
ATOM     11  C   UNL     1       2.619   0.022  -0.022  0.00  0.00    +0.000 A 
ATOM     12  C   UNL     1       3.384   0.456  -1.092  0.00  0.00    +0.000 A 
ATOM     13  N   UNL     1       4.735   0.462  -1.070  0.00  0.00    +0.000 NA
ATOM     14  C   UNL     1       5.328   0.030   0.081  0.00  0.00    +0.000 A 
ATOM     15  C   UNL     1       4.563  -0.392   1.173  0.00  0.00    +0.000 A 
ATOM     16  C   UNL     1       5.149  -0.876   2.466  0.00  0.00    +0.000 C 
ATOM     17  N   UNL     1       3.200  -0.405   1.125  0.00  0.00    +0.000 NA
ENDBRANCH   9  14
ENDBRANCH   1   9
BRANCH   5  18
ATOM     18  C   UNL     1      13.060  -1.469   0.160  0.00  0.00    +0.000 C 
BRANCH  18  19
ATOM     19  N   UNL     1      13.709  -2.515   0.945  0.00  0.00    +0.000 NA
ATOM     20  H   UNL     1      13.507  -2.358   1.932  0.00  0.00    +0.000 HD
ATOM     21  H   UNL     1      14.718  -2.425   0.844  0.00  0.00    +0.000 HD
ENDBRANCH  18  19
ENDBRANCH   5  18
TORSDOF 4
