REMARK  Name = 
REMARK  4 active torsions:
REMARK  status: ('A' for Active; 'I' for Inactive)
REMARK    1  A    between atoms: C_2  and  C_4
REMARK    2  A    between atoms: N_8  and  C_9
REMARK    3  A    between atoms: C_9  and  C_10
REMARK    4  A    between atoms: C_14  and  C_15
REMARK                            x       y       z     vdW  Elec       q    Type
REMARK                         _______ _______ _______ _____ _____    ______ ____
ROOT
ATOM      1  C   UNL     1       7.665   2.005  -0.321  0.00  0.00    +0.000 A 
ATOM      2  C   UNL     1       7.618   3.341   0.062  0.00  0.00    +0.000 A 
ATOM      3  C   UNL     1       6.778   4.217  -0.629  0.00  0.00    +0.000 A 
ATOM      4  C   UNL     1       5.992   3.744  -1.673  0.00  0.00    +0.000 A 
ATOM      5  N   UNL     1       5.126   4.515  -2.392  0.00  0.00    +0.000 N 
ATOM      6  N   UNL     1       6.046   2.453  -2.061  0.00  0.00    +0.000 NA
ATOM      7  C   UNL     1       6.883   1.617  -1.395  0.00  0.00    +0.000 A 
ATOM      8  H   UNL     1       4.606   3.986  -3.081  0.00  0.00    +0.000 HD
ENDROOT
BRANCH   1  10
ATOM      9  N   UNL     1       8.819   1.228   1.669  0.00  0.00    +0.000 N 
ATOM     10  C   UNL     1       8.517   1.006   0.352  0.00  0.00    +0.000 C 
ATOM     11  O   UNL     1       8.910   0.002  -0.226  0.00  0.00    +0.000 OA
ATOM     12  H   UNL     1       9.318   0.490   2.149  0.00  0.00    +0.000 HD
ATOM     13  H   UNL     1       8.320   1.900   2.235  0.00  0.00    +0.000 HD
ENDBRANCH   1  10
BRANCH   5  14
ATOM     14  C   UNL     1       4.737   5.873  -2.084  0.00  0.00    +0.000 C 
BRANCH  14  15
ATOM     15  C   UNL     1       5.612   6.883  -2.789  0.00  0.00    +0.000 A 
ATOM     16  C   UNL     1       5.620   6.948  -4.178  0.00  0.00    +0.000 A 
ATOM     17  N   UNL     1       6.342   7.858  -4.866  0.00  0.00    +0.000 NA
ATOM     18  C   UNL     1       7.082   8.699  -4.104  0.00  0.00    +0.000 A 
ATOM     19  C   UNL     1       7.115   8.652  -2.710  0.00  0.00    +0.000 A 
ATOM     20  N   UNL     1       6.361   7.740  -2.037  0.00  0.00    +0.000 NA
BRANCH  19  21
ATOM     21  C   UNL     1       7.910   9.582  -1.894  0.00  0.00    +0.000 A 
ATOM     22  C   UNL     1       9.108  10.164  -2.342  0.00  0.00    +0.000 A 
ATOM     23  C   UNL     1       9.798  11.076  -1.543  0.00  0.00    +0.000 A 
ATOM     24  C   UNL     1       9.279  11.384  -0.299  0.00  0.00    +0.000 A 
ATOM     25  N   UNL     1       8.147  10.840   0.189  0.00  0.00    +0.000 NA
ATOM     26  C   UNL     1       7.500   9.955  -0.613  0.00  0.00    +0.000 A 
ENDBRANCH  19  21
ENDBRANCH  14  15
ENDBRANCH   5  14
TORSDOF 4
