REMARK  Name = 
REMARK  7 active torsions:
REMARK  status: ('A' for Active; 'I' for Inactive)
REMARK    1  A    between atoms: C_2  and  C_4
REMARK    2  A    between atoms: C_7  and  N_8
REMARK    3  A    between atoms: N_8  and  C_9
REMARK    4  A    between atoms: C_9  and  C_10
REMARK    5  A    between atoms: C_10  and  C_13
REMARK    6  A    between atoms: C_17  and  C_18
REMARK    7  A    between atoms: C_18  and  C_19
REMARK                            x       y       z     vdW  Elec       q    Type
REMARK                         _______ _______ _______ _____ _____    ______ ____
ROOT
ATOM      1  C   UNL     1       5.972  -0.866   7.190  0.00  0.00    +0.000 C 
ATOM      2  F   UNL     1       7.262  -1.020   6.773  0.00  0.00    +0.000 F 
ATOM      3  F   UNL     1       5.882   0.429   7.624  0.00  0.00    +0.000 F 
ENDROOT
BRANCH   1   4
ATOM      4  C   UNL     1       5.594  -1.867   8.262  0.00  0.00    +0.000 A 
ATOM      5  C   UNL     1       4.685  -1.520   9.271  0.00  0.00    +0.000 A 
ATOM      6  C   UNL     1       4.274  -2.470  10.203  0.00  0.00    +0.000 A 
ATOM      7  C   UNL     1       4.765  -3.775  10.135  0.00  0.00    +0.000 A 
ATOM      8  C   UNL     1       5.677  -4.145   9.138  0.00  0.00    +0.000 A 
ATOM      9  C   UNL     1       6.091  -3.181   8.210  0.00  0.00    +0.000 A 
BRANCH   8  10
ATOM     10  C   UNL     1       6.191  -5.563   9.054  0.00  0.00    +0.000 C 
BRANCH  10  11
ATOM     11  C   UNL     1       5.385  -6.371   8.042  0.00  0.00    +0.000 C 
ATOM     12  C   UNL     1       3.929  -6.732   8.391  0.00  0.00    +0.000 C 
ATOM     13  N   UNL     1       4.217  -8.151   8.153  0.00  0.00    +0.000 NA
ATOM     14  C   UNL     1       5.657  -7.886   8.066  0.00  0.00    +0.000 C 
ATOM     15  H   UNL     1       3.810  -8.519   7.294  0.00  0.00    +0.000 HD
ENDBRANCH  10  11
ENDBRANCH   8  10
ENDBRANCH   1   4
BRANCH   1  16
ATOM     16  C   UNL     1       5.017  -1.039   5.982  0.00  0.00    +0.000 C 
BRANCH  16  17
ATOM     17  N   UNL     1       5.296  -0.115   4.874  0.00  0.00    +0.000 N 
ATOM     18  H   UNL     1       5.595   0.816   5.165  0.00  0.00    +0.000 HD
BRANCH  17  22
ATOM     19  C   UNL     1       3.140  -0.195   1.255  0.00  0.00    +0.000 A 
ATOM     20  C   UNL     1       2.798  -1.085   2.274  0.00  0.00    +0.000 A 
ATOM     21  C   UNL     1       3.493  -1.056   3.489  0.00  0.00    +0.000 A 
ATOM     22  C   UNL     1       4.515  -0.127   3.722  0.00  0.00    +0.000 A 
ATOM     23  C   UNL     1       4.858   0.742   2.678  0.00  0.00    +0.000 A 
ATOM     24  C   UNL     1       4.186   0.709   1.454  0.00  0.00    +0.000 A 
BRANCH  19  26
ATOM     25  N   UNL     1       1.148  -0.642  -0.067  0.00  0.00    +0.000 N 
ATOM     26  C   UNL     1       2.444  -0.208  -0.058  0.00  0.00    +0.000 C 
ATOM     27  O   UNL     1       2.989   0.184  -1.080  0.00  0.00    +0.000 OA
ATOM     28  H   UNL     1       0.653  -0.537  -0.942  0.00  0.00    +0.000 HD
ATOM     29  H   UNL     1       0.598  -0.718   0.776  0.00  0.00    +0.000 HD
ENDBRANCH  19  26
ENDBRANCH  17  22
ENDBRANCH  16  17
ENDBRANCH   1  16
TORSDOF 7
