REMARK  Name = 
REMARK  3 active torsions:
REMARK  status: ('A' for Active; 'I' for Inactive)
REMARK    1  A    between atoms: C_2  and  C_4
REMARK    2  A    between atoms: N_8  and  C_9
REMARK    3  A    between atoms: C_9  and  C_10
REMARK                            x       y       z     vdW  Elec       q    Type
REMARK                         _______ _______ _______ _____ _____    ______ ____
ROOT
ATOM      1  C   UNL     1       3.432   3.465  -1.234  0.00  0.00    +0.000 A 
ATOM      2  C   UNL     1       4.527   2.649  -0.968  0.00  0.00    +0.000 A 
ATOM      3  C   UNL     1       5.194   2.787   0.250  0.00  0.00    +0.000 A 
ATOM      4  C   UNL     1       4.764   3.737   1.180  0.00  0.00    +0.000 A 
ATOM      5  N   UNL     1       5.469   3.802   2.407  0.00  0.00    +0.000 N 
ATOM      6  N   UNL     1       3.692   4.517   0.935  0.00  0.00    +0.000 NA
ATOM      7  C   UNL     1       3.068   4.389  -0.267  0.00  0.00    +0.000 A 
ATOM      8  H   UNL     1       6.461   3.672   2.238  0.00  0.00    +0.000 HD
ENDROOT
BRANCH   1  10
ATOM      9  N   UNL     1       2.666   2.193  -3.154  0.00  0.00    +0.000 N 
ATOM     10  C   UNL     1       2.679   3.397  -2.502  0.00  0.00    +0.000 C 
ATOM     11  O   UNL     1       2.062   4.362  -2.936  0.00  0.00    +0.000 OA
ATOM     12  H   UNL     1       2.078   2.127  -3.974  0.00  0.00    +0.000 HD
ATOM     13  H   UNL     1       2.934   1.329  -2.703  0.00  0.00    +0.000 HD
ENDBRANCH   1  10
BRANCH   5  14
ATOM     14  C   UNL     1       5.159   4.815   3.448  0.00  0.00    +0.000 C 
ATOM     15  C   UNL     1       5.072   4.214   4.846  0.00  0.00    +0.000 C 
ATOM     16  C   UNL     1       3.850   4.795   4.213  0.00  0.00    +0.000 C 
BRANCH  14  17
ATOM     17  C   UNL     1       5.820   6.193   3.302  0.00  0.00    +0.000 C 
ATOM     18  C   UNL     1       5.413   6.904   2.006  0.00  0.00    +0.000 C 
ATOM     19  C   UNL     1       6.098   8.255   1.893  0.00  0.00    +0.000 C 
ATOM     20  O   UNL     1       7.516   8.105   1.971  0.00  0.00    +0.000 OA
ATOM     21  C   UNL     1       7.930   7.538   3.214  0.00  0.00    +0.000 C 
ATOM     22  C   UNL     1       7.349   6.139   3.397  0.00  0.00    +0.000 C 
ENDBRANCH  14  17
ENDBRANCH   5  14
TORSDOF 3
