REMARK  Name = 
REMARK  7 active torsions:
REMARK  status: ('A' for Active; 'I' for Inactive)
REMARK    1  A    between atoms: N_1  and  C_2
REMARK    2  A    between atoms: C_2  and  C_3
REMARK    3  A    between atoms: C_2  and  C_17
REMARK    4  A    between atoms: C_3  and  N_4
REMARK    5  A    between atoms: N_7  and  C_8
REMARK    6  A    between atoms: C_8  and  C_9
REMARK    7  A    between atoms: C_9  and  C_10
REMARK                            x       y       z     vdW  Elec       q    Type
REMARK                         _______ _______ _______ _____ _____    ______ ____
ROOT
ATOM      1  C   UNL     1       0.877   1.379  -0.628  0.00  0.00    +0.000 C 
ENDROOT
BRANCH   1   2
ATOM      2  C   UNL     1       1.600   1.378  -1.961  0.00  0.00    +0.000 A 
ATOM      3  C   UNL     1       2.977   1.284  -2.111  0.00  0.00    +0.000 A 
ATOM      4  S   UNL     1       3.482   1.314  -3.740  0.00  0.00    +0.000 S 
ATOM      5  C   UNL     1       1.878   1.436  -4.298  0.00  0.00    +0.000 A 
ATOM      6  N   UNL     1       1.597   1.511  -5.626  0.00  0.00    +0.000 NA
ATOM      7  C   UNL     1       0.336   1.589  -5.899  0.00  0.00    +0.000 A 
ATOM      8  N   UNL     1      -0.669   1.586  -4.967  0.00  0.00    +0.000 N 
ATOM      9  C   UNL     1      -0.440   1.485  -3.614  0.00  0.00    +0.000 A 
ATOM     10  O   UNL     1      -1.368   1.422  -2.815  0.00  0.00    +0.000 OA
ATOM     11  C   UNL     1       0.968   1.433  -3.256  0.00  0.00    +0.000 A 
ATOM     12  H   UNL     1      -1.637   1.621  -5.248  0.00  0.00    +0.000 HD
ENDBRANCH   1   2
BRANCH   1  13
ATOM     13  N   UNL     1       1.255   2.602   0.086  0.00  0.00    +0.000 NA
ATOM     14  H   UNL     1       1.037   3.408  -0.495  0.00  0.00    +0.000 HD
ATOM     15  H   UNL     1       2.256   2.611   0.258  0.00  0.00    +0.000 HD
ENDBRANCH   1  13
BRANCH   1  16
ATOM     16  C   UNL     1       1.168   0.060   0.156  0.00  0.00    +0.000 C 
BRANCH  16  17
ATOM     17  N   UNL     1       0.520  -0.121   1.475  0.00  0.00    +0.000 NA
ATOM     18  C   UNL     1       0.943  -1.410   2.069  0.00  0.00    +0.000 C 
ATOM     19  C   UNL     1       0.343  -2.659   1.369  0.00  0.00    +0.000 C 
ATOM     20  N   UNL     1      -1.137  -2.654   1.269  0.00  0.00    +0.000 NA
ATOM     21  C   UNL     1      -1.565  -1.353   0.699  0.00  0.00    +0.000 C 
ATOM     22  C   UNL     1      -0.957  -0.108   1.393  0.00  0.00    +0.000 C 
BRANCH  20  23
ATOM     23  C   UNL     1      -1.724  -2.913   2.600  0.00  0.00    +0.000 C 
BRANCH  23  24
ATOM     24  C   UNL     1      -3.243  -3.062   2.580  0.00  0.00    +0.000 C 
BRANCH  24  25
ATOM     25  C   UNL     1      -3.727  -3.330   3.975  0.00  0.00    +0.000 C 
ATOM     26  N   UNL     1      -3.999  -2.352   4.801  0.00  0.00    +0.000 NA
ATOM     27  C   UNL     1      -4.458  -3.050   6.037  0.00  0.00    +0.000 C 
ATOM     28  C   UNL     1      -4.744  -4.497   5.623  0.00  0.00    +0.000 C 
ATOM     29  N   UNL     1      -3.925  -4.604   4.439  0.00  0.00    +0.000 N 
ATOM     30  H   UNL     1      -4.148  -5.325   3.764  0.00  0.00    +0.000 HD
ENDBRANCH  24  25
ENDBRANCH  23  24
ENDBRANCH  20  23
ENDBRANCH  16  17
ENDBRANCH   1  16
TORSDOF 7
