REMARK  Name = 
REMARK  7 active torsions:
REMARK  status: ('A' for Active; 'I' for Inactive)
REMARK    1  A    between atoms: C_1  and  O_2
REMARK    2  A    between atoms: O_2  and  C_3
REMARK    3  A    between atoms: C_10  and  C_11
REMARK    4  A    between atoms: N_13  and  C_14
REMARK    5  A    between atoms: C_14  and  C_15
REMARK    6  A    between atoms: C_18  and  C_19
REMARK    7  A    between atoms: C_20  and  C_21
REMARK                            x       y       z     vdW  Elec       q    Type
REMARK                         _______ _______ _______ _____ _____    ______ ____
ROOT
ATOM      1  C   UNL     1       4.400  -0.951   2.100  0.00  0.00    +0.000 C 
ATOM      2  O   UNL     1       4.839  -1.456   3.131  0.00  0.00    +0.000 OA
ATOM      3  N   UNL     1       3.430   0.017   2.141  0.00  0.00    +0.000 N 
ATOM      4  H   UNL     1       3.129   0.462   1.286  0.00  0.00    +0.000 HD
ENDROOT
BRANCH   1  12
ATOM      5  C   UNL     1       3.539  -0.071  -1.111  0.00  0.00    +0.000 A 
ATOM      6  N   UNL     1       3.413   0.106  -2.440  0.00  0.00    +0.000 NA
ATOM      7  C   UNL     1       4.217  -0.593  -3.242  0.00  0.00    +0.000 A 
ATOM      8  N   UNL     1       5.151  -1.469  -2.877  0.00  0.00    +0.000 NA
ATOM      9  C   UNL     1       5.249  -1.607  -1.544  0.00  0.00    +0.000 A 
ATOM     10  S   UNL     1       6.387  -2.685  -0.893  0.00  0.00    +0.000 S 
ATOM     11  C   UNL     1       5.913  -2.304   0.696  0.00  0.00    +0.000 A 
ATOM     12  C   UNL     1       4.897  -1.358   0.771  0.00  0.00    +0.000 A 
ATOM     13  C   UNL     1       4.497  -0.949  -0.575  0.00  0.00    +0.000 A 
BRANCH   5  15
ATOM     14  C   UNL     1       1.504   1.054  -0.904  0.00  0.00    +0.000 C 
ATOM     15  O   UNL     1       2.730   0.676  -0.282  0.00  0.00    +0.000 OA
ENDBRANCH   5  15
ENDBRANCH   1  12
BRANCH   3  16
ATOM     16  C   UNL     1       2.862   0.506   3.374  0.00  0.00    +0.000 C 
BRANCH  16  17
ATOM     17  C   UNL     1       1.783   1.534   3.121  0.00  0.00    +0.000 A 
ATOM     18  C   UNL     1       0.449   1.142   2.944  0.00  0.00    +0.000 A 
ATOM     19  C   UNL     1      -0.553   2.092   2.700  0.00  0.00    +0.000 A 
ATOM     20  C   UNL     1      -0.252   3.458   2.640  0.00  0.00    +0.000 A 
ATOM     21  C   UNL     1       1.085   3.847   2.799  0.00  0.00    +0.000 A 
ATOM     22  C   UNL     1       2.092   2.897   3.029  0.00  0.00    +0.000 A 
BRANCH  20  23
ATOM     23  C   UNL     1      -1.268   4.484   2.340  0.00  0.00    +0.000 C 
ATOM     24  C   UNL     1      -2.570   4.396   2.663  0.00  0.00    +0.000 C 
BRANCH  24  25
ATOM     25  C   UNL     1      -3.583   5.417   2.349  0.00  0.00    +0.000 A 
ATOM     26  C   UNL     1      -3.513   6.256   1.234  0.00  0.00    +0.000 A 
ATOM     27  C   UNL     1      -4.535   7.172   0.979  0.00  0.00    +0.000 A 
ATOM     28  C   UNL     1      -5.613   7.213   1.846  0.00  0.00    +0.000 A 
ATOM     29  N   UNL     1      -5.733   6.413   2.927  0.00  0.00    +0.000 NA
ATOM     30  C   UNL     1      -4.722   5.537   3.148  0.00  0.00    +0.000 A 
ENDBRANCH  24  25
ENDBRANCH  20  23
ENDBRANCH  16  17
ENDBRANCH   3  16
TORSDOF 6
