REMARK  Name = 
REMARK  5 active torsions:
REMARK  status: ('A' for Active; 'I' for Inactive)
REMARK    1  A    between atoms: N_1  and  C_2
REMARK    2  A    between atoms: C_2  and  C_3
REMARK    3  A    between atoms: N_6  and  C_7
REMARK    4  A    between atoms: C_7  and  C_8
REMARK    5  A    between atoms: C_8  and  C_9
REMARK                            x       y       z     vdW  Elec       q    Type
REMARK                         _______ _______ _______ _____ _____    ______ ____
ROOT
ATOM      1  C   UNL     1       3.071   1.034  -0.686  0.00  0.00    +0.000 C 
ATOM      2  C   UNL     1       4.057   1.697   0.282  0.00  0.00    +0.000 C 
ATOM      3  C   UNL     1       3.347   2.494   1.379  0.00  0.00    +0.000 C 
ATOM      4  N   UNL     1       2.459   3.524   0.818  0.00  0.00    +0.000 NA
ATOM      5  C   UNL     1       1.463   2.927  -0.093  0.00  0.00    +0.000 C 
ATOM      6  C   UNL     1       2.116   2.115  -1.215  0.00  0.00    +0.000 C 
ENDROOT
BRANCH   1   7
ATOM      7  C   UNL     1       2.361  -0.152  -0.002  0.00  0.00    +0.000 C 
BRANCH   7   8
ATOM      8  N   UNL     1       1.448  -0.846  -0.900  0.00  0.00    +0.000 NA
ATOM      9  H   UNL     1       1.042  -1.644  -0.412  0.00  0.00    +0.000 HD
ATOM     10  H   UNL     1       1.972  -1.232  -1.686  0.00  0.00    +0.000 HD
ENDBRANCH   7   8
ENDBRANCH   1   7
BRANCH   4  11
ATOM     11  C   UNL     1       1.769   4.298   1.875  0.00  0.00    +0.000 C 
BRANCH  11  12
ATOM     12  C   UNL     1       2.728   5.063   2.804  0.00  0.00    +0.000 C 
BRANCH  12  13
ATOM     13  C   UNL     1       2.004   5.838   3.870  0.00  0.00    +0.000 A 
ATOM     14  C   UNL     1       1.676   5.251   5.095  0.00  0.00    +0.000 A 
ATOM     15  C   UNL     1       1.027   6.003   6.069  0.00  0.00    +0.000 A 
ATOM     16  C   UNL     1       0.720   7.321   5.779  0.00  0.00    +0.000 A 
ATOM     17  N   UNL     1       1.006   7.919   4.603  0.00  0.00    +0.000 NA
ATOM     18  C   UNL     1       1.641   7.167   3.677  0.00  0.00    +0.000 A 
ENDBRANCH  12  13
ENDBRANCH  11  12
ENDBRANCH   4  11
TORSDOF 5
