REMARK  Name = 
REMARK  6 active torsions:
REMARK  status: ('A' for Active; 'I' for Inactive)
REMARK    1  A    between atoms: C_2  and  C_4
REMARK    2  A    between atoms: N_8  and  C_9
REMARK    3  A    between atoms: C_9  and  C_10
REMARK    4  A    between atoms: C_10  and  C_13
REMARK    5  A    between atoms: C_17  and  C_18
REMARK    6  A    between atoms: C_18  and  C_19
REMARK                            x       y       z     vdW  Elec       q    Type
REMARK                         _______ _______ _______ _____ _____    ______ ____
ROOT
ATOM      1  C   UNL     1       4.659   5.151  -3.384  0.00  0.00    +0.000 C 
ENDROOT
BRANCH   1   6
ATOM      2  C   UNL     1       3.105   1.033  -0.891  0.00  0.00    +0.000 A 
ATOM      3  C   UNL     1       3.228   2.349  -0.462  0.00  0.00    +0.000 A 
ATOM      4  C   UNL     1       3.880   3.266  -1.278  0.00  0.00    +0.000 A 
ATOM      5  C   UNL     1       4.395   2.872  -2.512  0.00  0.00    +0.000 A 
ATOM      6  N   UNL     1       5.095   3.746  -3.338  0.00  0.00    +0.000 N 
ATOM      7  N   UNL     1       4.288   1.598  -2.936  0.00  0.00    +0.000 NA
ATOM      8  C   UNL     1       3.664   0.703  -2.115  0.00  0.00    +0.000 A 
ATOM      9  H   UNL     1       5.260   3.295  -4.235  0.00  0.00    +0.000 HD
BRANCH   2  11
ATOM     10  N   UNL     1       1.466   0.421   0.789  0.00  0.00    +0.000 N 
ATOM     11  C   UNL     1       2.443   0.002  -0.071  0.00  0.00    +0.000 C 
ATOM     12  O   UNL     1       2.735  -1.185  -0.171  0.00  0.00    +0.000 OA
ATOM     13  H   UNL     1       0.961  -0.298   1.291  0.00  0.00    +0.000 HD
ATOM     14  H   UNL     1       1.042   1.336   0.732  0.00  0.00    +0.000 HD
ENDBRANCH   2  11
ENDBRANCH   1   6
BRANCH   1  15
ATOM     15  C   UNL     1       5.422   6.043  -4.395  0.00  0.00    +0.000 C 
ATOM     16  F   UNL     1       6.758   5.987  -4.120  0.00  0.00    +0.000 F 
ATOM     17  F   UNL     1       5.282   5.501  -5.642  0.00  0.00    +0.000 F 
BRANCH  15  18
ATOM     18  C   UNL     1       4.888   7.468  -4.323  0.00  0.00    +0.000 A 
ATOM     19  C   UNL     1       5.421   8.388  -3.407  0.00  0.00    +0.000 A 
ATOM     20  C   UNL     1       4.917   9.687  -3.336  0.00  0.00    +0.000 A 
ATOM     21  C   UNL     1       3.887  10.091  -4.189  0.00  0.00    +0.000 A 
ATOM     22  C   UNL     1       3.355   9.200  -5.131  0.00  0.00    +0.000 A 
ATOM     23  C   UNL     1       3.845   7.885  -5.169  0.00  0.00    +0.000 A 
BRANCH  22  24
ATOM     24  C   UNL     1       2.349   9.663  -6.162  0.00  0.00    +0.000 C 
BRANCH  24  25
ATOM     25  C   UNL     1       0.907   9.545  -5.691  0.00  0.00    +0.000 C 
ATOM     26  C   UNL     1       0.264   8.174  -5.399  0.00  0.00    +0.000 C 
ATOM     27  C   UNL     1      -0.844   8.655  -6.334  0.00  0.00    +0.000 C 
ATOM     28  O   UNL     1      -0.001   9.726  -6.825  0.00  0.00    +0.000 OA
ENDBRANCH  24  25
ENDBRANCH  22  24
ENDBRANCH  15  18
ENDBRANCH   1  15
TORSDOF 6
