REMARK  Name = 
REMARK  4 active torsions:
REMARK  status: ('A' for Active; 'I' for Inactive)
REMARK    1  A    between atoms: C_2  and  C_3
REMARK    2  A    between atoms: N_7  and  C_8
REMARK    3  A    between atoms: C_8  and  C_9
REMARK    4  A    between atoms: C_13  and  C_14
REMARK                            x       y       z     vdW  Elec       q    Type
REMARK                         _______ _______ _______ _____ _____    ______ ____
ROOT
ATOM      1  C   UNL     1      -5.901   1.045  -0.267  0.00  0.00    +0.000 A 
ATOM      2  C   UNL     1      -6.401  -0.245  -0.290  0.00  0.00    +0.000 A 
ATOM      3  C   UNL     1      -7.768  -0.364  -0.349  0.00  0.00    +0.000 A 
ATOM      4  N   UNL     1      -8.603   0.688  -0.386  0.00  0.00    +0.000 NA
ATOM      5  C   UNL     1      -8.035   1.910  -0.372  0.00  0.00    +0.000 A 
ATOM      6  N   UNL     1      -6.708   2.130  -0.314  0.00  0.00    +0.000 NA
ENDROOT
BRANCH   5   7
ATOM      7  C   UNL     1      -8.926   3.083  -0.422  0.00  0.00    +0.000 A 
ATOM      8  C   UNL     1     -10.329   2.935  -0.433  0.00  0.00    +0.000 A 
ATOM      9  C   UNL     1     -11.184   4.040  -0.500  0.00  0.00    +0.000 A 
ATOM     10  C   UNL     1     -10.650   5.321  -0.557  0.00  0.00    +0.000 A 
ATOM     11  C   UNL     1      -9.272   5.488  -0.539  0.00  0.00    +0.000 A 
ATOM     12  F   UNL     1      -8.757   6.723  -0.596  0.00  0.00    +0.000 F 
ATOM     13  C   UNL     1      -8.416   4.393  -0.468  0.00  0.00    +0.000 A 
ENDBRANCH   5   7
BRANCH   1  14
ATOM     14  C   UNL     1      -4.415   1.297  -0.147  0.00  0.00    +0.000 C 
BRANCH  14  19
ATOM     15  C   UNL     1      -2.555   2.605  -4.786  0.00  0.00    +0.000 A 
ATOM     16  C   UNL     1      -3.377   3.314  -3.916  0.00  0.00    +0.000 A 
ATOM     17  C   UNL     1      -3.769   2.721  -2.715  0.00  0.00    +0.000 A 
ATOM     18  C   UNL     1      -3.346   1.433  -2.409  0.00  0.00    +0.000 A 
ATOM     19  N   UNL     1      -3.679   0.764  -1.269  0.00  0.00    +0.000 N 
ATOM     20  N   UNL     1      -2.545   0.741  -3.247  0.00  0.00    +0.000 NA
ATOM     21  C   UNL     1      -2.166   1.334  -4.407  0.00  0.00    +0.000 A 
ATOM     22  H   UNL     1      -3.322  -0.181  -1.233  0.00  0.00    +0.000 HD
BRANCH  15  24
ATOM     23  N   UNL     1      -1.790   3.610  -7.044  0.00  0.00    +0.000 NA
ATOM     24  C   UNL     1      -2.133   3.160  -6.029  0.00  0.00    +0.000 C 
ENDBRANCH  15  24
ENDBRANCH  14  19
ENDBRANCH   1  14
TORSDOF 4
