REMARK  Name = 
REMARK  9 active torsions:
REMARK  status: ('A' for Active; 'I' for Inactive)
REMARK    1  A    between atoms: C_1  and  C_2
REMARK    2  A    between atoms: C_2  and  C_3
REMARK    3  A    between atoms: C_2  and  C_11
REMARK    4  A    between atoms: C_3  and  N_4
REMARK    5  A    between atoms: C_14  and  C_15
REMARK    6  A    between atoms: C_15  and  N_16
REMARK    7  A    between atoms: N_16  and  C_17
REMARK    8  A    between atoms: C_17  and  C_18
REMARK    9  A    between atoms: C_17  and  C_19
REMARK                            x       y       z     vdW  Elec       q    Type
REMARK                         _______ _______ _______ _____ _____    ______ ____
ROOT
ATOM      1  C   UNL     1       3.091   0.146   1.413  0.00  0.00    +0.000 A 
ATOM      2  C   UNL     1       3.474  -0.970   2.159  0.00  0.00    +0.000 A 
ATOM      3  N   UNL     1       3.950  -0.895   3.427  0.00  0.00    +0.000 NA
ATOM      4  C   UNL     1       4.034   0.359   3.958  0.00  0.00    +0.000 A 
ATOM      5  C   UNL     1       3.640   1.469   3.225  0.00  0.00    +0.000 A 
ATOM      6  N   UNL     1       3.186   1.391   1.955  0.00  0.00    +0.000 NA
ENDROOT
BRANCH   1   8
ATOM      7  C   UNL     1       3.528  -0.612  -0.947  0.00  0.00    +0.000 C 
ATOM      8  C   UNL     1       2.515   0.016   0.018  0.00  0.00    +0.000 C 
BRANCH   8   9
ATOM      9  C   UNL     1       2.037   1.368  -0.571  0.00  0.00    +0.000 C 
BRANCH   9  10
ATOM     10  N   UNL     1       0.942   1.922   0.221  0.00  0.00    +0.000 N 
ATOM     11  C   UNL     1       0.531   3.182  -0.198  0.00  0.00    +0.000 A 
ATOM     12  N   UNL     1       0.524   3.493  -1.502  0.00  0.00    +0.000 NA
ATOM     13  C   UNL     1       0.103   4.726  -1.834  0.00  0.00    +0.000 A 
ATOM     14  C   UNL     1      -0.311   5.659  -0.917  0.00  0.00    +0.000 A 
ATOM     15  C   UNL     1      -0.263   5.250   0.390  0.00  0.00    +0.000 A 
ATOM     16  N   UNL     1       0.151   4.028   0.770  0.00  0.00    +0.000 NA
ATOM     17  H   UNL     1       1.210   2.053   1.198  0.00  0.00    +0.000 HD
ENDBRANCH   9  10
ENDBRANCH   8   9
ENDBRANCH   1   8
BRANCH   4  18
ATOM     18  C   UNL     1       4.491   0.538   5.387  0.00  0.00    +0.000 C 
BRANCH  18  19
ATOM     19  N   UNL     1       5.553  -0.372   5.827  0.00  0.00    +0.000 NA
ATOM     20  H   UNL     1       5.205  -1.321   5.657  0.00  0.00    +0.000 HD
BRANCH  19  21
ATOM     21  C   UNL     1       6.832  -0.240   5.104  0.00  0.00    +0.000 C 
ATOM     22  C   UNL     1       7.439   1.157   5.104  0.00  0.00    +0.000 C 
BRANCH  21  23
ATOM     23  C   UNL     1       7.711  -1.329   5.680  0.00  0.00    +0.000 A 
ATOM     24  C   UNL     1       8.177  -2.392   4.920  0.00  0.00    +0.000 A 
ATOM     25  S   UNL     1       8.677  -3.715   5.879  0.00  0.00    +0.000 S 
ATOM     26  C   UNL     1       8.412  -2.843   7.317  0.00  0.00    +0.000 A 
ATOM     27  N   UNL     1       8.546  -3.429   8.538  0.00  0.00    +0.000 NA
ATOM     28  C   UNL     1       8.402  -2.616   9.531  0.00  0.00    +0.000 A 
ATOM     29  N   UNL     1       8.176  -1.269   9.416  0.00  0.00    +0.000 N 
ATOM     30  C   UNL     1       8.053  -0.627   8.202  0.00  0.00    +0.000 A 
ATOM     31  O   UNL     1       8.029   0.597   8.143  0.00  0.00    +0.000 OA
ATOM     32  C   UNL     1       8.084  -1.523   7.060  0.00  0.00    +0.000 A 
ATOM     33  H   UNL     1       8.201  -0.668  10.226  0.00  0.00    +0.000 HD
ENDBRANCH  21  23
ENDBRANCH  19  21
ENDBRANCH  18  19
ENDBRANCH   4  18
TORSDOF 7
