REMARK  Name = 
REMARK  7 active torsions:
REMARK  status: ('A' for Active; 'I' for Inactive)
REMARK    1  A    between atoms: C_1  and  C_2
REMARK    2  A    between atoms: C_2  and  C_3
REMARK    3  A    between atoms: C_2  and  C_24
REMARK    4  A    between atoms: C_3  and  N_4
REMARK    5  A    between atoms: C_7  and  C_8
REMARK    6  A    between atoms: C_8  and  N_9
REMARK    7  A    between atoms: C_10  and  C_12
REMARK                            x       y       z     vdW  Elec       q    Type
REMARK                         _______ _______ _______ _____ _____    ______ ____
ROOT
ATOM      1  C   UNL     1      -0.772   0.579   3.611  0.00  0.00    +0.000 C 
ENDROOT
BRANCH   1   5
ATOM      2  N   UNL     1       2.452  -0.657   2.355  0.00  0.00    +0.000 NA
ATOM      3  C   UNL     1       2.210   0.762   2.636  0.00  0.00    +0.000 C 
ATOM      4  C   UNL     1       1.731   1.007   4.070  0.00  0.00    +0.000 C 
ATOM      5  C   UNL     1       0.486   0.179   4.410  0.00  0.00    +0.000 C 
ATOM      6  C   UNL     1       0.836  -1.295   4.156  0.00  0.00    +0.000 C 
ATOM      7  C   UNL     1       1.330  -1.534   2.724  0.00  0.00    +0.000 C 
BRANCH   2   8
ATOM      8  C   UNL     1       2.883  -0.923   0.958  0.00  0.00    +0.000 C 
BRANCH   8  10
ATOM      9  C   UNL     1       4.572  -0.552  -0.944  0.00  0.00    +0.000 C 
ATOM     10  C   UNL     1       4.209  -0.249   0.520  0.00  0.00    +0.000 C 
BRANCH  10  11
ATOM     11  C   UNL     1       5.384  -0.671   1.380  0.00  0.00    +0.000 A 
ATOM     12  C   UNL     1       6.026   0.271   2.181  0.00  0.00    +0.000 A 
ATOM     13  C   UNL     1       7.177  -0.099   2.861  0.00  0.00    +0.000 A 
ATOM     14  C   UNL     1       7.657  -1.397   2.732  0.00  0.00    +0.000 A 
ATOM     15  C   UNL     1       6.951  -2.278   1.931  0.00  0.00    +0.000 A 
ATOM     16  N   UNL     1       5.831  -1.947   1.256  0.00  0.00    +0.000 NA
ENDBRANCH  10  11
ENDBRANCH   8  10
ENDBRANCH   2   8
ENDBRANCH   1   5
BRANCH   1  17
ATOM     17  N   UNL     1      -1.184   1.945   3.832  0.00  0.00    +0.000 N 
ATOM     18  C   UNL     1      -2.045   2.282   4.846  0.00  0.00    +0.000 C 
ATOM     19  O   UNL     1      -2.489   1.449   5.637  0.00  0.00    +0.000 OA
ATOM     20  H   UNL     1      -1.064   2.599   3.061  0.00  0.00    +0.000 HD
BRANCH  18  21
ATOM     21  C   UNL     1      -2.369   3.701   4.984  0.00  0.00    +0.000 A 
ATOM     22  C   UNL     1      -2.691   4.216   6.231  0.00  0.00    +0.000 A 
ATOM     23  S   UNL     1      -3.011   5.891   6.212  0.00  0.00    +0.000 S 
ATOM     24  C   UNL     1      -2.778   5.970   4.528  0.00  0.00    +0.000 A 
ATOM     25  N   UNL     1      -2.935   7.139   3.852  0.00  0.00    +0.000 NA
ATOM     26  C   UNL     1      -2.764   7.043   2.575  0.00  0.00    +0.000 A 
ATOM     27  N   UNL     1      -2.439   5.888   1.914  0.00  0.00    +0.000 N 
ATOM     28  C   UNL     1      -2.237   4.689   2.557  0.00  0.00    +0.000 A 
ATOM     29  O   UNL     1      -1.891   3.685   1.946  0.00  0.00    +0.000 OA
ATOM     30  C   UNL     1      -2.438   4.741   3.992  0.00  0.00    +0.000 A 
ATOM     31  H   UNL     1      -2.307   5.884   0.913  0.00  0.00    +0.000 HD
ENDBRANCH  18  21
ENDBRANCH   1  17
TORSDOF 6
