REMARK  Name = 
REMARK  11 active torsions:
REMARK  status: ('A' for Active; 'I' for Inactive)
REMARK    1  A    between atoms: C_1  and  C_2
REMARK    2  A    between atoms: C_2  and  C_3
REMARK    3  A    between atoms: C_2  and  C_4
REMARK    4  A    between atoms: C_2  and  N_5
REMARK    5  A    between atoms: C_11  and  C_12
REMARK    6  A    between atoms: C_12  and  C_13
REMARK    7  A    between atoms: C_12  and  C_14
REMARK    8  A    between atoms: C_12  and  C_26
REMARK    9  A    between atoms: C_14  and  N_15
REMARK   10  A    between atoms: C_19  and  S_20
REMARK   11  A    between atoms: S_20  and  C_21
REMARK                            x       y       z     vdW  Elec       q    Type
REMARK                         _______ _______ _______ _____ _____    ______ ____
ROOT
ATOM      1  C   UNL     1       6.790  -6.334   3.099  0.00  0.00    +0.000 C 
ATOM      2  C   UNL     1       6.294  -4.874   3.302  0.00  0.00    +0.000 C 
ENDROOT
BRANCH   1   9
ATOM      3  N   UNL     1      11.880  -4.265  -2.015  0.00  0.00    +0.000 NA
ATOM      4  C   UNL     1      10.898  -5.376  -1.954  0.00  0.00    +0.000 C 
ATOM      5  C   UNL     1       9.979  -5.369  -0.726  0.00  0.00    +0.000 C 
ATOM      6  N   UNL     1      10.761  -5.209   0.493  0.00  0.00    +0.000 N 
ATOM      7  C   UNL     1      10.254  -5.652   1.683  0.00  0.00    +0.000 A 
ATOM      8  C   UNL     1       8.887  -5.612   1.913  0.00  0.00    +0.000 A 
ATOM      9  C   UNL     1       8.322  -6.325   2.966  0.00  0.00    +0.000 A 
ATOM     10  C   UNL     1       9.213  -7.021   3.791  0.00  0.00    +0.000 A 
ATOM     11  C   UNL     1      10.575  -6.916   3.566  0.00  0.00    +0.000 A 
ATOM     12  N   UNL     1      11.109  -6.238   2.543  0.00  0.00    +0.000 NA
ATOM     13  C   UNL     1      11.868  -4.270   0.555  0.00  0.00    +0.000 C 
ATOM     14  C   UNL     1      12.670  -4.315  -0.757  0.00  0.00    +0.000 C 
BRANCH   3  16
ATOM     15  C   UNL     1      10.307  -2.261  -1.544  0.00  0.00    +0.000 C 
ATOM     16  C   UNL     1      11.359  -2.941  -2.443  0.00  0.00    +0.000 C 
ATOM     17  C   UNL     1      10.727  -3.093  -3.849  0.00  0.00    +0.000 C 
ATOM     18  C   UNL     1      12.519  -1.928  -2.608  0.00  0.00    +0.000 C 
ENDBRANCH   3  16
ENDBRANCH   1   9
BRANCH   1  19
ATOM     19  C   UNL     1       6.109  -6.913   1.815  0.00  0.00    +0.000 C 
ATOM     20  F   UNL     1       6.989  -7.279   0.854  0.00  0.00    +0.000 F 
ATOM     21  F   UNL     1       5.360  -8.011   2.078  0.00  0.00    +0.000 F 
ATOM     22  F   UNL     1       5.276  -6.011   1.237  0.00  0.00    +0.000 F 
ENDBRANCH   1  19
BRANCH   1  23
ATOM     23  C   UNL     1       6.300  -7.194   4.288  0.00  0.00    +0.000 C 
BRANCH  23  24
ATOM     24  N   UNL     1       6.878  -6.758   5.553  0.00  0.00    +0.000 N 
ATOM     25  C   UNL     1       6.638  -7.409   6.734  0.00  0.00    +0.000 A 
ATOM     26  C   UNL     1       6.379  -8.771   6.821  0.00  0.00    +0.000 A 
ATOM     27  C   UNL     1       6.176  -9.348   8.072  0.00  0.00    +0.000 A 
ATOM     28  C   UNL     1       6.255  -8.538   9.197  0.00  0.00    +0.000 A 
ATOM     29  C   UNL     1       6.518  -7.194   9.036  0.00  0.00    +0.000 A 
ATOM     30  N   UNL     1       6.728  -6.625   7.826  0.00  0.00    +0.000 NA
ATOM     31  H   UNL     1       6.969  -5.762   5.732  0.00  0.00    +0.000 HD
BRANCH  28  32
ATOM     32  S   UNL     1       5.913  -9.176  10.801  0.00  0.00    +0.000 S 
ATOM     33  C   UNL     1       7.488  -9.744  11.383  0.00  0.00    +0.000 C 
ATOM     34  O   UNL     1       5.493  -8.076  11.632  0.00  0.00    +0.000 OA
ATOM     35  O   UNL     1       5.061 -10.341  10.618  0.00  0.00    +0.000 OA
ENDBRANCH  28  32
ENDBRANCH  23  24
ENDBRANCH   1  23
TORSDOF 6
