REMARK  Name = 
REMARK  4 active torsions:
REMARK  status: ('A' for Active; 'I' for Inactive)
REMARK    1  A    between atoms: C_2  and  C_4
REMARK    2  A    between atoms: C_7  and  C_8
REMARK    3  A    between atoms: C_8  and  S_9
REMARK    4  A    between atoms: S_9  and  C_10
REMARK                            x       y       z     vdW  Elec       q    Type
REMARK                         _______ _______ _______ _____ _____    ______ ____
ROOT
ATOM      1  C   UNL     1       3.209   1.309   0.059  0.00  0.00    +0.000 A 
ATOM      2  C   UNL     1       2.757   2.310   0.921  0.00  0.00    +0.000 A 
ATOM      3  C   UNL     1       3.452   3.518   1.020  0.00  0.00    +0.000 A 
ATOM      4  C   UNL     1       4.634   3.737   0.295  0.00  0.00    +0.000 A 
ATOM      5  C   UNL     1       5.073   2.724  -0.576  0.00  0.00    +0.000 A 
ATOM      6  C   UNL     1       4.374   1.515  -0.686  0.00  0.00    +0.000 A 
ENDROOT
BRANCH   1   8
ATOM      7  N   UNL     1       1.139   0.036   0.169  0.00  0.00    +0.000 N 
ATOM      8  C   UNL     1       2.486   0.017  -0.072  0.00  0.00    +0.000 C 
ATOM      9  O   UNL     1       3.054  -1.011  -0.415  0.00  0.00    +0.000 OA
ATOM     10  H   UNL     1       0.634  -0.824  -0.012  0.00  0.00    +0.000 HD
ATOM     11  H   UNL     1       0.607   0.892   0.210  0.00  0.00    +0.000 HD
ENDBRANCH   1   8
BRANCH   4  12
ATOM     12  C   UNL     1       5.395   5.051   0.360  0.00  0.00    +0.000 C 
BRANCH  12  13
ATOM     13  S   UNL     1       5.409   5.823   2.017  0.00  0.00    +0.000 S 
BRANCH  13  14
ATOM     14  C   UNL     1       6.256   7.348   1.673  0.00  0.00    +0.000 A 
ATOM     15  C   UNL     1       6.469   8.271   2.692  0.00  0.00    +0.000 A 
ATOM     16  N   UNL     1       7.103   9.458   2.503  0.00  0.00    +0.000 NA
ATOM     17  C   UNL     1       7.522   9.685   1.241  0.00  0.00    +0.000 A 
ATOM     18  C   UNL     1       7.317   8.772   0.221  0.00  0.00    +0.000 A 
ATOM     19  N   UNL     1       6.683   7.591   0.411  0.00  0.00    +0.000 NA
ENDBRANCH  13  14
ENDBRANCH  12  13
ENDBRANCH   4  12
TORSDOF 4
