REMARK  Name = 
REMARK  7 active torsions:
REMARK  status: ('A' for Active; 'I' for Inactive)
REMARK    1  A    between atoms: C_1  and  O_2
REMARK    2  A    between atoms: O_2  and  C_3
REMARK    3  A    between atoms: C_5  and  C_6
REMARK    4  A    between atoms: C_11  and  O_12
REMARK    5  A    between atoms: O_12  and  C_13
REMARK    6  A    between atoms: C_13  and  C_14
REMARK    7  A    between atoms: C_18  and  C_19
REMARK                            x       y       z     vdW  Elec       q    Type
REMARK                         _______ _______ _______ _____ _____    ______ ____
ROOT
ATOM      1  O   UNL     1       4.672   1.413  -0.872  0.00  0.00    +0.000 OA
ENDROOT
BRANCH   1   7
ATOM      2  C   UNL     1       3.023   0.688   0.865  0.00  0.00    +0.000 A 
ATOM      3  C   UNL     1       2.759   0.637   2.241  0.00  0.00    +0.000 A 
ATOM      4  C   UNL     1       3.678   1.122   3.184  0.00  0.00    +0.000 A 
ATOM      5  C   UNL     1       4.883   1.668   2.738  0.00  0.00    +0.000 A 
ATOM      6  C   UNL     1       5.150   1.734   1.367  0.00  0.00    +0.000 A 
ATOM      7  C   UNL     1       4.232   1.253   0.420  0.00  0.00    +0.000 A 
BRANCH   4   8
ATOM      8  C   UNL     1       3.299   1.006   4.624  0.00  0.00    +0.000 C 
ATOM      9  N   UNL     1       4.178   1.443   5.574  0.00  0.00    +0.000 N 
ATOM     10  O   UNL     1       2.224   0.532   4.965  0.00  0.00    +0.000 OA
ATOM     11  H   UNL     1       5.088   1.836   5.396  0.00  0.00    +0.000 HD
ATOM     12  H   UNL     1       3.887   1.340   6.538  0.00  0.00    +0.000 HD
ENDBRANCH   4   8
BRANCH   2  14
ATOM     13  C   UNL     1       0.801   0.008   0.286  0.00  0.00    +0.000 C 
ATOM     14  O   UNL     1       2.174   0.141  -0.059  0.00  0.00    +0.000 OA
ENDBRANCH   2  14
ENDBRANCH   1   7
BRANCH   1  15
ATOM     15  C   UNL     1       3.787   1.045  -1.926  0.00  0.00    +0.000 C 
BRANCH  15  16
ATOM     16  C   UNL     1       4.414   1.339  -3.260  0.00  0.00    +0.000 A 
ATOM     17  C   UNL     1       5.611   0.743  -3.629  0.00  0.00    +0.000 A 
ATOM     18  N   UNL     1       6.178   0.891  -4.843  0.00  0.00    +0.000 NA
ATOM     19  C   UNL     1       5.521   1.679  -5.730  0.00  0.00    +0.000 A 
ATOM     20  C   UNL     1       4.324   2.356  -5.481  0.00  0.00    +0.000 A 
ATOM     21  C   UNL     1       3.778   2.157  -4.203  0.00  0.00    +0.000 A 
BRANCH  20  22
ATOM     22  C   UNL     1       3.681   3.233  -6.484  0.00  0.00    +0.000 A 
ATOM     23  C   UNL     1       2.279   3.365  -6.561  0.00  0.00    +0.000 A 
ATOM     24  C   UNL     1       1.677   4.232  -7.478  0.00  0.00    +0.000 A 
ATOM     25  C   UNL     1       2.469   4.969  -8.345  0.00  0.00    +0.000 A 
ATOM     26  F   UNL     1       1.895   5.806  -9.219  0.00  0.00    +0.000 F 
ATOM     27  C   UNL     1       3.850   4.852  -8.314  0.00  0.00    +0.000 A 
ATOM     28  C   UNL     1       4.450   3.993  -7.388  0.00  0.00    +0.000 A 
ENDBRANCH  20  22
ENDBRANCH  15  16
ENDBRANCH   1  15
TORSDOF 6
