REMARK  Name = 
REMARK  7 active torsions:
REMARK  status: ('A' for Active; 'I' for Inactive)
REMARK    1  A    between atoms: C_1  and  C_2
REMARK    2  A    between atoms: C_2  and  N_3
REMARK    3  A    between atoms: C_2  and  C_17
REMARK    4  A    between atoms: C_4  and  C_6
REMARK    5  A    between atoms: N_12  and  C_13
REMARK    6  A    between atoms: C_20  and  O_21
REMARK    7  A    between atoms: O_21  and  C_22
REMARK                            x       y       z     vdW  Elec       q    Type
REMARK                         _______ _______ _______ _____ _____    ______ ____
ROOT
ATOM      1  C   UNL     1       3.025  -1.364   0.611  0.00  0.00    +0.000 C 
ATOM      2  C   UNL     1       2.598  -0.031  -0.009  0.00  0.00    +0.000 C 
ENDROOT
BRANCH   2   3
ATOM      3  C   UNL     1       3.067   0.162  -1.443  0.00  0.00    +0.000 A 
ATOM      4  C   UNL     1       3.317   1.465  -1.901  0.00  0.00    +0.000 A 
ATOM      5  C   UNL     1       3.708   1.697  -3.221  0.00  0.00    +0.000 A 
ATOM      6  C   UNL     1       3.895   0.629  -4.100  0.00  0.00    +0.000 A 
ATOM      7  C   UNL     1       3.601  -0.666  -3.673  0.00  0.00    +0.000 A 
ATOM      8  C   UNL     1       3.183  -0.897  -2.359  0.00  0.00    +0.000 A 
BRANCH   6   9
ATOM      9  O   UNL     1       4.275   0.769  -5.415  0.00  0.00    +0.000 OA
BRANCH   9  10
ATOM     10  C   UNL     1       5.187   1.763  -5.736  0.00  0.00    +0.000 A 
ATOM     11  C   UNL     1       5.177   2.245  -7.038  0.00  0.00    +0.000 A 
ATOM     12  N   UNL     1       6.000   3.239  -7.456  0.00  0.00    +0.000 NA
ATOM     13  C   UNL     1       6.840   3.723  -6.512  0.00  0.00    +0.000 A 
ATOM     14  C   UNL     1       6.872   3.224  -5.220  0.00  0.00    +0.000 A 
ATOM     15  N   UNL     1       6.061   2.226  -4.809  0.00  0.00    +0.000 NA
ENDBRANCH   9  10
ENDBRANCH   6   9
ENDBRANCH   2   3
BRANCH   2  16
ATOM     16  N   UNL     1       1.155   0.101   0.013  0.00  0.00    +0.000 N 
ATOM     17  C   UNL     1       0.444   0.462   1.126  0.00  0.00    +0.000 C 
ATOM     18  O   UNL     1       0.974   0.857   2.158  0.00  0.00    +0.000 OA
ATOM     19  H   UNL     1       0.674  -0.373  -0.740  0.00  0.00    +0.000 HD
BRANCH  17  20
ATOM     20  C   UNL     1      -1.017   0.396   0.978  0.00  0.00    +0.000 A 
ATOM     21  C   UNL     1      -1.833   1.246   1.710  0.00  0.00    +0.000 A 
ATOM     22  S   UNL     1      -3.493   1.060   1.351  0.00  0.00    +0.000 S 
ATOM     23  C   UNL     1      -3.173  -0.193   0.243  0.00  0.00    +0.000 A 
ATOM     24  N   UNL     1      -4.179  -0.807  -0.431  0.00  0.00    +0.000 NA
ATOM     25  C   UNL     1      -3.793  -1.752  -1.227  0.00  0.00    +0.000 A 
ATOM     26  N   UNL     1      -2.489  -2.158  -1.416  0.00  0.00    +0.000 N 
ATOM     27  C   UNL     1      -2.167  -3.218  -2.347  0.00  0.00    +0.000 C 
ATOM     28  C   UNL     1      -1.435  -1.547  -0.744  0.00  0.00    +0.000 A 
ATOM     29  O   UNL     1      -0.264  -1.878  -0.913  0.00  0.00    +0.000 OA
ATOM     30  C   UNL     1      -1.824  -0.467   0.147  0.00  0.00    +0.000 A 
ENDBRANCH  17  20
ENDBRANCH   2  16
TORSDOF 5
