REMARK  Name = 
REMARK  10 active torsions:
REMARK  status: ('A' for Active; 'I' for Inactive)
REMARK    1  A    between atoms: C_1  and  O_2
REMARK    2  A    between atoms: O_2  and  C_3
REMARK    3  A    between atoms: C_10  and  C_11
REMARK    4  A    between atoms: N_13  and  C_14
REMARK    5  A    between atoms: C_14  and  C_15
REMARK    6  A    between atoms: C_18  and  C_19
REMARK    7  A    between atoms: C_19  and  N_20
REMARK    8  A    between atoms: N_20  and  C_21
REMARK    9  A    between atoms: N_20  and  C_22
REMARK   10  A    between atoms: C_22  and  C_23
REMARK                            x       y       z     vdW  Elec       q    Type
REMARK                         _______ _______ _______ _____ _____    ______ ____
ROOT
ATOM      1  C   UNL     1       2.715   3.389  -0.636  0.00  0.00    +0.000 C 
ENDROOT
BRANCH   1   2
ATOM      2  C   UNL     1       1.504   3.021  -1.458  0.00  0.00    +0.000 A 
ATOM      3  C   UNL     1       1.408   1.762  -2.065  0.00  0.00    +0.000 A 
ATOM      4  C   UNL     1       0.229   1.369  -2.710  0.00  0.00    +0.000 A 
ATOM      5  C   UNL     1      -0.874   2.232  -2.774  0.00  0.00    +0.000 A 
ATOM      6  C   UNL     1      -0.737   3.529  -2.263  0.00  0.00    +0.000 A 
ATOM      7  C   UNL     1       0.440   3.920  -1.613  0.00  0.00    +0.000 A 
BRANCH   5   8
ATOM      8  C   UNL     1      -2.191   1.769  -3.372  0.00  0.00    +0.000 C 
BRANCH   8   9
ATOM      9  N   UNL     1      -2.744   0.556  -2.721  0.00  0.00    +0.000 NA
ATOM     10  C   UNL     1      -3.081   0.803  -1.315  0.00  0.00    +0.000 C 
BRANCH   9  11
ATOM     11  C   UNL     1      -3.963   0.096  -3.434  0.00  0.00    +0.000 C 
BRANCH  11  12
ATOM     12  C   UNL     1      -3.710  -0.333  -4.869  0.00  0.00    +0.000 A 
ATOM     13  C   UNL     1      -2.809  -1.362  -5.145  0.00  0.00    +0.000 A 
ATOM     14  C   UNL     1      -2.512  -1.657  -6.471  0.00  0.00    +0.000 A 
ATOM     15  C   UNL     1      -3.128  -0.932  -7.484  0.00  0.00    +0.000 A 
ATOM     16  C   UNL     1      -4.029   0.057  -7.126  0.00  0.00    +0.000 A 
ATOM     17  N   UNL     1      -4.331   0.374  -5.849  0.00  0.00    +0.000 NA
ENDBRANCH  11  12
ENDBRANCH   9  11
ENDBRANCH   8   9
ENDBRANCH   5   8
ENDBRANCH   1   2
BRANCH   1  20
ATOM     18  C   UNL     1       4.922   4.458  -0.889  0.00  0.00    +0.000 C 
ATOM     19  O   UNL     1       5.186   4.287   0.298  0.00  0.00    +0.000 OA
ATOM     20  N   UNL     1       3.727   4.045  -1.417  0.00  0.00    +0.000 N 
ATOM     21  H   UNL     1       3.524   4.201  -2.396  0.00  0.00    +0.000 HD
BRANCH  18  29
ATOM     22  C   UNL     1       4.861   5.157  -4.255  0.00  0.00    +0.000 A 
ATOM     23  N   UNL     1       5.069   5.578  -5.517  0.00  0.00    +0.000 NA
ATOM     24  C   UNL     1       6.207   6.230  -5.781  0.00  0.00    +0.000 A 
ATOM     25  N   UNL     1       7.185   6.509  -4.922  0.00  0.00    +0.000 NA
ATOM     26  C   UNL     1       6.928   6.080  -3.674  0.00  0.00    +0.000 A 
ATOM     27  S   UNL     1       8.072   6.342  -2.446  0.00  0.00    +0.000 S 
ATOM     28  C   UNL     1       7.079   5.584  -1.291  0.00  0.00    +0.000 A 
ATOM     29  C   UNL     1       5.872   5.122  -1.803  0.00  0.00    +0.000 A 
ATOM     30  C   UNL     1       5.794   5.409  -3.236  0.00  0.00    +0.000 A 
BRANCH  22  32
ATOM     31  C   UNL     1       3.160   3.797  -5.107  0.00  0.00    +0.000 C 
ATOM     32  O   UNL     1       3.685   4.495  -3.981  0.00  0.00    +0.000 OA
ENDBRANCH  22  32
ENDBRANCH  18  29
ENDBRANCH   1  20
TORSDOF 8
