REMARK  Name = 
REMARK  9 active torsions:
REMARK  status: ('A' for Active; 'I' for Inactive)
REMARK    1  A    between atoms: N_1  and  C_2
REMARK    2  A    between atoms: C_2  and  C_3
REMARK    3  A    between atoms: C_3  and  N_4
REMARK    4  A    between atoms: C_3  and  C_26
REMARK    5  A    between atoms: N_4  and  C_5
REMARK    6  A    between atoms: C_5  and  C_6
REMARK    7  A    between atoms: C_9  and  C_10
REMARK    8  A    between atoms: C_10  and  N_11
REMARK    9  A    between atoms: C_12  and  C_14
REMARK                            x       y       z     vdW  Elec       q    Type
REMARK                         _______ _______ _______ _____ _____    ______ ____
ROOT
ATOM      1  C   UNL     1       2.708  -0.173   2.429  0.00  0.00    +0.000 A 
ATOM      2  C   UNL     1       1.970  -0.995   3.277  0.00  0.00    +0.000 A 
ATOM      3  C   UNL     1       1.416  -0.443   4.426  0.00  0.00    +0.000 A 
ATOM      4  C   UNL     1       1.596   0.915   4.700  0.00  0.00    +0.000 A 
ATOM      5  C   UNL     1       2.362   1.655   3.809  0.00  0.00    +0.000 A 
ATOM      6  N   UNL     1       2.901   1.146   2.683  0.00  0.00    +0.000 NA
ENDROOT
BRANCH   1   7
ATOM      7  C   UNL     1       3.259  -0.709   1.124  0.00  0.00    +0.000 C 
BRANCH   7   8
ATOM      8  N   UNL     1       4.700  -0.479   0.974  0.00  0.00    +0.000 NA
ATOM      9  H   UNL     1       5.190  -0.938   1.742  0.00  0.00    +0.000 HD
BRANCH   8  10
ATOM     10  C   UNL     1       5.240  -0.986  -0.307  0.00  0.00    +0.000 C 
BRANCH  10  11
ATOM     11  C   UNL     1       6.764  -0.837  -0.356  0.00  0.00    +0.000 A 
ATOM     12  C   UNL     1       7.370   0.416  -0.246  0.00  0.00    +0.000 A 
ATOM     13  C   UNL     1       8.754   0.515  -0.365  0.00  0.00    +0.000 A 
ATOM     14  C   UNL     1       9.502  -0.633  -0.583  0.00  0.00    +0.000 A 
ATOM     15  C   UNL     1       8.831  -1.845  -0.651  0.00  0.00    +0.000 A 
ATOM     16  N   UNL     1       7.492  -1.975  -0.529  0.00  0.00    +0.000 NA
ENDBRANCH  10  11
BRANCH  10  17
ATOM     17  C   UNL     1       4.573  -0.303  -1.546  0.00  0.00    +0.000 C 
BRANCH  17  18
ATOM     18  N   UNL     1       4.969  -0.837  -2.853  0.00  0.00    +0.000 NA
ATOM     19  H   UNL     1       4.370  -0.435  -3.572  0.00  0.00    +0.000 HD
ATOM     20  H   UNL     1       4.819  -1.845  -2.869  0.00  0.00    +0.000 HD
ENDBRANCH  17  18
ENDBRANCH  10  17
ENDBRANCH   8  10
ENDBRANCH   7   8
ENDBRANCH   1   7
BRANCH   4  21
ATOM     21  C   UNL     1       1.032   1.560   5.926  0.00  0.00    +0.000 C 
BRANCH  21  22
ATOM     22  N   UNL     1       1.923   1.411   7.044  0.00  0.00    +0.000 N 
ATOM     23  C   UNL     1       2.832   2.372   7.402  0.00  0.00    +0.000 C 
ATOM     24  O   UNL     1       2.917   3.447   6.814  0.00  0.00    +0.000 OA
ATOM     25  H   UNL     1       2.044   0.467   7.395  0.00  0.00    +0.000 HD
BRANCH  23  26
ATOM     26  C   UNL     1       3.645   2.074   8.587  0.00  0.00    +0.000 A 
ATOM     27  C   UNL     1       4.226   3.114   9.301  0.00  0.00    +0.000 A 
ATOM     28  S   UNL     1       5.058   2.601  10.698  0.00  0.00    +0.000 S 
ATOM     29  C   UNL     1       4.719   0.966  10.367  0.00  0.00    +0.000 A 
ATOM     30  N   UNL     1       5.164  -0.020  11.192  0.00  0.00    +0.000 NA
ATOM     31  C   UNL     1       4.868  -1.215  10.802  0.00  0.00    +0.000 A 
ATOM     32  N   UNL     1       4.165  -1.514   9.665  0.00  0.00    +0.000 N 
ATOM     33  C   UNL     1       3.648  -0.550   8.834  0.00  0.00    +0.000 A 
ATOM     34  O   UNL     1       2.941  -0.852   7.877  0.00  0.00    +0.000 OA
ATOM     35  C   UNL     1       3.972   0.813   9.213  0.00  0.00    +0.000 A 
ATOM     36  H   UNL     1       3.952  -2.471   9.426  0.00  0.00    +0.000 HD
ENDBRANCH  23  26
ENDBRANCH  21  22
ENDBRANCH   4  21
TORSDOF 9
