REMARK  Name = 
REMARK  4 active torsions:
REMARK  status: ('A' for Active; 'I' for Inactive)
REMARK    1  A    between atoms: C_2  and  C_4
REMARK    2  A    between atoms: C_7  and  N_8
REMARK    3  A    between atoms: N_8  and  C_9
REMARK    4  A    between atoms: C_9  and  C_10
REMARK                            x       y       z     vdW  Elec       q    Type
REMARK                         _______ _______ _______ _____ _____    ______ ____
ROOT
ATOM      1  N   UNL     1       4.143  -4.761  -3.001  0.00  0.00    +0.000 N 
ATOM      2  H   UNL     1       3.751  -5.701  -3.060  0.00  0.00    +0.000 HD
ENDROOT
BRANCH   1   6
ATOM      3  C   UNL     1       1.584  -1.987  -1.258  0.00  0.00    +0.000 A 
ATOM      4  C   UNL     1       2.707  -1.505  -1.914  0.00  0.00    +0.000 A 
ATOM      5  C   UNL     1       3.561  -2.416  -2.540  0.00  0.00    +0.000 A 
ATOM      6  C   UNL     1       3.281  -3.788  -2.509  0.00  0.00    +0.000 A 
ATOM      7  C   UNL     1       2.132  -4.153  -1.794  0.00  0.00    +0.000 A 
ATOM      8  N   UNL     1       1.267  -3.307  -1.181  0.00  0.00    +0.000 NA
BRANCH   3  10
ATOM      9  N   UNL     1      -0.424  -1.586   0.076  0.00  0.00    +0.000 N 
ATOM     10  C   UNL     1       0.647  -1.037  -0.577  0.00  0.00    +0.000 C 
ATOM     11  O   UNL     1       0.831   0.177  -0.574  0.00  0.00    +0.000 OA
ATOM     12  H   UNL     1      -0.997  -0.968   0.631  0.00  0.00    +0.000 HD
ATOM     13  H   UNL     1      -0.447  -2.585   0.248  0.00  0.00    +0.000 HD
ENDBRANCH   3  10
ENDBRANCH   1   6
BRANCH   1  14
ATOM     14  C   UNL     1       5.040  -4.483  -4.133  0.00  0.00    +0.000 C 
BRANCH  14  15
ATOM     15  C   UNL     1       5.865  -5.708  -4.525  0.00  0.00    +0.000 A 
ATOM     16  N   UNL     1       5.312  -6.915  -4.348  0.00  0.00    +0.000 NA
ATOM     17  C   UNL     1       6.046  -7.914  -4.815  0.00  0.00    +0.000 A 
ATOM     18  N   UNL     1       7.214  -7.808  -5.431  0.00  0.00    +0.000 NA
ATOM     19  C   UNL     1       7.705  -6.580  -5.543  0.00  0.00    +0.000 A 
ATOM     20  N   UNL     1       8.928  -6.426  -6.136  0.00  0.00    +0.000 N 
ATOM     21  C   UNL     1       9.668  -7.579  -6.650  0.00  0.00    +0.000 C 
ATOM     22  C   UNL     1      11.018  -7.715  -5.932  0.00  0.00    +0.000 C 
ATOM     23  O   UNL     1      11.759  -6.483  -5.964  0.00  0.00    +0.000 OA
ATOM     24  C   UNL     1      11.016  -5.438  -5.315  0.00  0.00    +0.000 C 
ATOM     25  C   UNL     1       9.673  -5.178  -6.014  0.00  0.00    +0.000 C 
ATOM     26  N   UNL     1       7.052  -5.501  -5.106  0.00  0.00    +0.000 NA
ENDBRANCH  14  15
ENDBRANCH   1  14
TORSDOF 4
