REMARK  Name = 
REMARK  5 active torsions:
REMARK  status: ('A' for Active; 'I' for Inactive)
REMARK    1  A    between atoms: N_1  and  C_2
REMARK    2  A    between atoms: C_2  and  C_3
REMARK    3  A    between atoms: N_6  and  C_7
REMARK    4  A    between atoms: C_7  and  C_8
REMARK    5  A    between atoms: C_15  and  C_16
REMARK                            x       y       z     vdW  Elec       q    Type
REMARK                         _______ _______ _______ _____ _____    ______ ____
ROOT
ATOM      1  C   UNL     1       2.993  -4.227   4.018  0.00  0.00    +0.000 A 
ATOM      2  N   UNL     1       2.652  -3.585   5.140  0.00  0.00    +0.000 NA
ATOM      3  S   UNL     1       3.656  -4.049   6.361  0.00  0.00    +0.000 S 
ATOM      4  C   UNL     1       4.591  -5.151   5.435  0.00  0.00    +0.000 A 
ATOM      5  C   UNL     1       5.635  -5.992   5.847  0.00  0.00    +0.000 A 
ATOM      6  C   UNL     1       6.226  -6.819   4.892  0.00  0.00    +0.000 A 
ATOM      7  F   UNL     1       7.191  -7.652   5.312  0.00  0.00    +0.000 F 
ATOM      8  C   UNL     1       5.828  -6.794   3.558  0.00  0.00    +0.000 A 
ATOM      9  C   UNL     1       4.798  -5.922   3.161  0.00  0.00    +0.000 A 
ATOM     10  C   UNL     1       4.137  -5.110   4.115  0.00  0.00    +0.000 A 
ENDROOT
BRANCH   8  11
ATOM     11  C   UNL     1       6.420  -7.686   2.526  0.00  0.00    +0.000 C 
ATOM     12  N   UNL     1       7.291  -8.654   2.929  0.00  0.00    +0.000 N 
ATOM     13  O   UNL     1       6.117  -7.582   1.343  0.00  0.00    +0.000 OA
ATOM     14  H   UNL     1       7.569  -8.792   3.893  0.00  0.00    +0.000 HD
ATOM     15  H   UNL     1       7.656  -9.283   2.225  0.00  0.00    +0.000 HD
ENDBRANCH   8  11
BRANCH   1  16
ATOM     16  C   UNL     1       2.109  -4.033   2.809  0.00  0.00    +0.000 C 
BRANCH  16  20
ATOM     17  C   UNL     1       3.092  -1.267  -0.392  0.00  0.00    +0.000 C 
ATOM     18  C   UNL     1       2.400  -2.603  -0.693  0.00  0.00    +0.000 C 
ATOM     19  C   UNL     1       1.819  -3.280   0.550  0.00  0.00    +0.000 C 
ATOM     20  N   UNL     1       2.793  -3.410   1.653  0.00  0.00    +0.000 NA
ATOM     21  C   UNL     1       3.369  -2.102   1.997  0.00  0.00    +0.000 C 
ATOM     22  C   UNL     1       4.059  -1.476   0.781  0.00  0.00    +0.000 C 
BRANCH  17  23
ATOM     23  C   UNL     1       2.138  -0.094  -0.093  0.00  0.00    +0.000 C 
BRANCH  23  24
ATOM     24  N   UNL     1       1.294   0.257  -1.229  0.00  0.00    +0.000 NA
ATOM     25  H   UNL     1       0.798   1.125  -1.022  0.00  0.00    +0.000 HD
ATOM     26  H   UNL     1       0.572  -0.450  -1.357  0.00  0.00    +0.000 HD
ENDBRANCH  23  24
ENDBRANCH  17  23
ENDBRANCH  16  20
ENDBRANCH   1  16
TORSDOF 5
