REMARK  Name = 
REMARK  7 active torsions:
REMARK  status: ('A' for Active; 'I' for Inactive)
REMARK    1  A    between atoms: C_2  and  C_3
REMARK    2  A    between atoms: C_6  and  C_7
REMARK    3  A    between atoms: C_7  and  N_8
REMARK    4  A    between atoms: N_8  and  C_9
REMARK    5  A    between atoms: C_12  and  C_13
REMARK    6  A    between atoms: C_19  and  C_20
REMARK    7  A    between atoms: C_20  and  O_21
REMARK                            x       y       z     vdW  Elec       q    Type
REMARK                         _______ _______ _______ _____ _____    ______ ____
ROOT
ATOM      1  C   UNL     1       3.770  -0.056   0.208  0.00  0.00    +0.000 C 
ATOM      2  C   UNL     1       4.794  -0.567  -0.785  0.00  0.00    +0.000 C 
ATOM      3  C   UNL     1       4.497  -1.404   0.420  0.00  0.00    +0.000 C 
ENDROOT
BRANCH   1   7
ATOM      4  C   UNL     1      -0.428  -0.601  -0.860  0.00  0.00    +0.000 A 
ATOM      5  C   UNL     1       0.346   0.350  -1.529  0.00  0.00    +0.000 A 
ATOM      6  C   UNL     1       1.683   0.554  -1.165  0.00  0.00    +0.000 A 
ATOM      7  C   UNL     1       2.280  -0.180  -0.127  0.00  0.00    +0.000 A 
ATOM      8  C   UNL     1       1.455  -1.078   0.580  0.00  0.00    +0.000 A 
ATOM      9  C   UNL     1       0.126  -1.303   0.211  0.00  0.00    +0.000 A 
BRANCH   4  11
ATOM     10  N   UNL     1      -2.847  -1.123  -1.643  0.00  0.00    +0.000 NA
ATOM     11  C   UNL     1      -1.768  -0.879  -1.285  0.00  0.00    +0.000 C 
ENDBRANCH   4  11
ENDBRANCH   1   7
BRANCH   1  12
ATOM     12  N   UNL     1       4.073   0.989   1.191  0.00  0.00    +0.000 N 
ATOM     13  H   UNL     1       3.748   0.790   2.135  0.00  0.00    +0.000 HD
BRANCH  12  14
ATOM     14  C   UNL     1       4.403   2.342   0.997  0.00  0.00    +0.000 A 
ATOM     15  C   UNL     1       4.552   2.974  -0.240  0.00  0.00    +0.000 A 
ATOM     16  C   UNL     1       5.000   4.305  -0.311  0.00  0.00    +0.000 A 
ATOM     17  C   UNL     1       5.324   5.024   0.850  0.00  0.00    +0.000 A 
ATOM     18  C   UNL     1       5.183   4.401   2.086  0.00  0.00    +0.000 A 
ATOM     19  C   UNL     1       4.733   3.078   2.149  0.00  0.00    +0.000 A 
BRANCH  17  20
ATOM     20  C   UNL     1       5.881   6.398   0.737  0.00  0.00    +0.000 C 
ATOM     21  N   UNL     1       5.715   7.242   1.802  0.00  0.00    +0.000 N 
ATOM     22  O   UNL     1       6.469   6.770  -0.272  0.00  0.00    +0.000 OA
ATOM     23  H   UNL     1       5.130   7.037   2.599  0.00  0.00    +0.000 HD
ATOM     24  H   UNL     1       6.070   8.184   1.701  0.00  0.00    +0.000 HD
ENDBRANCH  17  20
ENDBRANCH  12  14
ENDBRANCH   1  12
BRANCH   3  25
ATOM     25  C   UNL     1       5.518  -1.597   1.490  0.00  0.00    +0.000 C 
BRANCH  25  26
ATOM     26  O   UNL     1       4.941  -2.398   2.518  0.00  0.00    +0.000 OA
ATOM     27  H   UNL     1       5.563  -3.124   2.694  0.00  0.00    +0.000 HD
ENDBRANCH  25  26
ENDBRANCH   3  25
TORSDOF 7
