REMARK  Name = 
REMARK  6 active torsions:
REMARK  status: ('A' for Active; 'I' for Inactive)
REMARK    1  A    between atoms: C_2  and  C_3
REMARK    2  A    between atoms: C_7  and  C_8
REMARK    3  A    between atoms: C_12  and  C_13
REMARK    4  A    between atoms: C_13  and  N_14
REMARK    5  A    between atoms: N_14  and  C_15
REMARK    6  A    between atoms: C_18  and  C_19
REMARK                            x       y       z     vdW  Elec       q    Type
REMARK                         _______ _______ _______ _____ _____    ______ ____
ROOT
ATOM      1  C   UNL     1       2.135   5.824   1.632  0.00  0.00    +0.000 C 
ATOM      2  C   UNL     1       0.631   6.098   1.614  0.00  0.00    +0.000 C 
ATOM      3  C   UNL     1       1.584   7.166   1.201  0.00  0.00    +0.000 C 
ENDROOT
BRANCH   1   8
ATOM      4  C   UNL     1       2.325   2.442  -0.203  0.00  0.00    +0.000 A 
ATOM      5  C   UNL     1       3.337   2.709  -1.137  0.00  0.00    +0.000 A 
ATOM      6  C   UNL     1       3.957   3.960  -1.198  0.00  0.00    +0.000 A 
ATOM      7  C   UNL     1       3.579   4.975  -0.320  0.00  0.00    +0.000 A 
ATOM      8  C   UNL     1       2.581   4.763   0.636  0.00  0.00    +0.000 A 
ATOM      9  C   UNL     1       1.982   3.485   0.673  0.00  0.00    +0.000 A 
BRANCH   4  14
ATOM     10  C   UNL     1       0.717  -0.851  -1.252  0.00  0.00    +0.000 A 
ATOM     11  C   UNL     1       0.248  -1.336  -0.033  0.00  0.00    +0.000 A 
ATOM     12  C   UNL     1       0.448  -0.599   1.128  0.00  0.00    +0.000 A 
ATOM     13  C   UNL     1       1.133   0.618   1.072  0.00  0.00    +0.000 A 
ATOM     14  C   UNL     1       1.624   1.138  -0.143  0.00  0.00    +0.000 A 
ATOM     15  C   UNL     1       1.396   0.378  -1.303  0.00  0.00    +0.000 A 
BRANCH  10  17
ATOM     16  N   UNL     1       0.351  -2.203  -3.433  0.00  0.00    +0.000 NA
ATOM     17  C   UNL     1       0.511  -1.598  -2.453  0.00  0.00    +0.000 C 
ENDBRANCH  10  17
ENDBRANCH   4  14
ENDBRANCH   1   8
BRANCH   1  18
ATOM     18  N   UNL     1       2.822   5.724   2.939  0.00  0.00    +0.000 N 
ATOM     19  H   UNL     1       2.802   4.790   3.348  0.00  0.00    +0.000 HD
BRANCH  18  20
ATOM     20  C   UNL     1       4.063   6.347   3.184  0.00  0.00    +0.000 A 
ATOM     21  C   UNL     1       4.669   7.289   2.368  0.00  0.00    +0.000 A 
ATOM     22  N   UNL     1       5.833   7.923   2.641  0.00  0.00    +0.000 NA
ATOM     23  C   UNL     1       6.395   7.610   3.832  0.00  0.00    +0.000 A 
ATOM     24  N   UNL     1       5.889   6.753   4.736  0.00  0.00    +0.000 NA
ATOM     25  C   UNL     1       4.729   6.157   4.385  0.00  0.00    +0.000 A 
BRANCH  23  26
ATOM     26  C   UNL     1       7.714   8.276   4.149  0.00  0.00    +0.000 C 
ATOM     27  N   UNL     1       8.210   9.111   3.174  0.00  0.00    +0.000 N 
ATOM     28  O   UNL     1       8.337   8.103   5.191  0.00  0.00    +0.000 OA
ATOM     29  H   UNL     1       7.693   9.250   2.314  0.00  0.00    +0.000 HD
ATOM     30  H   UNL     1       9.093   9.574   3.329  0.00  0.00    +0.000 HD
ENDBRANCH  23  26
ENDBRANCH  18  20
ENDBRANCH   1  18
TORSDOF 6
