REMARK  Name = 
REMARK  6 active torsions:
REMARK  status: ('A' for Active; 'I' for Inactive)
REMARK    1  A    between atoms: C_2  and  C_20
REMARK    2  A    between atoms: N_3  and  C_4
REMARK    3  A    between atoms: C_4  and  C_5
REMARK    4  A    between atoms: C_8  and  C_9
REMARK    5  A    between atoms: C_9  and  O_10
REMARK    6  A    between atoms: C_9  and  C_11
REMARK                            x       y       z     vdW  Elec       q    Type
REMARK                         _______ _______ _______ _____ _____    ______ ____
ROOT
ATOM      1  C   UNL     1       2.237   1.860  -1.455  0.00  0.00    +0.000 C 
ENDROOT
BRANCH   1   2
ATOM      2  C   UNL     1       3.136   2.853  -2.139  0.00  0.00    +0.000 A 
ATOM      3  C   UNL     1       2.795   4.209  -2.173  0.00  0.00    +0.000 A 
ATOM      4  C   UNL     1       3.606   5.131  -2.841  0.00  0.00    +0.000 A 
ATOM      5  C   UNL     1       4.772   4.719  -3.509  0.00  0.00    +0.000 A 
ATOM      6  C   UNL     1       5.123   3.362  -3.443  0.00  0.00    +0.000 A 
ATOM      7  C   UNL     1       4.304   2.436  -2.789  0.00  0.00    +0.000 A 
BRANCH   5   8
ATOM      8  C   UNL     1       5.627   5.763  -4.217  0.00  0.00    +0.000 C 
BRANCH   8   9
ATOM      9  C   UNL     1       6.297   5.313  -5.551  0.00  0.00    +0.000 C 
ATOM     10  O   UNL     1       6.187   4.176  -6.017  0.00  0.00    +0.000 OA
ATOM     11  N   UNL     1       7.037   6.264  -6.232  0.00  0.00    +0.000 N 
ATOM     12  C   UNL     1       7.233   7.660  -5.886  0.00  0.00    +0.000 C 
ATOM     13  C   UNL     1       7.565   8.305  -7.222  0.00  0.00    +0.000 C 
ATOM     14  C   UNL     1       8.348   7.222  -7.958  0.00  0.00    +0.000 C 
ATOM     15  C   UNL     1       7.774   5.912  -7.431  0.00  0.00    +0.000 C 
ENDBRANCH   8   9
BRANCH   8  16
ATOM     16  O   UNL     1       6.593   6.247  -3.283  0.00  0.00    +0.000 OA
ATOM     17  H   UNL     1       6.962   5.461  -2.844  0.00  0.00    +0.000 HD
ENDBRANCH   8  16
ENDBRANCH   5   8
ENDBRANCH   1   2
BRANCH   1  20
ATOM     18  O   UNL     1      -0.402   2.786  -1.838  0.00  0.00    +0.000 OA
ATOM     19  C   UNL     1       0.019   1.874  -2.543  0.00  0.00    +0.000 C 
ATOM     20  N   UNL     1       1.265   1.322  -2.371  0.00  0.00    +0.000 N 
ATOM     21  H   UNL     1       1.634   0.713  -3.094  0.00  0.00    +0.000 HD
BRANCH  19  22
ATOM     22  C   UNL     1      -0.817   1.262  -3.587  0.00  0.00    +0.000 A 
ATOM     23  C   UNL     1      -2.198   1.400  -3.531  0.00  0.00    +0.000 A 
ATOM     24  S   UNL     1      -3.017   0.599  -4.795  0.00  0.00    +0.000 S 
ATOM     25  C   UNL     1      -1.552   0.082  -5.490  0.00  0.00    +0.000 A 
ATOM     26  N   UNL     1      -1.544  -0.647  -6.640  0.00  0.00    +0.000 NA
ATOM     27  C   UNL     1      -0.364  -0.924  -7.083  0.00  0.00    +0.000 A 
ATOM     28  N   UNL     1       0.809  -0.547  -6.482  0.00  0.00    +0.000 N 
ATOM     29  C   UNL     1       0.848   0.113  -5.279  0.00  0.00    +0.000 A 
ATOM     30  O   UNL     1       1.909   0.310  -4.698  0.00  0.00    +0.000 OA
ATOM     31  C   UNL     1      -0.453   0.497  -4.759  0.00  0.00    +0.000 A 
ATOM     32  H   UNL     1       1.699  -0.823  -6.869  0.00  0.00    +0.000 HD
ENDBRANCH  19  22
ENDBRANCH   1  20
TORSDOF 6
