REMARK  Name = 
REMARK  6 active torsions:
REMARK  status: ('A' for Active; 'I' for Inactive)
REMARK    1  A    between atoms: C_2  and  C_19
REMARK    2  A    between atoms: N_3  and  C_4
REMARK    3  A    between atoms: C_4  and  C_5
REMARK    4  A    between atoms: C_8  and  C_9
REMARK    5  A    between atoms: C_9  and  N_10
REMARK    6  A    between atoms: N_10  and  C_11
REMARK                            x       y       z     vdW  Elec       q    Type
REMARK                         _______ _______ _______ _____ _____    ______ ____
ROOT
ATOM      1  C   UNL     1       2.051   1.711   1.857  0.00  0.00    +0.000 C 
ENDROOT
BRANCH   1   2
ATOM      2  C   UNL     1       2.957   2.402   2.853  0.00  0.00    +0.000 A 
ATOM      3  N   UNL     1       2.893   3.743   2.933  0.00  0.00    +0.000 NA
ATOM      4  C   UNL     1       3.753   4.342   3.781  0.00  0.00    +0.000 A 
ATOM      5  C   UNL     1       4.679   3.656   4.544  0.00  0.00    +0.000 A 
ATOM      6  C   UNL     1       4.694   2.292   4.356  0.00  0.00    +0.000 A 
ATOM      7  N   UNL     1       3.863   1.643   3.511  0.00  0.00    +0.000 NA
BRANCH   5   8
ATOM      8  C   UNL     1       5.613   4.354   5.487  0.00  0.00    +0.000 C 
BRANCH   8   9
ATOM      9  N   UNL     1       4.867   5.107   6.491  0.00  0.00    +0.000 NA
ATOM     10  H   UNL     1       4.232   4.471   6.979  0.00  0.00    +0.000 HD
BRANCH   9  11
ATOM     11  C   UNL     1       5.705   5.793   7.490  0.00  0.00    +0.000 C 
ATOM     12  C   UNL     1       4.773   6.512   8.477  0.00  0.00    +0.000 C 
ATOM     13  C   UNL     1       5.572   7.325   9.486  0.00  0.00    +0.000 C 
ATOM     14  O   UNL     1       6.439   8.245   8.828  0.00  0.00    +0.000 OA
ATOM     15  C   UNL     1       7.386   7.589   7.989  0.00  0.00    +0.000 C 
ATOM     16  C   UNL     1       6.683   6.809   6.885  0.00  0.00    +0.000 C 
ENDBRANCH   9  11
ENDBRANCH   8   9
ENDBRANCH   5   8
ENDBRANCH   1   2
BRANCH   1  19
ATOM     17  O   UNL     1       0.881   0.735  -0.540  0.00  0.00    +0.000 OA
ATOM     18  C   UNL     1       2.080   0.978  -0.494  0.00  0.00    +0.000 C 
ATOM     19  N   UNL     1       2.722   1.525   0.590  0.00  0.00    +0.000 N 
ATOM     20  H   UNL     1       3.717   1.367   0.665  0.00  0.00    +0.000 HD
BRANCH  18  21
ATOM     21  C   UNL     1       3.046   0.487  -1.464  0.00  0.00    +0.000 A 
ATOM     22  C   UNL     1       2.941  -0.766  -2.039  0.00  0.00    +0.000 A 
ATOM     23  S   UNL     1       4.493  -1.368  -2.463  0.00  0.00    +0.000 S 
ATOM     24  C   UNL     1       5.235   0.124  -2.092  0.00  0.00    +0.000 A 
ATOM     25  N   UNL     1       6.584   0.287  -2.077  0.00  0.00    +0.000 NA
ATOM     26  C   UNL     1       6.968   1.503  -1.845  0.00  0.00    +0.000 A 
ATOM     27  N   UNL     1       6.129   2.574  -1.671  0.00  0.00    +0.000 N 
ATOM     28  C   UNL     1       4.755   2.461  -1.669  0.00  0.00    +0.000 A 
ATOM     29  O   UNL     1       4.021   3.427  -1.577  0.00  0.00    +0.000 OA
ATOM     30  C   UNL     1       4.301   1.090  -1.804  0.00  0.00    +0.000 A 
ATOM     31  H   UNL     1       6.493   3.515  -1.595  0.00  0.00    +0.000 HD
ENDBRANCH  18  21
ENDBRANCH   1  19
TORSDOF 6
