REMARK  Name = 
REMARK  8 active torsions:
REMARK  status: ('A' for Active; 'I' for Inactive)
REMARK    1  A    between atoms: C_1  and  N_2
REMARK    2  A    between atoms: N_2  and  C_3
REMARK    3  A    between atoms: C_3  and  C_4
REMARK    4  A    between atoms: C_7  and  C_8
REMARK    5  A    between atoms: C_8  and  N_9
REMARK    6  A    between atoms: N_9  and  C_10
REMARK    7  A    between atoms: C_10  and  C_11
REMARK    8  A    between atoms: C_18  and  C_20
REMARK                            x       y       z     vdW  Elec       q    Type
REMARK                         _______ _______ _______ _____ _____    ______ ____
ROOT
ATOM      1  C   UNL     1       3.062   0.838  -0.986  0.00  0.00    +0.000 C 
ENDROOT
BRANCH   1   2
ATOM      2  C   UNL     1       2.164   1.889  -1.567  0.00  0.00    +0.000 A 
ATOM      3  C   UNL     1       1.069   1.545  -2.358  0.00  0.00    +0.000 A 
ATOM      4  C   UNL     1       0.244   2.547  -2.856  0.00  0.00    +0.000 A 
ATOM      5  C   UNL     1       0.533   3.874  -2.545  0.00  0.00    +0.000 A 
ATOM      6  N   UNL     1       1.596   4.232  -1.781  0.00  0.00    +0.000 NA
ATOM      7  C   UNL     1       2.385   3.239  -1.318  0.00  0.00    +0.000 A 
BRANCH   5   8
ATOM      8  C   UNL     1      -0.335   4.990  -3.089  0.00  0.00    +0.000 C 
BRANCH   8   9
ATOM      9  N   UNL     1       0.392   5.985  -3.887  0.00  0.00    +0.000 NA
ATOM     10  H   UNL     1       1.170   6.324  -3.312  0.00  0.00    +0.000 HD
BRANCH   9  11
ATOM     11  C   UNL     1       0.991   5.395  -5.089  0.00  0.00    +0.000 C 
BRANCH  11  12
ATOM     12  C   UNL     1       1.701   6.479  -5.840  0.00  0.00    +0.000 A 
ATOM     13  C   UNL     1       1.168   7.323  -6.845  0.00  0.00    +0.000 A 
ATOM     14  C   UNL     1       2.206   8.151  -7.198  0.00  0.00    +0.000 A 
ATOM     15  N   UNL     1       3.262   7.784  -6.418  0.00  0.00    +0.000 N 
ATOM     16  N   UNL     1       2.990   6.761  -5.594  0.00  0.00    +0.000 NA
ATOM     17  H   UNL     1       4.193   8.184  -6.394  0.00  0.00    +0.000 HD
ENDBRANCH  11  12
ENDBRANCH   9  11
ENDBRANCH   8   9
ENDBRANCH   5   8
ENDBRANCH   1   2
BRANCH   1  19
ATOM     18  C   UNL     1       1.514   0.800   1.016  0.00  0.00    +0.000 C 
ATOM     19  N   UNL     1       2.649   0.240   0.289  0.00  0.00    +0.000 N 
ATOM     20  C   UNL     1       3.133  -0.996   0.755  0.00  0.00    +0.000 C 
ATOM     21  O   UNL     1       2.627  -1.554   1.726  0.00  0.00    +0.000 OA
BRANCH  20  22
ATOM     22  C   UNL     1       4.290  -1.614   0.091  0.00  0.00    +0.000 A 
ATOM     23  C   UNL     1       5.439  -0.933  -0.277  0.00  0.00    +0.000 A 
ATOM     24  S   UNL     1       6.636  -1.935  -0.968  0.00  0.00    +0.000 S 
ATOM     25  C   UNL     1       5.715  -3.332  -0.659  0.00  0.00    +0.000 A 
ATOM     26  N   UNL     1       6.217  -4.568  -0.915  0.00  0.00    +0.000 NA
ATOM     27  C   UNL     1       5.436  -5.537  -0.562  0.00  0.00    +0.000 A 
ATOM     28  N   UNL     1       4.189  -5.377  -0.015  0.00  0.00    +0.000 N 
ATOM     29  C   UNL     1       3.583  -4.146   0.128  0.00  0.00    +0.000 A 
ATOM     30  O   UNL     1       2.390  -4.055   0.380  0.00  0.00    +0.000 OA
ATOM     31  C   UNL     1       4.474  -3.027  -0.134  0.00  0.00    +0.000 A 
ATOM     32  H   UNL     1       3.604  -6.177   0.178  0.00  0.00    +0.000 HD
ENDBRANCH  20  22
ENDBRANCH   1  19
TORSDOF 7
