REMARK  Name = 
REMARK  7 active torsions:
REMARK  status: ('A' for Active; 'I' for Inactive)
REMARK    1  A    between atoms: N_1  and  C_2
REMARK    2  A    between atoms: C_2  and  N_3
REMARK    3  A    between atoms: C_2  and  C_16
REMARK    4  A    between atoms: C_4  and  C_6
REMARK    5  A    between atoms: C_19  and  O_20
REMARK    6  A    between atoms: O_20  and  C_21
REMARK    7  A    between atoms: C_21  and  C_22
REMARK                            x       y       z     vdW  Elec       q    Type
REMARK                         _______ _______ _______ _____ _____    ______ ____
ROOT
ATOM      1  C   UNL     1       2.319   0.059  -0.096  0.00  0.00    +0.000 C 
ENDROOT
BRANCH   1   2
ATOM      2  C   UNL     1       2.793   0.723   1.175  0.00  0.00    +0.000 A 
ATOM      3  C   UNL     1       2.716   2.111   1.382  0.00  0.00    +0.000 A 
ATOM      4  C   UNL     1       3.096   2.655   2.607  0.00  0.00    +0.000 A 
ATOM      5  C   UNL     1       3.532   1.793   3.596  0.00  0.00    +0.000 A 
ATOM      6  N   UNL     1       3.658   0.459   3.424  0.00  0.00    +0.000 NA
ATOM      7  C   UNL     1       3.285  -0.043   2.225  0.00  0.00    +0.000 A 
BRANCH   5   8
ATOM      8  O   UNL     1       3.861   2.349   4.817  0.00  0.00    +0.000 OA
BRANCH   8   9
ATOM      9  C   UNL     1       3.766   1.381   5.867  0.00  0.00    +0.000 C 
BRANCH   9  10
ATOM     10  C   UNL     1       4.132   1.984   7.198  0.00  0.00    +0.000 A 
ATOM     11  C   UNL     1       3.524   1.534   8.375  0.00  0.00    +0.000 A 
ATOM     12  C   UNL     1       3.937   2.036   9.605  0.00  0.00    +0.000 A 
ATOM     13  C   UNL     1       4.957   2.972   9.621  0.00  0.00    +0.000 A 
ATOM     14  N   UNL     1       5.576   3.425   8.510  0.00  0.00    +0.000 NA
ATOM     15  C   UNL     1       5.153   2.918   7.327  0.00  0.00    +0.000 A 
ENDBRANCH   9  10
ENDBRANCH   8   9
ENDBRANCH   5   8
ENDBRANCH   1   2
BRANCH   1  16
ATOM     16  N   UNL     1       2.906   0.669  -1.250  0.00  0.00    +0.000 N 
ATOM     17  C   UNL     1       2.672   0.227  -2.530  0.00  0.00    +0.000 C 
ATOM     18  O   UNL     1       1.840  -0.639  -2.786  0.00  0.00    +0.000 OA
ATOM     19  H   UNL     1       3.822   1.074  -1.084  0.00  0.00    +0.000 HD
BRANCH  17  20
ATOM     20  C   UNL     1       3.379   0.948  -3.592  0.00  0.00    +0.000 A 
ATOM     21  C   UNL     1       2.806   1.063  -4.851  0.00  0.00    +0.000 A 
ATOM     22  S   UNL     1       3.725   2.011  -5.932  0.00  0.00    +0.000 S 
ATOM     23  C   UNL     1       4.946   2.253  -4.771  0.00  0.00    +0.000 A 
ATOM     24  N   UNL     1       6.057   2.983  -5.057  0.00  0.00    +0.000 NA
ATOM     25  C   UNL     1       6.913   3.051  -4.093  0.00  0.00    +0.000 A 
ATOM     26  N   UNL     1       6.758   2.460  -2.864  0.00  0.00    +0.000 N 
ATOM     27  C   UNL     1       5.637   1.742  -2.520  0.00  0.00    +0.000 A 
ATOM     28  O   UNL     1       5.494   1.261  -1.400  0.00  0.00    +0.000 OA
ATOM     29  C   UNL     1       4.649   1.628  -3.573  0.00  0.00    +0.000 A 
ATOM     30  H   UNL     1       7.466   2.559  -2.151  0.00  0.00    +0.000 HD
ENDBRANCH  17  20
ENDBRANCH   1  16
BRANCH   1  31
ATOM     31  N   UNL     1       0.885   0.222  -0.226  0.00  0.00    +0.000 NA
ATOM     32  H   UNL     1       0.617  -0.276  -1.079  0.00  0.00    +0.000 HD
ATOM     33  H   UNL     1       0.700   1.200  -0.429  0.00  0.00    +0.000 HD
ENDBRANCH   1  31
TORSDOF 7
