REMARK  Name = 
REMARK  8 active torsions:
REMARK  status: ('A' for Active; 'I' for Inactive)
REMARK    1  A    between atoms: C_1  and  C_2
REMARK    2  A    between atoms: C_6  and  O_7
REMARK    3  A    between atoms: O_7  and  C_8
REMARK    4  A    between atoms: C_12  and  C_13
REMARK    5  A    between atoms: C_13  and  C_14
REMARK    6  A    between atoms: C_14  and  N_15
REMARK    7  A    between atoms: N_15  and  C_16
REMARK    8  A    between atoms: C_19  and  C_20
REMARK                            x       y       z     vdW  Elec       q    Type
REMARK                         _______ _______ _______ _____ _____    ______ ____
ROOT
ATOM      1  C   UNL     1       0.143  -3.818   6.103  0.00  0.00    +0.000 C 
ENDROOT
BRANCH   1   6
ATOM      2  C   UNL     1       0.177  -1.547   3.045  0.00  0.00    +0.000 A 
ATOM      3  C   UNL     1       1.211  -0.670   3.377  0.00  0.00    +0.000 A 
ATOM      4  C   UNL     1       1.981  -0.882   4.520  0.00  0.00    +0.000 A 
ATOM      5  C   UNL     1       1.685  -1.951   5.361  0.00  0.00    +0.000 A 
ATOM      6  C   UNL     1       0.594  -2.790   5.087  0.00  0.00    +0.000 A 
ATOM      7  C   UNL     1      -0.140  -2.597   3.906  0.00  0.00    +0.000 A 
BRANCH   2   8
ATOM      8  O   UNL     1      -0.502  -1.235   1.904  0.00  0.00    +0.000 OA
BRANCH   8  14
ATOM      9  C   UNL     1      -0.525  -4.361  -0.263  0.00  0.00    +0.000 C 
ATOM     10  C   UNL     1      -0.011  -3.037   0.313  0.00  0.00    +0.000 C 
ATOM     11  C   UNL     1       0.267  -2.023  -0.792  0.00  0.00    +0.000 C 
ATOM     12  N   UNL     1      -1.020  -1.384  -1.107  0.00  0.00    +0.000 NA
ATOM     13  C   UNL     1      -1.924  -1.653   0.032  0.00  0.00    +0.000 C 
ATOM     14  C   UNL     1      -1.076  -2.304   1.133  0.00  0.00    +0.000 C 
ATOM     15  H   UNL     1      -1.415  -1.787  -1.955  0.00  0.00    +0.000 HD
ENDBRANCH   8  14
ENDBRANCH   2   8
ENDBRANCH   1   6
BRANCH   1  16
ATOM     16  C   UNL     1      -0.316  -3.114   7.388  0.00  0.00    +0.000 C 
BRANCH  16  17
ATOM     17  N   UNL     1      -0.809  -4.064   8.391  0.00  0.00    +0.000 N 
ATOM     18  H   UNL     1      -0.170  -4.845   8.531  0.00  0.00    +0.000 HD
BRANCH  17  19
ATOM     19  C   UNL     1      -1.222  -3.510   9.618  0.00  0.00    +0.000 A 
ATOM     20  C   UNL     1      -1.781  -2.232   9.731  0.00  0.00    +0.000 A 
ATOM     21  C   UNL     1      -2.232  -1.756  10.961  0.00  0.00    +0.000 A 
ATOM     22  C   UNL     1      -2.145  -2.592  12.061  0.00  0.00    +0.000 A 
ATOM     23  N   UNL     1      -1.650  -3.859  12.009  0.00  0.00    +0.000 NA
ATOM     24  C   UNL     1      -1.225  -4.279  10.789  0.00  0.00    +0.000 A 
BRANCH  22  25
ATOM     25  C   UNL     1      -2.627  -2.103  13.391  0.00  0.00    +0.000 C 
ATOM     26  N   UNL     1      -2.512  -2.994  14.422  0.00  0.00    +0.000 N 
ATOM     27  O   UNL     1      -3.100  -0.984  13.555  0.00  0.00    +0.000 OA
ATOM     28  H   UNL     1      -2.132  -3.920  14.242  0.00  0.00    +0.000 HD
ATOM     29  H   UNL     1      -2.837  -2.737  15.342  0.00  0.00    +0.000 HD
ENDBRANCH  22  25
ENDBRANCH  17  19
ENDBRANCH  16  17
ENDBRANCH   1  16
TORSDOF 7
