REMARK  Name = 
REMARK  10 active torsions:
REMARK  status: ('A' for Active; 'I' for Inactive)
REMARK    1  A    between atoms: C_1  and  C_2
REMARK    2  A    between atoms: N_4  and  C_5
REMARK    3  A    between atoms: C_9  and  C_10
REMARK    4  A    between atoms: C_10  and  C_11
REMARK    5  A    between atoms: C_10  and  C_12
REMARK    6  A    between atoms: C_10  and  C_13
REMARK    7  A    between atoms: C_13  and  N_14
REMARK    8  A    between atoms: N_14  and  C_15
REMARK    9  A    between atoms: C_18  and  C_19
REMARK   10  A    between atoms: C_26  and  C_27
REMARK                            x       y       z     vdW  Elec       q    Type
REMARK                         _______ _______ _______ _____ _____    ______ ____
ROOT
ATOM      1  C   UNL     1      -1.436   1.073  -5.411  0.00  0.00    +0.000 C 
ATOM      2  C   UNL     1      -2.450   0.754  -4.290  0.00  0.00    +0.000 C 
ATOM      3  C   UNL     1      -2.131   2.035  -6.406  0.00  0.00    +0.000 C 
ENDROOT
BRANCH   1   8
ATOM      4  C   UNL     1       1.840   1.423  -3.344  0.00  0.00    +0.000 A 
ATOM      5  C   UNL     1       2.234   2.714  -3.712  0.00  0.00    +0.000 A 
ATOM      6  C   UNL     1       1.464   3.496  -4.571  0.00  0.00    +0.000 A 
ATOM      7  C   UNL     1       0.283   2.992  -5.111  0.00  0.00    +0.000 A 
ATOM      8  C   UNL     1      -0.164   1.703  -4.787  0.00  0.00    +0.000 A 
ATOM      9  C   UNL     1       0.621   0.962  -3.871  0.00  0.00    +0.000 A 
BRANCH   4  13
ATOM     10  C   UNL     1       1.856  -2.338  -3.260  0.00  0.00    +0.000 C 
ATOM     11  C   UNL     1       2.568  -1.784  -2.027  0.00  0.00    +0.000 C 
ATOM     12  C   UNL     1       2.086  -0.378  -1.612  0.00  0.00    +0.000 C 
ATOM     13  N   UNL     1       2.623   0.665  -2.496  0.00  0.00    +0.000 N 
ATOM     14  C   UNL     1       4.082   0.591  -2.690  0.00  0.00    +0.000 C 
ATOM     15  C   UNL     1       4.494  -0.840  -3.106  0.00  0.00    +0.000 C 
ATOM     16  C   UNL     1       6.012  -0.976  -3.139  0.00  0.00    +0.000 C 
ATOM     17  O   UNL     1       3.999  -1.831  -2.186  0.00  0.00    +0.000 OA
ENDBRANCH   4  13
ENDBRANCH   1   8
BRANCH   1  18
ATOM     18  C   UNL     1      -1.031  -0.248  -6.156  0.00  0.00    +0.000 C 
BRANCH  18  19
ATOM     19  N   UNL     1      -2.169  -0.919  -6.806  0.00  0.00    +0.000 N 
ATOM     20  H   UNL     1      -2.703  -0.287  -7.396  0.00  0.00    +0.000 HD
BRANCH  19  21
ATOM     21  C   UNL     1      -1.936  -2.123  -7.490  0.00  0.00    +0.000 A 
ATOM     22  C   UNL     1      -0.952  -3.045  -7.119  0.00  0.00    +0.000 A 
ATOM     23  C   UNL     1      -0.804  -4.261  -7.799  0.00  0.00    +0.000 A 
ATOM     24  C   UNL     1      -1.667  -4.597  -8.844  0.00  0.00    +0.000 A 
ATOM     25  C   UNL     1      -2.679  -3.705  -9.206  0.00  0.00    +0.000 A 
ATOM     26  C   UNL     1      -2.819  -2.492  -8.518  0.00  0.00    +0.000 A 
BRANCH  24  27
ATOM     27  C   UNL     1      -1.458  -5.895  -9.538  0.00  0.00    +0.000 C 
ATOM     28  N   UNL     1      -2.529  -6.447 -10.184  0.00  0.00    +0.000 N 
ATOM     29  O   UNL     1      -0.380  -6.474  -9.510  0.00  0.00    +0.000 OA
ATOM     30  H   UNL     1      -3.478  -6.145 -10.020  0.00  0.00    +0.000 HD
ATOM     31  H   UNL     1      -2.392  -7.381 -10.547  0.00  0.00    +0.000 HD
ENDBRANCH  24  27
ENDBRANCH  19  21
ENDBRANCH  18  19
ENDBRANCH   1  18
TORSDOF 6
