REMARK  Name = 
REMARK  8 active torsions:
REMARK  status: ('A' for Active; 'I' for Inactive)
REMARK    1  A    between atoms: C_1  and  O_2
REMARK    2  A    between atoms: O_2  and  C_3
REMARK    3  A    between atoms: C_6  and  C_7
REMARK    4  A    between atoms: C_7  and  C_8
REMARK    5  A    between atoms: C_7  and  N_9
REMARK    6  A    between atoms: N_9  and  C_10
REMARK    7  A    between atoms: CA_13  and  C_14
REMARK    8  A    between atoms: C_14  and  OXT_16
REMARK                            x       y       z     vdW  Elec       q    Type
REMARK                         _______ _______ _______ _____ _____    ______ ____
ROOT
ATOM      1  N   UNL     1       4.985  -3.599   4.489  0.00  0.00    +0.000 N 
ATOM      2  H   UNL     1       4.350  -3.994   3.794  0.00  0.00    +0.000 HD
ENDROOT
BRANCH   1   3
ATOM      3  C   UNL     1       5.805  -4.610   5.013  0.00  0.00    +0.000 A 
ATOM      4  C   UNL     1       7.034  -4.388   5.635  0.00  0.00    +0.000 A 
ATOM      5  C   UNL     1       7.735  -5.443   6.236  0.00  0.00    +0.000 A 
ATOM      6  CA  UNL     1       7.174  -6.711   6.217  0.00  0.00    +0.000 A 
ATOM      7  N   UNL     1       5.977  -6.997   5.647  0.00  0.00    +0.000 NA
ATOM      8  C   UNL     1       5.332  -5.934   5.084  0.00  0.00    +0.000 A 
BRANCH   6   9
ATOM      9  C   UNL     1       7.896  -7.847   6.875  0.00  0.00    +0.000 C 
ATOM     10  O   UNL     1       8.963  -7.749   7.454  0.00  0.00    +0.000 OA
BRANCH   9  11
ATOM     11  OXT UNL     1       7.200  -9.004   6.747  0.00  0.00    +0.000 OA
ATOM     12  HXT UNL     1       6.371  -8.834   6.245  0.00  0.00    +0.000 HD
ENDBRANCH   9  11
ENDBRANCH   6   9
ENDBRANCH   1   3
BRANCH   1  13
ATOM     13  C   UNL     1       5.540  -2.319   3.985  0.00  0.00    +0.000 C 
ATOM     14  C   UNL     1       5.683  -1.272   5.095  0.00  0.00    +0.000 C 
BRANCH  13  18
ATOM     15  C   UNL     1       3.087  -0.654   0.845  0.00  0.00    +0.000 A 
ATOM     16  C   UNL     1       2.551  -0.779   2.122  0.00  0.00    +0.000 A 
ATOM     17  C   UNL     1       3.324  -1.332   3.146  0.00  0.00    +0.000 A 
ATOM     18  C   UNL     1       4.634  -1.749   2.881  0.00  0.00    +0.000 A 
ATOM     19  N   UNL     1       5.165  -1.646   1.638  0.00  0.00    +0.000 NA
ATOM     20  C   UNL     1       4.391  -1.102   0.665  0.00  0.00    +0.000 A 
BRANCH  15  22
ATOM     21  C   UNL     1       1.121   0.295  -0.083  0.00  0.00    +0.000 C 
ATOM     22  O   UNL     1       2.466  -0.138  -0.253  0.00  0.00    +0.000 OA
ENDBRANCH  15  22
ENDBRANCH  13  18
ENDBRANCH   1  13
TORSDOF 6
