REMARK  Name = 
REMARK  5 active torsions:
REMARK  status: ('A' for Active; 'I' for Inactive)
REMARK    1  A    between atoms: C_2  and  C_4
REMARK    2  A    between atoms: C_7  and  N_8
REMARK    3  A    between atoms: N_8  and  C_9
REMARK    4  A    between atoms: C_9  and  C_10
REMARK    5  A    between atoms: C_14  and  C_15
REMARK                            x       y       z     vdW  Elec       q    Type
REMARK                         _______ _______ _______ _____ _____    ______ ____
ROOT
ATOM      1  C   UNL     1       4.980   0.719   6.041  0.00  0.00    +0.000 C 
ATOM      2  C   UNL     1       4.934  -0.695   6.584  0.00  0.00    +0.000 C 
ATOM      3  C   UNL     1       3.674   0.101   6.505  0.00  0.00    +0.000 C 
ENDROOT
BRANCH   1   4
ATOM      4  C   UNL     1       5.590   1.852   6.859  0.00  0.00    +0.000 A 
ATOM      5  C   UNL     1       6.844   1.707   7.469  0.00  0.00    +0.000 A 
ATOM      6  C   UNL     1       7.542   2.808   7.956  0.00  0.00    +0.000 A 
ATOM      7  C   UNL     1       6.996   4.086   7.833  0.00  0.00    +0.000 A 
ATOM      8  C   UNL     1       5.723   4.286   7.273  0.00  0.00    +0.000 A 
ATOM      9  C   UNL     1       5.023   3.145   6.830  0.00  0.00    +0.000 A 
BRANCH   8  10
ATOM     10  C   UNL     1       5.209   5.650   7.051  0.00  0.00    +0.000 A 
ATOM     11  C   UNL     1       3.861   5.996   7.130  0.00  0.00    +0.000 A 
ATOM     12  N   UNL     1       3.388   7.241   6.858  0.00  0.00    +0.000 NA
ATOM     13  C   UNL     1       4.324   8.145   6.498  0.00  0.00    +0.000 A 
ATOM     14  C   UNL     1       5.667   7.824   6.423  0.00  0.00    +0.000 A 
ATOM     15  N   UNL     1       6.134   6.586   6.701  0.00  0.00    +0.000 NA
ENDBRANCH   8  10
ENDBRANCH   1   4
BRANCH   1  16
ATOM     16  N   UNL     1       5.210   0.932   4.594  0.00  0.00    +0.000 N 
ATOM     17  H   UNL     1       4.428   0.776   3.970  0.00  0.00    +0.000 HD
BRANCH  16  21
ATOM     18  C   UNL     1       8.797  -0.057   2.807  0.00  0.00    +0.000 A 
ATOM     19  C   UNL     1       8.505  -0.494   4.087  0.00  0.00    +0.000 A 
ATOM     20  N   UNL     1       7.334  -0.197   4.710  0.00  0.00    +0.000 NA
ATOM     21  C   UNL     1       6.443   0.550   4.018  0.00  0.00    +0.000 A 
ATOM     22  C   UNL     1       6.770   1.001   2.733  0.00  0.00    +0.000 A 
ATOM     23  N   UNL     1       7.934   0.712   2.088  0.00  0.00    +0.000 NA
BRANCH  18  25
ATOM     24  N   UNL     1      10.321   0.094   0.930  0.00  0.00    +0.000 N 
ATOM     25  C   UNL     1      10.092  -0.434   2.175  0.00  0.00    +0.000 C 
ATOM     26  O   UNL     1      10.906  -1.156   2.730  0.00  0.00    +0.000 OA
ATOM     27  H   UNL     1      11.198  -0.095   0.472  0.00  0.00    +0.000 HD
ATOM     28  H   UNL     1       9.650   0.730   0.519  0.00  0.00    +0.000 HD
ENDBRANCH  18  25
ENDBRANCH  16  21
ENDBRANCH   1  16
TORSDOF 5
