REMARK  Name = 
REMARK  8 active torsions:
REMARK  status: ('A' for Active; 'I' for Inactive)
REMARK    1  A    between atoms: C_1  and  C_2
REMARK    2  A    between atoms: C_2  and  C_3
REMARK    3  A    between atoms: C_3  and  N_4
REMARK    4  A    between atoms: C_3  and  C_17
REMARK    5  A    between atoms: C_5  and  C_7
REMARK    6  A    between atoms: C_20  and  O_21
REMARK    7  A    between atoms: O_21  and  C_22
REMARK    8  A    between atoms: C_22  and  C_23
REMARK                            x       y       z     vdW  Elec       q    Type
REMARK                         _______ _______ _______ _____ _____    ______ ____
ROOT
ATOM      1  C   UNL     1       2.993   0.809  -1.111  0.00  0.00    +0.000 C 
ENDROOT
BRANCH   1   2
ATOM      2  C   UNL     1       4.511   0.932  -1.113  0.00  0.00    +0.000 A 
ATOM      3  C   UNL     1       5.275   0.518  -2.213  0.00  0.00    +0.000 A 
ATOM      4  C   UNL     1       6.662   0.708  -2.221  0.00  0.00    +0.000 A 
ATOM      5  C   UNL     1       7.297   1.330  -1.144  0.00  0.00    +0.000 A 
ATOM      6  C   UNL     1       6.552   1.686  -0.022  0.00  0.00    +0.000 A 
ATOM      7  C   UNL     1       5.174   1.501  -0.013  0.00  0.00    +0.000 A 
BRANCH   5   8
ATOM      8  O   UNL     1       8.639   1.570  -1.287  0.00  0.00    +0.000 OA
BRANCH   8   9
ATOM      9  C   UNL     1       9.131   2.652  -0.481  0.00  0.00    +0.000 C 
BRANCH   9  10
ATOM     10  C   UNL     1      10.426   3.215  -1.015  0.00  0.00    +0.000 A 
ATOM     11  C   UNL     1      11.384   2.396  -1.606  0.00  0.00    +0.000 A 
ATOM     12  C   UNL     1      12.571   2.969  -2.052  0.00  0.00    +0.000 A 
ATOM     13  C   UNL     1      12.778   4.333  -1.886  0.00  0.00    +0.000 A 
ATOM     14  C   UNL     1      11.786   5.074  -1.271  0.00  0.00    +0.000 A 
ATOM     15  N   UNL     1      10.624   4.549  -0.829  0.00  0.00    +0.000 NA
ENDBRANCH   9  10
ENDBRANCH   8   9
ENDBRANCH   5   8
ENDBRANCH   1   2
BRANCH   1  16
ATOM     16  N   UNL     1       2.435   2.153  -1.074  0.00  0.00    +0.000 N 
ATOM     17  C   UNL     1       1.196   2.507  -1.526  0.00  0.00    +0.000 C 
ATOM     18  O   UNL     1       0.403   1.693  -1.994  0.00  0.00    +0.000 OA
ATOM     19  H   UNL     1       3.064   2.883  -0.761  0.00  0.00    +0.000 HD
BRANCH  17  20
ATOM     20  C   UNL     1       0.851   3.931  -1.379  0.00  0.00    +0.000 A 
ATOM     21  C   UNL     1      -0.479   4.327  -1.333  0.00  0.00    +0.000 A 
ATOM     22  S   UNL     1      -0.685   6.015  -1.170  0.00  0.00    +0.000 S 
ATOM     23  C   UNL     1       0.995   6.282  -1.204  0.00  0.00    +0.000 A 
ATOM     24  N   UNL     1       1.508   7.543  -1.153  0.00  0.00    +0.000 NA
ATOM     25  C   UNL     1       2.796   7.599  -1.231  0.00  0.00    +0.000 A 
ATOM     26  N   UNL     1       3.620   6.510  -1.333  0.00  0.00    +0.000 N 
ATOM     27  C   UNL     1       3.151   5.222  -1.284  0.00  0.00    +0.000 A 
ATOM     28  O   UNL     1       3.924   4.276  -1.188  0.00  0.00    +0.000 OA
ATOM     29  C   UNL     1       1.705   5.098  -1.284  0.00  0.00    +0.000 A 
ATOM     30  H   UNL     1       4.625   6.613  -1.334  0.00  0.00    +0.000 HD
ENDBRANCH  17  20
ENDBRANCH   1  16
BRANCH   1  32
ATOM     31  C   UNL     1       3.043  -1.428   0.136  0.00  0.00    +0.000 C 
ATOM     32  C   UNL     1       2.490  -0.009   0.096  0.00  0.00    +0.000 C 
ENDBRANCH   1  32
TORSDOF 7
