REMARK  Name = 
REMARK  5 active torsions:
REMARK  status: ('A' for Active; 'I' for Inactive)
REMARK    1  A    between atoms: C_2  and  C_18
REMARK    2  A    between atoms: N_3  and  C_4
REMARK    3  A    between atoms: C_4  and  C_5
REMARK    4  A    between atoms: C_8  and  C_9
REMARK    5  A    between atoms: C_9  and  N_10
REMARK                            x       y       z     vdW  Elec       q    Type
REMARK                         _______ _______ _______ _____ _____    ______ ____
ROOT
ATOM      1  O   UNL     1       0.550   0.474  -0.847  0.00  0.00    +0.000 OA
ATOM      2  C   UNL     1       1.412   0.987  -1.544  0.00  0.00    +0.000 C 
ATOM      3  N   UNL     1       2.281   1.937  -1.077  0.00  0.00    +0.000 N 
ATOM      4  H   UNL     1       3.114   2.169  -1.596  0.00  0.00    +0.000 HD
ENDROOT
BRANCH   2   5
ATOM      5  C   UNL     1       1.532   0.676  -2.963  0.00  0.00    +0.000 A 
ATOM      6  C   UNL     1       1.790   1.605  -3.957  0.00  0.00    +0.000 A 
ATOM      7  S   UNL     1       1.499   0.978  -5.527  0.00  0.00    +0.000 S 
ATOM      8  C   UNL     1       1.082  -0.553  -4.902  0.00  0.00    +0.000 A 
ATOM      9  N   UNL     1       0.628  -1.561  -5.695  0.00  0.00    +0.000 NA
ATOM     10  C   UNL     1       0.386  -2.662  -5.060  0.00  0.00    +0.000 A 
ATOM     11  N   UNL     1       0.598  -2.861  -3.717  0.00  0.00    +0.000 N 
ATOM     12  C   UNL     1       1.130  -1.893  -2.894  0.00  0.00    +0.000 A 
ATOM     13  O   UNL     1       1.524  -2.159  -1.764  0.00  0.00    +0.000 OA
ATOM     14  C   UNL     1       1.275  -0.609  -3.539  0.00  0.00    +0.000 A 
ATOM     15  H   UNL     1       0.495  -3.777  -3.306  0.00  0.00    +0.000 HD
ENDBRANCH   2   5
BRANCH   3  16
ATOM     16  C   UNL     1       2.182   2.358   0.309  0.00  0.00    +0.000 C 
BRANCH  16  17
ATOM     17  C   UNL     1       3.092   3.519   0.618  0.00  0.00    +0.000 A 
ATOM     18  N   UNL     1       2.583   4.763   0.527  0.00  0.00    +0.000 NA
ATOM     19  C   UNL     1       3.437   5.779   0.761  0.00  0.00    +0.000 A 
ATOM     20  C   UNL     1       4.771   5.604   1.062  0.00  0.00    +0.000 A 
ATOM     21  C   UNL     1       5.192   4.291   1.101  0.00  0.00    +0.000 A 
ATOM     22  N   UNL     1       4.386   3.237   0.874  0.00  0.00    +0.000 NA
BRANCH  20  23
ATOM     23  C   UNL     1       5.704   6.749   1.295  0.00  0.00    +0.000 C 
BRANCH  23  24
ATOM     24  N   UNL     1       5.298   7.648   2.397  0.00  0.00    +0.000 NA
ATOM     25  C   UNL     1       5.364   6.952   3.696  0.00  0.00    +0.000 C 
ATOM     26  C   UNL     1       5.125   7.879   4.891  0.00  0.00    +0.000 C 
ATOM     27  C   UNL     1       6.077   9.065   4.860  0.00  0.00    +0.000 C 
ATOM     28  C   UNL     1       5.922   9.797   3.536  0.00  0.00    +0.000 C 
ATOM     29  C   UNL     1       6.153   8.849   2.361  0.00  0.00    +0.000 C 
ENDBRANCH  23  24
ENDBRANCH  20  23
ENDBRANCH  16  17
ENDBRANCH   3  16
TORSDOF 5
