REMARK  Name = 
REMARK  9 active torsions:
REMARK  status: ('A' for Active; 'I' for Inactive)
REMARK    1  A    between atoms: C_1  and  C_2
REMARK    2  A    between atoms: C_2  and  O_3
REMARK    3  A    between atoms: C_2  and  C_26
REMARK    4  A    between atoms: O_3  and  C_4
REMARK    5  A    between atoms: C_4  and  C_5
REMARK    6  A    between atoms: C_8  and  C_9
REMARK    7  A    between atoms: C_9  and  N_10
REMARK    8  A    between atoms: C_11  and  C_13
REMARK    9  A    between atoms: N_19  and  C_20
REMARK                            x       y       z     vdW  Elec       q    Type
REMARK                         _______ _______ _______ _____ _____    ______ ____
ROOT
ATOM      1  C   UNL     1      -0.959   0.746   1.195  0.00  0.00    +0.000 A 
ATOM      2  C   UNL     1      -1.634  -0.464   1.010  0.00  0.00    +0.000 A 
ATOM      3  C   UNL     1      -3.023  -0.488   1.019  0.00  0.00    +0.000 A 
ATOM      4  C   UNL     1      -3.709   0.707   1.205  0.00  0.00    +0.000 A 
ATOM      5  N   UNL     1      -3.078   1.895   1.402  0.00  0.00    +0.000 NA
ATOM      6  C   UNL     1      -1.727   1.886   1.387  0.00  0.00    +0.000 A 
ENDROOT
BRANCH   1   7
ATOM      7  C   UNL     1       0.537   0.795   1.251  0.00  0.00    +0.000 C 
BRANCH   7   8
ATOM      8  O   UNL     1       1.049   0.208   0.062  0.00  0.00    +0.000 OA
BRANCH   8  10
ATOM      9  C   UNL     1       3.107  -0.651   1.073  0.00  0.00    +0.000 C 
ATOM     10  C   UNL     1       2.480   0.204  -0.029  0.00  0.00    +0.000 C 
BRANCH  10  11
ATOM     11  C   UNL     1       2.898  -0.350  -1.387  0.00  0.00    +0.000 A 
ATOM     12  C   UNL     1       2.095  -1.275  -2.059  0.00  0.00    +0.000 A 
ATOM     13  C   UNL     1       2.527  -1.798  -3.274  0.00  0.00    +0.000 A 
ATOM     14  C   UNL     1       3.749  -1.390  -3.791  0.00  0.00    +0.000 A 
ATOM     15  C   UNL     1       4.490  -0.471  -3.067  0.00  0.00    +0.000 A 
ATOM     16  N   UNL     1       4.099   0.052  -1.881  0.00  0.00    +0.000 NA
ENDBRANCH  10  11
ENDBRANCH   8  10
ENDBRANCH   7   8
ENDBRANCH   1   7
BRANCH   4  17
ATOM     17  C   UNL     1      -5.214   0.706   1.251  0.00  0.00    +0.000 C 
BRANCH  17  18
ATOM     18  N   UNL     1      -5.699   0.527   2.596  0.00  0.00    +0.000 N 
ATOM     19  C   UNL     1      -6.145  -0.668   3.086  0.00  0.00    +0.000 C 
ATOM     20  O   UNL     1      -6.010  -1.731   2.486  0.00  0.00    +0.000 OA
ATOM     21  H   UNL     1      -5.806   1.372   3.138  0.00  0.00    +0.000 HD
BRANCH  19  22
ATOM     22  C   UNL     1      -6.753  -0.594   4.415  0.00  0.00    +0.000 A 
ATOM     23  C   UNL     1      -6.645  -1.646   5.310  0.00  0.00    +0.000 A 
ATOM     24  S   UNL     1      -7.370  -1.317   6.821  0.00  0.00    +0.000 S 
ATOM     25  C   UNL     1      -7.894   0.218   6.302  0.00  0.00    +0.000 A 
ATOM     26  N   UNL     1      -8.586   1.044   7.132  0.00  0.00    +0.000 NA
ATOM     27  C   UNL     1      -8.939   2.165   6.596  0.00  0.00    +0.000 A 
ATOM     28  N   UNL     1      -8.680   2.554   5.296  0.00  0.00    +0.000 N 
ATOM     29  C   UNL     1      -9.125   3.839   4.801  0.00  0.00    +0.000 C 
ATOM     30  C   UNL     1      -7.979   1.729   4.418  0.00  0.00    +0.000 A 
ATOM     31  O   UNL     1      -7.743   2.056   3.258  0.00  0.00    +0.000 OA
ATOM     32  C   UNL     1      -7.534   0.473   4.995  0.00  0.00    +0.000 A 
ENDBRANCH  19  22
ENDBRANCH  17  18
ENDBRANCH   4  17
TORSDOF 7
