REMARK  Name = 
REMARK  4 active torsions:
REMARK  status: ('A' for Active; 'I' for Inactive)
REMARK    1  A    between atoms: C_2  and  C_4
REMARK    2  A    between atoms: N_8  and  C_9
REMARK    3  A    between atoms: C_9  and  C_10
REMARK    4  A    between atoms: C_10  and  C_11
REMARK                            x       y       z     vdW  Elec       q    Type
REMARK                         _______ _______ _______ _____ _____    ______ ____
ROOT
ATOM      1  C   UNL     1       3.054  -0.970   1.012  0.00  0.00    +0.000 A 
ATOM      2  C   UNL     1       4.341  -0.466   1.174  0.00  0.00    +0.000 A 
ATOM      3  C   UNL     1       5.177  -1.043   2.133  0.00  0.00    +0.000 A 
ATOM      4  C   UNL     1       4.739  -2.140   2.877  0.00  0.00    +0.000 A 
ATOM      5  N   UNL     1       5.584  -2.655   3.876  0.00  0.00    +0.000 N 
ATOM      6  N   UNL     1       3.494  -2.633   2.722  0.00  0.00    +0.000 NA
ATOM      7  C   UNL     1       2.674  -2.032   1.819  0.00  0.00    +0.000 A 
ATOM      8  H   UNL     1       6.555  -2.474   3.648  0.00  0.00    +0.000 HD
ENDROOT
BRANCH   1  10
ATOM      9  N   UNL     1       2.567   0.198  -1.065  0.00  0.00    +0.000 N 
ATOM     10  C   UNL     1       2.077  -0.405   0.060  0.00  0.00    +0.000 C 
ATOM     11  O   UNL     1       0.870  -0.499   0.248  0.00  0.00    +0.000 OA
ATOM     12  H   UNL     1       1.885   0.487  -1.752  0.00  0.00    +0.000 HD
ATOM     13  H   UNL     1       3.522   0.075  -1.379  0.00  0.00    +0.000 HD
ENDBRANCH   1  10
BRANCH   5  14
ATOM     14  C   UNL     1       5.349  -4.074   4.170  0.00  0.00    +0.000 C 
BRANCH  14  15
ATOM     15  C   UNL     1       6.386  -4.559   5.194  0.00  0.00    +0.000 C 
BRANCH  15  16
ATOM     16  C   UNL     1       6.227  -6.014   5.552  0.00  0.00    +0.000 A 
ATOM     17  C   UNL     1       6.889  -7.014   4.831  0.00  0.00    +0.000 A 
ATOM     18  C   UNL     1       6.707  -8.337   5.206  0.00  0.00    +0.000 A 
ATOM     19  N   UNL     1       5.918  -8.726   6.231  0.00  0.00    +0.000 NA
ATOM     20  C   UNL     1       5.282  -7.748   6.908  0.00  0.00    +0.000 A 
ATOM     21  C   UNL     1       5.400  -6.399   6.611  0.00  0.00    +0.000 A 
ENDBRANCH  15  16
ENDBRANCH  14  15
ENDBRANCH   5  14
TORSDOF 4
