REMARK  Name = 
REMARK  9 active torsions:
REMARK  status: ('A' for Active; 'I' for Inactive)
REMARK    1  A    between atoms: C_1  and  C_2
REMARK    2  A    between atoms: C_2  and  O_3
REMARK    3  A    between atoms: C_5  and  O_6
REMARK    4  A    between atoms: O_6  and  C_7
REMARK    5  A    between atoms: C_9  and  C_10
REMARK    6  A    between atoms: C_10  and  C_13
REMARK    7  A    between atoms: C_13  and  N_14
REMARK    8  A    between atoms: N_14  and  C_15
REMARK    9  A    between atoms: C_18  and  C_19
REMARK                            x       y       z     vdW  Elec       q    Type
REMARK                         _______ _______ _______ _____ _____    ______ ____
ROOT
ATOM      1  C   UNL     1       6.964  -4.627   0.851  0.00  0.00    +0.000 C 
ATOM      2  F   UNL     1       5.989  -4.952   1.753  0.00  0.00    +0.000 F 
ATOM      3  F   UNL     1       6.460  -4.995  -0.367  0.00  0.00    +0.000 F 
ENDROOT
BRANCH   1   6
ATOM      4  C   UNL     1       6.487  -0.867   0.743  0.00  0.00    +0.000 A 
ATOM      5  C   UNL     1       6.228  -2.226   0.645  0.00  0.00    +0.000 A 
ATOM      6  C   UNL     1       7.266  -3.134   0.895  0.00  0.00    +0.000 A 
ATOM      7  C   UNL     1       8.527  -2.600   1.202  0.00  0.00    +0.000 A 
ATOM      8  C   UNL     1       8.687  -1.223   1.260  0.00  0.00    +0.000 A 
ATOM      9  N   UNL     1       7.692  -0.345   1.047  0.00  0.00    +0.000 NA
BRANCH   4  10
ATOM     10  O   UNL     1       5.430  -0.008   0.533  0.00  0.00    +0.000 OA
BRANCH  10  14
ATOM     11  C   UNL     1       3.316   2.469   3.616  0.00  0.00    +0.000 C 
ATOM     12  C   UNL     1       3.910   1.498   2.609  0.00  0.00    +0.000 C 
ATOM     13  C   UNL     1       5.439   1.272   2.747  0.00  0.00    +0.000 C 
ATOM     14  C   UNL     1       5.524   1.277   1.196  0.00  0.00    +0.000 C 
ATOM     15  C   UNL     1       4.208   2.095   1.207  0.00  0.00    +0.000 C 
BRANCH  12  16
ATOM     16  O   UNL     1       3.103   0.298   2.589  0.00  0.00    +0.000 OA
ATOM     17  H   UNL     1       3.181  -0.082   3.480  0.00  0.00    +0.000 HD
ENDBRANCH  12  16
ENDBRANCH  10  14
ENDBRANCH   4  10
ENDBRANCH   1   6
BRANCH   1  18
ATOM     18  C   UNL     1       8.204  -5.519   1.130  0.00  0.00    +0.000 C 
BRANCH  18  19
ATOM     19  N   UNL     1       7.956  -6.973   1.159  0.00  0.00    +0.000 N 
ATOM     20  H   UNL     1       7.246  -7.291   0.498  0.00  0.00    +0.000 HD
BRANCH  19  21
ATOM     21  C   UNL     1       9.052  -7.836   1.273  0.00  0.00    +0.000 A 
ATOM     22  C   UNL     1       8.847  -9.216   1.189  0.00  0.00    +0.000 A 
ATOM     23  C   UNL     1       9.906 -10.108   1.378  0.00  0.00    +0.000 A 
ATOM     24  C   UNL     1      11.161  -9.590   1.664  0.00  0.00    +0.000 A 
ATOM     25  N   UNL     1      11.414  -8.261   1.791  0.00  0.00    +0.000 NA
ATOM     26  C   UNL     1      10.352  -7.438   1.613  0.00  0.00    +0.000 A 
BRANCH  24  27
ATOM     27  C   UNL     1      12.328 -10.510   1.855  0.00  0.00    +0.000 C 
ATOM     28  N   UNL     1      13.523  -9.895   2.120  0.00  0.00    +0.000 N 
ATOM     29  O   UNL     1      12.231 -11.726   1.775  0.00  0.00    +0.000 OA
ATOM     30  H   UNL     1      13.564  -8.884   2.175  0.00  0.00    +0.000 HD
ATOM     31  H   UNL     1      14.353 -10.454   2.253  0.00  0.00    +0.000 HD
ENDBRANCH  24  27
ENDBRANCH  19  21
ENDBRANCH  18  19
ENDBRANCH   1  18
TORSDOF 8
