REMARK  Name = 
REMARK  12 active torsions:
REMARK  status: ('A' for Active; 'I' for Inactive)
REMARK    1  A    between atoms: C_1  and  O_2
REMARK    2  A    between atoms: O_2  and  C_3
REMARK    3  A    between atoms: C_3  and  C_4
REMARK    4  A    between atoms: C_3  and  C_21
REMARK    5  A    between atoms: C_4  and  N_5
REMARK    6  A    between atoms: N_5  and  C_6
REMARK    7  A    between atoms: C_6  and  C_7
REMARK    8  A    between atoms: C_10  and  C_11
REMARK    9  A    between atoms: C_11  and  O_12
REMARK   10  A    between atoms: C_11  and  C_13
REMARK   11  A    between atoms: C_13  and  C_14
REMARK   12  A    between atoms: C_21  and  C_23
REMARK                            x       y       z     vdW  Elec       q    Type
REMARK                         _______ _______ _______ _____ _____    ______ ____
ROOT
ATOM      1  N   UNL     1       3.423 -11.542  -3.423  0.00  0.00    +0.000 NA
ATOM      2  H   UNL     1       2.891 -10.723  -3.734  0.00  0.00    +0.000 HD
ENDROOT
BRANCH   1   3
ATOM      3  C   UNL     1       2.815 -12.748  -4.002  0.00  0.00    +0.000 C 
BRANCH   3   4
ATOM      4  C   UNL     1       2.927 -12.835  -5.545  0.00  0.00    +0.000 C 
BRANCH   4   6
ATOM      5  C   UNL     1       2.377 -14.372  -7.310  0.00  0.00    +0.000 C 
ATOM      6  O   UNL     1       2.298 -14.068  -5.925  0.00  0.00    +0.000 OA
ENDBRANCH   4   6
BRANCH   4   7
ATOM      7  C   UNL     1       2.248 -11.597  -6.173  0.00  0.00    +0.000 C 
ATOM      8  O   UNL     1       1.148 -11.235  -5.752  0.00  0.00    +0.000 OA
BRANCH   7   9
ATOM      9  C   UNL     1       2.854 -10.938  -7.349  0.00  0.00    +0.000 A 
ATOM     10  C   UNL     1       4.004 -11.374  -7.990  0.00  0.00    +0.000 A 
ATOM     11  S   UNL     1       4.321 -10.556  -9.457  0.00  0.00    +0.000 S 
ATOM     12  C   UNL     1       2.954  -9.562  -9.256  0.00  0.00    +0.000 A 
ATOM     13  N   UNL     1       2.595  -8.666 -10.219  0.00  0.00    +0.000 NA
ATOM     14  C   UNL     1       1.513  -8.011  -9.949  0.00  0.00    +0.000 A 
ATOM     15  N   UNL     1       0.788  -8.139  -8.795  0.00  0.00    +0.000 N 
ATOM     16  C   UNL     1       1.211  -8.904  -7.731  0.00  0.00    +0.000 A 
ATOM     17  O   UNL     1       0.732  -8.737  -6.616  0.00  0.00    +0.000 OA
ATOM     18  C   UNL     1       2.321  -9.791  -8.054  0.00  0.00    +0.000 A 
ATOM     19  H   UNL     1       0.020  -7.514  -8.598  0.00  0.00    +0.000 HD
ENDBRANCH   7   9
ENDBRANCH   4   7
ENDBRANCH   3   4
ENDBRANCH   1   3
BRANCH   1  20
ATOM     20  C   UNL     1       3.328 -11.562  -1.955  0.00  0.00    +0.000 C 
BRANCH  20  21
ATOM     21  C   UNL     1       3.955 -10.313  -1.378  0.00  0.00    +0.000 A 
ATOM     22  C   UNL     1       3.194  -9.365  -0.688  0.00  0.00    +0.000 A 
ATOM     23  C   UNL     1       3.775  -8.166  -0.257  0.00  0.00    +0.000 A 
ATOM     24  C   UNL     1       5.130  -7.889  -0.504  0.00  0.00    +0.000 A 
ATOM     25  C   UNL     1       5.897  -8.868  -1.149  0.00  0.00    +0.000 A 
ATOM     26  C   UNL     1       5.319 -10.065  -1.576  0.00  0.00    +0.000 A 
BRANCH  24  27
ATOM     27  C   UNL     1       5.678  -6.507  -0.184  0.00  0.00    +0.000 C 
BRANCH  27  28
ATOM     28  O   UNL     1       5.471  -5.670  -1.324  0.00  0.00    +0.000 OA
ATOM     29  H   UNL     1       5.439  -6.250  -2.106  0.00  0.00    +0.000 HD
ENDBRANCH  27  28
BRANCH  27  30
ATOM     30  C   UNL     1       7.172  -6.467   0.172  0.00  0.00    +0.000 C 
BRANCH  30  31
ATOM     31  C   UNL     1       7.724  -5.053   0.450  0.00  0.00    +0.000 C 
ATOM     32  C   UNL     1       9.222  -5.119   0.744  0.00  0.00    +0.000 C 
ATOM     33  C   UNL     1       9.266  -5.273   2.249  0.00  0.00    +0.000 C 
ATOM     34  N   UNL     1       8.219  -4.362   2.719  0.00  0.00    +0.000 NA
ATOM     35  C   UNL     1       7.145  -4.404   1.710  0.00  0.00    +0.000 C 
ATOM     36  H   UNL     1       8.603  -3.416   2.732  0.00  0.00    +0.000 HD
ENDBRANCH  30  31
ENDBRANCH  27  30
ENDBRANCH  24  27
ENDBRANCH  20  21
ENDBRANCH   1  20
TORSDOF 11
