REMARK  Name = 
REMARK  6 active torsions:
REMARK  status: ('A' for Active; 'I' for Inactive)
REMARK    1  A    between atoms: C_2  and  C_4
REMARK    2  A    between atoms: N_8  and  C_9
REMARK    3  A    between atoms: C_9  and  C_10
REMARK    4  A    between atoms: C_10  and  C_13
REMARK    5  A    between atoms: C_17  and  O_18
REMARK    6  A    between atoms: O_18  and  C_19
REMARK                            x       y       z     vdW  Elec       q    Type
REMARK                         _______ _______ _______ _____ _____    ______ ____
ROOT
ATOM      1  C   UNL     1       6.025  -4.460  -5.413  0.00  0.00    +0.000 C 
ATOM      2  F   UNL     1       7.297  -4.014  -5.167  0.00  0.00    +0.000 F 
ATOM      3  F   UNL     1       5.986  -5.725  -4.899  0.00  0.00    +0.000 F 
ENDROOT
BRANCH   1   4
ATOM      4  C   UNL     1       5.734  -4.469  -6.912  0.00  0.00    +0.000 A 
ATOM      5  C   UNL     1       4.685  -3.734  -7.485  0.00  0.00    +0.000 A 
ATOM      6  C   UNL     1       4.413  -3.754  -8.862  0.00  0.00    +0.000 A 
ATOM      7 CL   UNL     1       3.051  -2.797  -9.322  0.00  0.00    +0.000 Cl
ATOM      8  C   UNL     1       5.193  -4.532  -9.719  0.00  0.00    +0.000 A 
ATOM      9  C   UNL     1       6.255  -5.269  -9.150  0.00  0.00    +0.000 A 
ATOM     10 CL   UNL     1       7.285  -6.257 -10.134  0.00  0.00    +0.000 Cl
ATOM     11  C   UNL     1       6.526  -5.236  -7.772  0.00  0.00    +0.000 A 
BRANCH   8  12
ATOM     12  O   UNL     1       4.982  -4.749 -11.062  0.00  0.00    +0.000 OA
BRANCH  12  13
ATOM     13  C   UNL     1       4.409  -3.749 -11.924  0.00  0.00    +0.000 C 
ATOM     14  C   UNL     1       4.474  -4.112 -13.419  0.00  0.00    +0.000 C 
ATOM     15  C   UNL     1       4.894  -2.667 -13.725  0.00  0.00    +0.000 C 
ATOM     16  F   UNL     1       5.920  -2.534 -14.593  0.00  0.00    +0.000 F 
ATOM     17  F   UNL     1       3.902  -1.862 -14.170  0.00  0.00    +0.000 F 
ATOM     18  C   UNL     1       5.255  -2.499 -12.238  0.00  0.00    +0.000 C 
ENDBRANCH  12  13
ENDBRANCH   8  12
ENDBRANCH   1   4
BRANCH   1  19
ATOM     19  C   UNL     1       5.052  -3.562  -4.612  0.00  0.00    +0.000 C 
BRANCH  19  24
ATOM     20  C   UNL     1       2.806  -0.771  -1.226  0.00  0.00    +0.000 A 
ATOM     21  C   UNL     1       3.737  -1.501  -0.492  0.00  0.00    +0.000 A 
ATOM     22  C   UNL     1       4.552  -2.424  -1.149  0.00  0.00    +0.000 A 
ATOM     23  C   UNL     1       4.427  -2.597  -2.524  0.00  0.00    +0.000 A 
ATOM     24  N   UNL     1       5.262  -3.537  -3.158  0.00  0.00    +0.000 N 
ATOM     25  N   UNL     1       3.499  -1.919  -3.237  0.00  0.00    +0.000 NA
ATOM     26  C   UNL     1       2.707  -1.031  -2.583  0.00  0.00    +0.000 A 
ATOM     27  H   UNL     1       6.237  -3.361  -2.912  0.00  0.00    +0.000 HD
BRANCH  20  29
ATOM     28  N   UNL     1       2.384   0.882   0.495  0.00  0.00    +0.000 N 
ATOM     29  C   UNL     1       1.922   0.246  -0.623  0.00  0.00    +0.000 C 
ATOM     30  O   UNL     1       0.847   0.539  -1.124  0.00  0.00    +0.000 OA
ATOM     31  H   UNL     1       1.824   1.651   0.841  0.00  0.00    +0.000 HD
ATOM     32  H   UNL     1       3.353   0.847   0.778  0.00  0.00    +0.000 HD
ENDBRANCH  20  29
ENDBRANCH  19  24
ENDBRANCH   1  19
TORSDOF 6
