REMARK  Name = 
REMARK  7 active torsions:
REMARK  status: ('A' for Active; 'I' for Inactive)
REMARK    1  A    between atoms: C_1  and  C_2
REMARK    2  A    between atoms: C_2  and  C_3
REMARK    3  A    between atoms: C_2  and  C_4
REMARK    4  A    between atoms: C_2  and  C_5
REMARK    5  A    between atoms: C_9  and  C_10
REMARK    6  A    between atoms: N_16  and  C_17
REMARK    7  A    between atoms: C_17  and  C_18
REMARK                            x       y       z     vdW  Elec       q    Type
REMARK                         _______ _______ _______ _____ _____    ______ ____
ROOT
ATOM      1  C   UNL     1       2.925   1.360  -0.299  0.00  0.00    +0.000 A 
ATOM      2  N   UNL     1       2.314   2.449   0.144  0.00  0.00    +0.000 NA
ATOM      3  C   UNL     1       2.987   3.528  -0.356  0.00  0.00    +0.000 A 
ATOM      4  C   UNL     1       2.735   4.896  -0.161  0.00  0.00    +0.000 A 
ATOM      5  C   UNL     1       3.566   5.834  -0.794  0.00  0.00    +0.000 A 
ATOM      6  C   UNL     1       4.609   5.389  -1.620  0.00  0.00    +0.000 A 
ATOM      7  C   UNL     1       4.875   4.026  -1.815  0.00  0.00    +0.000 A 
ATOM      8  C   UNL     1       4.050   3.115  -1.143  0.00  0.00    +0.000 A 
ATOM      9  N   UNL     1       4.039   1.730  -1.039  0.00  0.00    +0.000 N 
ENDROOT
BRANCH   5  10
ATOM     10  C   UNL     1       3.401   7.312  -0.629  0.00  0.00    +0.000 C 
ATOM     11  N   UNL     1       2.383   7.779   0.156  0.00  0.00    +0.000 N 
ATOM     12  O   UNL     1       4.159   8.102  -1.176  0.00  0.00    +0.000 OA
ATOM     13  H   UNL     1       1.708   7.210   0.640  0.00  0.00    +0.000 HD
ATOM     14  H   UNL     1       2.304   8.785   0.245  0.00  0.00    +0.000 HD
ENDBRANCH   5  10
BRANCH   1  16
ATOM     15  C   UNL     1       0.908   0.006   0.278  0.00  0.00    +0.000 C 
ATOM     16  C   UNL     1       2.442  -0.048   0.061  0.00  0.00    +0.000 C 
ATOM     17  C   UNL     1       3.105  -0.492   1.375  0.00  0.00    +0.000 C 
ATOM     18  C   UNL     1       2.672  -1.123  -1.010  0.00  0.00    +0.000 C 
ENDBRANCH   1  16
BRANCH   9  19
ATOM     19  C   UNL     1       5.122   0.888  -1.535  0.00  0.00    +0.000 C 
BRANCH  19  20
ATOM     20  C   UNL     1       4.888   0.299  -2.901  0.00  0.00    +0.000 A 
ATOM     21  C   UNL     1       3.817   0.634  -3.736  0.00  0.00    +0.000 A 
ATOM     22  C   UNL     1       3.590  -0.095  -4.901  0.00  0.00    +0.000 A 
ATOM     23  C   UNL     1       4.472  -1.110  -5.223  0.00  0.00    +0.000 A 
ATOM     24  N   UNL     1       5.559  -1.416  -4.485  0.00  0.00    +0.000 NA
ATOM     25  C   UNL     1       5.744  -0.706  -3.350  0.00  0.00    +0.000 A 
ENDBRANCH  19  20
ENDBRANCH   9  19
TORSDOF 4
