REMARK  Name = 
REMARK  9 active torsions:
REMARK  status: ('A' for Active; 'I' for Inactive)
REMARK    1  A    between atoms: C_1  and  C_2
REMARK    2  A    between atoms: C_2  and  C_3
REMARK    3  A    between atoms: C_2  and  C_4
REMARK    4  A    between atoms: C_2  and  C_5
REMARK    5  A    between atoms: C_9  and  C_10
REMARK    6  A    between atoms: N_16  and  C_17
REMARK    7  A    between atoms: C_17  and  C_18
REMARK    8  A    between atoms: C_21  and  C_22
REMARK    9  A    between atoms: C_22  and  N_23
REMARK                            x       y       z     vdW  Elec       q    Type
REMARK                         _______ _______ _______ _____ _____    ______ ____
ROOT
ATOM      1  C   UNL     1       3.018   1.027  -0.948  0.00  0.00    +0.000 A 
ATOM      2  N   UNL     1       2.772   2.310  -0.719  0.00  0.00    +0.000 NA
ATOM      3  C   UNL     1       3.191   3.007  -1.811  0.00  0.00    +0.000 A 
ATOM      4  C   UNL     1       3.145   4.389  -2.046  0.00  0.00    +0.000 A 
ATOM      5  C   UNL     1       3.613   4.886  -3.270  0.00  0.00    +0.000 A 
ATOM      6  C   UNL     1       4.105   3.994  -4.238  0.00  0.00    +0.000 A 
ATOM      7  C   UNL     1       4.171   2.611  -4.008  0.00  0.00    +0.000 A 
ATOM      8  C   UNL     1       3.715   2.150  -2.767  0.00  0.00    +0.000 A 
ATOM      9  N   UNL     1       3.680   0.900  -2.164  0.00  0.00    +0.000 N 
ENDROOT
BRANCH   5  10
ATOM     10  C   UNL     1       3.623   6.338  -3.604  0.00  0.00    +0.000 C 
ATOM     11  N   UNL     1       3.145   7.230  -2.681  0.00  0.00    +0.000 N 
ATOM     12  O   UNL     1       4.049   6.750  -4.681  0.00  0.00    +0.000 OA
ATOM     13  H   UNL     1       2.777   6.993  -1.774  0.00  0.00    +0.000 HD
ATOM     14  H   UNL     1       3.174   8.209  -2.937  0.00  0.00    +0.000 HD
ENDBRANCH   5  10
BRANCH   1  16
ATOM     15  C   UNL     1       1.907   0.578   1.245  0.00  0.00    +0.000 C 
ATOM     16  C   UNL     1       2.623  -0.074   0.033  0.00  0.00    +0.000 C 
ATOM     17  C   UNL     1       3.853  -0.813   0.576  0.00  0.00    +0.000 C 
ATOM     18  C   UNL     1       1.618  -1.069  -0.574  0.00  0.00    +0.000 C 
ENDBRANCH   1  16
BRANCH   9  19
ATOM     19  C   UNL     1       4.219  -0.302  -2.784  0.00  0.00    +0.000 C 
BRANCH  19  20
ATOM     20  C   UNL     1       5.672  -0.583  -2.496  0.00  0.00    +0.000 A 
ATOM     21  C   UNL     1       6.638   0.398  -2.265  0.00  0.00    +0.000 A 
ATOM     22  C   UNL     1       7.986   0.046  -2.210  0.00  0.00    +0.000 A 
ATOM     23  C   UNL     1       8.346  -1.286  -2.395  0.00  0.00    +0.000 A 
ATOM     24  N   UNL     1       7.427  -2.268  -2.556  0.00  0.00    +0.000 NA
ATOM     25  C   UNL     1       6.128  -1.896  -2.597  0.00  0.00    +0.000 A 
BRANCH  23  26
ATOM     26  C   UNL     1       9.804  -1.664  -2.546  0.00  0.00    +0.000 C 
BRANCH  26  27
ATOM     27  N   UNL     1      10.391  -1.081  -3.760  0.00  0.00    +0.000 NA
ATOM     28  H   UNL     1       9.849  -1.413  -4.558  0.00  0.00    +0.000 HD
ATOM     29  H   UNL     1      11.328  -1.459  -3.880  0.00  0.00    +0.000 HD
ENDBRANCH  26  27
ENDBRANCH  23  26
ENDBRANCH  19  20
ENDBRANCH   9  19
TORSDOF 6
