REMARK  Name = 
REMARK  5 active torsions:
REMARK  status: ('A' for Active; 'I' for Inactive)
REMARK    1  A    between atoms: N_1  and  C_2
REMARK    2  A    between atoms: C_2  and  C_3
REMARK    3  A    between atoms: C_6  and  O_7
REMARK    4  A    between atoms: O_7  and  C_8
REMARK    5  A    between atoms: C_8  and  C_9
REMARK                            x       y       z     vdW  Elec       q    Type
REMARK                         _______ _______ _______ _____ _____    ______ ____
ROOT
ATOM      1  C   UNL     1       2.996  -0.772   1.138  0.00  0.00    +0.000 A 
ATOM      2  C   UNL     1       3.929  -0.691   2.157  0.00  0.00    +0.000 A 
ATOM      3  N   UNL     1       4.115  -1.651   3.080  0.00  0.00    +0.000 NA
ATOM      4  C   UNL     1       3.336  -2.734   2.963  0.00  0.00    +0.000 A 
ATOM      5  N   UNL     1       2.395  -2.923   2.029  0.00  0.00    +0.000 NA
ATOM      6  C   UNL     1       2.240  -1.922   1.139  0.00  0.00    +0.000 A 
ENDROOT
BRANCH   1   7
ATOM      7  C   UNL     1       2.857   0.306   0.117  0.00  0.00    +0.000 C 
BRANCH   7   8
ATOM      8  N   UNL     1       4.094   0.466  -0.638  0.00  0.00    +0.000 NA
ATOM      9  H   UNL     1       3.956   1.150  -1.381  0.00  0.00    +0.000 HD
ATOM     10  H   UNL     1       4.330  -0.412  -1.098  0.00  0.00    +0.000 HD
ENDBRANCH   7   8
ENDBRANCH   1   7
BRANCH   4  11
ATOM     11  O   UNL     1       3.542  -3.804   3.807  0.00  0.00    +0.000 OA
BRANCH  11  12
ATOM     12  C   UNL     1       4.147  -3.418   5.043  0.00  0.00    +0.000 C 
BRANCH  12  13
ATOM     13  C   UNL     1       4.397  -4.683   5.881  0.00  0.00    +0.000 C 
ATOM     14  C   UNL     1       4.953  -4.343   7.271  0.00  0.00    +0.000 C 
ATOM     15  C   UNL     1       6.423  -3.928   7.216  0.00  0.00    +0.000 C 
ATOM     16  N   UNL     1       7.248  -4.976   6.615  0.00  0.00    +0.000 NA
ATOM     17  C   UNL     1       6.810  -5.285   5.253  0.00  0.00    +0.000 C 
ATOM     18  C   UNL     1       5.334  -5.686   5.184  0.00  0.00    +0.000 C 
ATOM     19  H   UNL     1       7.178  -5.819   7.185  0.00  0.00    +0.000 HD
ENDBRANCH  12  13
ENDBRANCH  11  12
ENDBRANCH   4  11
TORSDOF 5
