REMARK  Name = 
REMARK  5 active torsions:
REMARK  status: ('A' for Active; 'I' for Inactive)
REMARK    1  A    between atoms: C_2  and  C_4
REMARK    2  A    between atoms: C_7  and  O_8
REMARK    3  A    between atoms: O_8  and  C_9
REMARK    4  A    between atoms: C_9  and  C_10
REMARK    5  A    between atoms: C_14  and  C_15
REMARK                            x       y       z     vdW  Elec       q    Type
REMARK                         _______ _______ _______ _____ _____    ______ ____
ROOT
ATOM      1  C   UNL     1       5.027  -3.162  -4.909  0.00  0.00    +0.000 C 
ENDROOT
BRANCH   1   2
ATOM      2  C   UNL     1       5.885  -4.164  -5.635  0.00  0.00    +0.000 A 
ATOM      3  C   UNL     1       5.588  -5.518  -5.557  0.00  0.00    +0.000 A 
ATOM      4  N   UNL     1       6.273  -6.479  -6.208  0.00  0.00    +0.000 NA
ATOM      5  C   UNL     1       7.306  -6.068  -6.984  0.00  0.00    +0.000 A 
ATOM      6  C   UNL     1       7.697  -4.740  -7.171  0.00  0.00    +0.000 A 
ATOM      7  C   UNL     1       6.940  -3.785  -6.474  0.00  0.00    +0.000 A 
BRANCH   6   8
ATOM      8  C   UNL     1       8.822  -4.361  -8.047  0.00  0.00    +0.000 A 
ATOM      9  C   UNL     1       9.152  -5.082  -9.204  0.00  0.00    +0.000 A 
ATOM     10  C   UNL     1      10.221  -4.689 -10.009  0.00  0.00    +0.000 A 
ATOM     11  C   UNL     1      10.942  -3.567  -9.643  0.00  0.00    +0.000 A 
ATOM     12  N   UNL     1      10.673  -2.837  -8.544  0.00  0.00    +0.000 NA
ATOM     13  C   UNL     1       9.634  -3.253  -7.779  0.00  0.00    +0.000 A 
ENDBRANCH   6   8
ENDBRANCH   1   2
BRANCH   1  14
ATOM     14  O   UNL     1       5.801  -2.021  -4.522  0.00  0.00    +0.000 OA
BRANCH  14  18
ATOM     15  C   UNL     1       3.557   0.850  -2.605  0.00  0.00    +0.000 A 
ATOM     16  C   UNL     1       4.916   1.075  -2.832  0.00  0.00    +0.000 A 
ATOM     17  C   UNL     1       5.669   0.093  -3.479  0.00  0.00    +0.000 A 
ATOM     18  C   UNL     1       5.032  -1.076  -3.873  0.00  0.00    +0.000 A 
ATOM     19  N   UNL     1       3.724  -1.321  -3.655  0.00  0.00    +0.000 NA
ATOM     20  C   UNL     1       3.017  -0.360  -3.017  0.00  0.00    +0.000 A 
BRANCH  15  22
ATOM     21  N   UNL     1       2.988   3.145  -2.049  0.00  0.00    +0.000 N 
ATOM     22  C   UNL     1       2.666   1.822  -1.940  0.00  0.00    +0.000 C 
ATOM     23  O   UNL     1       1.653   1.461  -1.356  0.00  0.00    +0.000 OA
ATOM     24  H   UNL     1       2.302   3.799  -1.694  0.00  0.00    +0.000 HD
ATOM     25  H   UNL     1       3.654   3.490  -2.725  0.00  0.00    +0.000 HD
ENDBRANCH  15  22
ENDBRANCH  14  18
ENDBRANCH   1  14
TORSDOF 5
