REMARK  Name = 
REMARK  7 active torsions:
REMARK  status: ('A' for Active; 'I' for Inactive)
REMARK    1  A    between atoms: C_1  and  C_2
REMARK    2  A    between atoms: C_2  and  C_3
REMARK    3  A    between atoms: C_2  and  C_4
REMARK    4  A    between atoms: C_2  and  C_5
REMARK    5  A    between atoms: N_7  and  C_8
REMARK    6  A    between atoms: C_8  and  C_9
REMARK    7  A    between atoms: C_18  and  C_19
REMARK                            x       y       z     vdW  Elec       q    Type
REMARK                         _______ _______ _______ _____ _____    ______ ____
ROOT
ATOM      1  C   UNL     1       2.842   1.205  -0.736  0.00  0.00    +0.000 A 
ATOM      2  C   UNL     1       3.610   1.344  -1.885  0.00  0.00    +0.000 A 
ATOM      3  N   UNL     1       3.672   2.674  -2.228  0.00  0.00    +0.000 N 
ATOM      4  C   UNL     1       2.966   3.418  -1.316  0.00  0.00    +0.000 A 
ATOM      5  N   UNL     1       2.796   4.756  -1.353  0.00  0.00    +0.000 NA
ATOM      6  C   UNL     1       2.049   5.228  -0.315  0.00  0.00    +0.000 A 
ATOM      7  C   UNL     1       1.507   4.467   0.719  0.00  0.00    +0.000 A 
ATOM      8  C   UNL     1       1.717   3.092   0.695  0.00  0.00    +0.000 A 
ATOM      9  C   UNL     1       2.461   2.538  -0.363  0.00  0.00    +0.000 A 
ENDROOT
BRANCH   7  10
ATOM     10  C   UNL     1       0.732   5.141   1.788  0.00  0.00    +0.000 C 
ATOM     11  N   UNL     1       0.228   4.387   2.816  0.00  0.00    +0.000 N 
ATOM     12  O   UNL     1       0.549   6.349   1.768  0.00  0.00    +0.000 OA
ATOM     13  H   UNL     1       0.330   3.389   2.924  0.00  0.00    +0.000 HD
ATOM     14  H   UNL     1      -0.293   4.877   3.530  0.00  0.00    +0.000 HD
ENDBRANCH   7  10
BRANCH   1  16
ATOM     15  C   UNL     1       3.007  -1.331  -0.750  0.00  0.00    +0.000 C 
ATOM     16  C   UNL     1       2.453  -0.089  -0.021  0.00  0.00    +0.000 C 
ATOM     17  C   UNL     1       0.915  -0.229   0.026  0.00  0.00    +0.000 C 
ATOM     18  C   UNL     1       3.009  -0.113   1.418  0.00  0.00    +0.000 C 
ENDBRANCH   1  16
BRANCH   3  19
ATOM     19  C   UNL     1       4.429   3.211  -3.353  0.00  0.00    +0.000 C 
BRANCH  19  20
ATOM     20  C   UNL     1       3.652   3.175  -4.629  0.00  0.00    +0.000 A 
ATOM     21  C   UNL     1       2.521   3.941  -4.836  0.00  0.00    +0.000 A 
ATOM     22  N   UNL     1       1.802   3.926  -5.978  0.00  0.00    +0.000 NA
ATOM     23  C   UNL     1       2.251   3.109  -6.940  0.00  0.00    +0.000 A 
ATOM     24  N   UNL     1       3.344   2.334  -6.867  0.00  0.00    +0.000 NA
ATOM     25  C   UNL     1       4.022   2.390  -5.704  0.00  0.00    +0.000 A 
ENDBRANCH  19  20
ENDBRANCH   3  19
TORSDOF 4
