REMARK  Name = 
REMARK  8 active torsions:
REMARK  status: ('A' for Active; 'I' for Inactive)
REMARK    1  A    between atoms: N_1  and  C_2
REMARK    2  A    between atoms: C_2  and  C_3
REMARK    3  A    between atoms: C_2  and  C_18
REMARK    4  A    between atoms: C_3  and  C_4
REMARK    5  A    between atoms: C_7  and  C_8
REMARK    6  A    between atoms: C_8  and  C_9
REMARK    7  A    between atoms: C_9  and  N_10
REMARK    8  A    between atoms: N_10  and  C_11
REMARK                            x       y       z     vdW  Elec       q    Type
REMARK                         _______ _______ _______ _____ _____    ______ ____
ROOT
ATOM      1  C   UNL     1       0.986   0.002   0.153  0.00  0.00    +0.000 C 
ENDROOT
BRANCH   1   2
ATOM      2  C   UNL     1       0.514  -1.420  -0.018  0.00  0.00    +0.000 A 
ATOM      3  C   UNL     1       1.445  -2.442  -0.191  0.00  0.00    +0.000 A 
ATOM      4  C   UNL     1       1.021  -3.749  -0.393  0.00  0.00    +0.000 A 
ATOM      5  C   UNL     1      -0.344  -4.093  -0.382  0.00  0.00    +0.000 A 
ATOM      6  C   UNL     1      -1.277  -3.062  -0.203  0.00  0.00    +0.000 A 
ATOM      7  C   UNL     1      -0.851  -1.743  -0.018  0.00  0.00    +0.000 A 
BRANCH   5   8
ATOM      8  C   UNL     1      -0.815  -5.523  -0.602  0.00  0.00    +0.000 C 
BRANCH   8   9
ATOM      9  C   UNL     1       0.202  -6.534  -0.052  0.00  0.00    +0.000 C 
BRANCH   9  10
ATOM     10  N   UNL     1      -0.103  -7.957  -0.220  0.00  0.00    +0.000 NA
ATOM     11  H   UNL     1      -0.213  -8.175  -1.209  0.00  0.00    +0.000 HD
BRANCH  10  12
ATOM     12  C   UNL     1       1.024  -8.731   0.265  0.00  0.00    +0.000 C 
ATOM     13  C   UNL     1       2.347  -8.465  -0.449  0.00  0.00    +0.000 C 
ATOM     14  C   UNL     1       3.142  -9.712  -0.149  0.00  0.00    +0.000 C 
ATOM     15  C   UNL     1       2.081 -10.798  -0.027  0.00  0.00    +0.000 C 
ATOM     16  N   UNL     1       0.779 -10.119  -0.063  0.00  0.00    +0.000 NA
ATOM     17  H   UNL     1       0.144 -10.516   0.627  0.00  0.00    +0.000 HD
ENDBRANCH  10  12
ENDBRANCH   9  10
ENDBRANCH   8   9
ENDBRANCH   5   8
ENDBRANCH   1   2
BRANCH   1  18
ATOM     18  C   UNL     1       1.813   0.553  -1.042  0.00  0.00    +0.000 C 
BRANCH  18  19
ATOM     19  C   UNL     1       2.265   1.976  -0.809  0.00  0.00    +0.000 A 
ATOM     20  C   UNL     1       3.596   2.362  -0.770  0.00  0.00    +0.000 A 
ATOM     21  S   UNL     1       3.804   4.009  -0.364  0.00  0.00    +0.000 S 
ATOM     22  C   UNL     1       2.123   4.253  -0.239  0.00  0.00    +0.000 A 
ATOM     23  N   UNL     1       1.601   5.445   0.155  0.00  0.00    +0.000 NA
ATOM     24  C   UNL     1       0.312   5.455   0.243  0.00  0.00    +0.000 A 
ATOM     25  N   UNL     1      -0.509   4.403  -0.070  0.00  0.00    +0.000 N 
ATOM     26  C   UNL     1      -0.033   3.225  -0.598  0.00  0.00    +0.000 A 
ATOM     27  O   UNL     1      -0.786   2.384  -1.073  0.00  0.00    +0.000 OA
ATOM     28  C   UNL     1       1.415   3.117  -0.577  0.00  0.00    +0.000 A 
ATOM     29  H   UNL     1      -1.511   4.499  -0.044  0.00  0.00    +0.000 HD
ENDBRANCH  18  19
BRANCH  18  30
ATOM     30  N   UNL     1       1.115   0.508  -2.324  0.00  0.00    +0.000 NA
ATOM     31  H   UNL     1       1.670   0.973  -3.038  0.00  0.00    +0.000 HD
ATOM     32  H   UNL     1       0.236   1.025  -2.239  0.00  0.00    +0.000 HD
ENDBRANCH  18  30
ENDBRANCH   1  18
TORSDOF 8
