REMARK  Name = 
REMARK  10 active torsions:
REMARK  status: ('A' for Active; 'I' for Inactive)
REMARK    1  A    between atoms: C_1  and  C_2
REMARK    2  A    between atoms: C_2  and  C_3
REMARK    3  A    between atoms: C_2  and  N_4
REMARK    4  A    between atoms: N_4  and  C_5
REMARK    5  A    between atoms: C_5  and  C_6
REMARK    6  A    between atoms: C_6  and  C_7
REMARK    7  A    between atoms: C_10  and  C_11
REMARK    8  A    between atoms: C_11  and  O_12
REMARK    9  A    between atoms: O_12  and  C_13
REMARK   10  A    between atoms: C_16  and  C_17
REMARK                            x       y       z     vdW  Elec       q    Type
REMARK                         _______ _______ _______ _____ _____    ______ ____
ROOT
ATOM      1  C   UNL     1       6.571  -1.434  -2.333  0.00  0.00    +0.000 A 
ATOM      2  C   UNL     1       7.278  -0.963  -1.217  0.00  0.00    +0.000 A 
ATOM      3  C   UNL     1       8.674  -1.025  -1.173  0.00  0.00    +0.000 A 
ATOM      4  C   UNL     1       9.395  -1.562  -2.246  0.00  0.00    +0.000 A 
ATOM      5  C   UNL     1       8.691  -2.054  -3.352  0.00  0.00    +0.000 A 
ATOM      6  C   UNL     1       7.294  -1.986  -3.398  0.00  0.00    +0.000 A 
ENDROOT
BRANCH   1   7
ATOM      7  C   UNL     1       5.055  -1.367  -2.388  0.00  0.00    +0.000 C 
BRANCH   7   8
ATOM      8  C   UNL     1       4.550   0.079  -2.279  0.00  0.00    +0.000 C 
BRANCH   8   9
ATOM      9  N   UNL     1       3.087   0.194  -2.311  0.00  0.00    +0.000 NA
ATOM     10  H   UNL     1       2.734  -0.207  -3.183  0.00  0.00    +0.000 HD
BRANCH   9  12
ATOM     11  C   UNL     1       1.115   1.652  -2.288  0.00  0.00    +0.000 C 
ATOM     12  C   UNL     1       2.643   1.600  -2.218  0.00  0.00    +0.000 C 
ATOM     13  C   UNL     1       3.111   2.287  -0.930  0.00  0.00    +0.000 C 
ENDBRANCH   9  12
ENDBRANCH   8   9
ENDBRANCH   7   8
ENDBRANCH   1   7
BRANCH   4  14
ATOM     14  C   UNL     1      10.902  -1.612  -2.208  0.00  0.00    +0.000 C 
BRANCH  14  15
ATOM     15  O   UNL     1      11.328  -2.825  -1.590  0.00  0.00    +0.000 OA
BRANCH  15  16
ATOM     16  C   UNL     1      12.678  -3.000  -1.463  0.00  0.00    +0.000 A 
ATOM     17  C   UNL     1      13.668  -2.123  -1.911  0.00  0.00    +0.000 A 
ATOM     18  C   UNL     1      15.010  -2.434  -1.705  0.00  0.00    +0.000 A 
ATOM     19  C   UNL     1      15.326  -3.621  -1.055  0.00  0.00    +0.000 A 
ATOM     20  N   UNL     1      14.395  -4.505  -0.604  0.00  0.00    +0.000 NA
ATOM     21  C   UNL     1      13.098  -4.165  -0.824  0.00  0.00    +0.000 A 
BRANCH  19  22
ATOM     22  C   UNL     1      16.762  -3.965  -0.821  0.00  0.00    +0.000 C 
ATOM     23  N   UNL     1      16.984  -5.150  -0.169  0.00  0.00    +0.000 N 
ATOM     24  O   UNL     1      17.686  -3.245  -1.180  0.00  0.00    +0.000 OA
ATOM     25  H   UNL     1      16.196  -5.717   0.118  0.00  0.00    +0.000 HD
ATOM     26  H   UNL     1      17.932  -5.444   0.029  0.00  0.00    +0.000 HD
ENDBRANCH  19  22
ENDBRANCH  15  16
ENDBRANCH  14  15
ENDBRANCH   4  14
TORSDOF 8
