REMARK  Name = 
REMARK  10 active torsions:
REMARK  status: ('A' for Active; 'I' for Inactive)
REMARK    1  A    between atoms: C_1  and  C_2
REMARK    2  A    between atoms: C_2  and  O_3
REMARK    3  A    between atoms: O_3  and  C_4
REMARK    4  A    between atoms: N_7  and  C_8
REMARK    5  A    between atoms: C_8  and  C_9
REMARK    6  A    between atoms: C_9  and  C_10
REMARK    7  A    between atoms: C_9  and  C_11
REMARK    8  A    between atoms: C_9  and  C_12
REMARK    9  A    between atoms: C_16  and  C_17
REMARK   10  A    between atoms: C_22  and  C_23
REMARK                            x       y       z     vdW  Elec       q    Type
REMARK                         _______ _______ _______ _____ _____    ______ ____
ROOT
ATOM      1  C   UNL     1       4.334   0.700  -1.227  0.00  0.00    +0.000 A 
ATOM      2  N   UNL     1       4.853   1.897  -1.629  0.00  0.00    +0.000 NA
ATOM      3  C   UNL     1       6.173   1.980  -1.881  0.00  0.00    +0.000 A 
ATOM      4  N   UNL     1       6.648   3.211  -2.278  0.00  0.00    +0.000 N 
ATOM      5  C   UNL     1       6.994   0.872  -1.732  0.00  0.00    +0.000 A 
ATOM      6  C   UNL     1       6.457  -0.347  -1.329  0.00  0.00    +0.000 A 
ATOM      7  C   UNL     1       5.094  -0.451  -1.055  0.00  0.00    +0.000 A 
ATOM      8  H   UNL     1       5.916   3.883  -2.471  0.00  0.00    +0.000 HD
ENDROOT
BRANCH   7   9
ATOM      9  C   UNL     1       4.594  -1.793  -0.643  0.00  0.00    +0.000 C 
ATOM     10  N   UNL     1       3.274  -1.942  -0.339  0.00  0.00    +0.000 N 
ATOM     11  O   UNL     1       5.348  -2.755  -0.573  0.00  0.00    +0.000 OA
ATOM     12  H   UNL     1       2.626  -1.161  -0.334  0.00  0.00    +0.000 HD
ATOM     13  H   UNL     1       2.967  -2.843  -0.003  0.00  0.00    +0.000 HD
ENDBRANCH   7   9
BRANCH   1  14
ATOM     14  O   UNL     1       2.979   0.660  -0.949  0.00  0.00    +0.000 OA
BRANCH  14  16
ATOM     15  C   UNL     1       0.771   1.493  -1.342  0.00  0.00    +0.000 C 
ATOM     16  C   UNL     1       2.239   1.620  -1.710  0.00  0.00    +0.000 C 
ENDBRANCH  14  16
ENDBRANCH   1  14
BRANCH   4  17
ATOM     17  C   UNL     1       8.034   3.443  -2.657  0.00  0.00    +0.000 C 
BRANCH  17  18
ATOM     18  C   UNL     1       8.365   4.901  -3.103  0.00  0.00    +0.000 C 
ATOM     19  C   UNL     1       7.531   5.279  -4.348  0.00  0.00    +0.000 C 
ATOM     20  C   UNL     1       7.991   5.873  -1.959  0.00  0.00    +0.000 C 
BRANCH  18  21
ATOM     21  C   UNL     1       9.873   4.994  -3.473  0.00  0.00    +0.000 A 
ATOM     22  C   UNL     1      10.404   4.215  -4.521  0.00  0.00    +0.000 A 
ATOM     23  C   UNL     1      11.752   4.296  -4.889  0.00  0.00    +0.000 A 
ATOM     24  C   UNL     1      12.612   5.158  -4.215  0.00  0.00    +0.000 A 
ATOM     25  C   UNL     1      12.123   5.937  -3.168  0.00  0.00    +0.000 A 
ATOM     26  C   UNL     1      10.769   5.854  -2.805  0.00  0.00    +0.000 A 
BRANCH  25  27
ATOM     27  C   UNL     1      13.001   6.829  -2.466  0.00  0.00    +0.000 C 
ATOM     28  N   UNL     1      13.708   7.550  -1.895  0.00  0.00    +0.000 NA
ENDBRANCH  25  27
ENDBRANCH  18  21
ENDBRANCH  17  18
ENDBRANCH   4  17
TORSDOF 7
