REMARK  Name = 
REMARK  7 active torsions:
REMARK  status: ('A' for Active; 'I' for Inactive)
REMARK    1  A    between atoms: N_1  and  C_2
REMARK    2  A    between atoms: C_5  and  C_6
REMARK    3  A    between atoms: N_8  and  C_9
REMARK    4  A    between atoms: C_9  and  C_10
REMARK    5  A    between atoms: C_13  and  C_14
REMARK    6  A    between atoms: C_14  and  N_15
REMARK    7  A    between atoms: C_16  and  C_18
REMARK                            x       y       z     vdW  Elec       q    Type
REMARK                         _______ _______ _______ _____ _____    ______ ____
ROOT
ATOM      1  C   UNL     1       3.028   2.426   4.518  0.00  0.00    +0.000 A 
ATOM      2  C   UNL     1       2.393   3.616   4.171  0.00  0.00    +0.000 A 
ATOM      3  C   UNL     1       2.891   4.819   4.667  0.00  0.00    +0.000 A 
ATOM      4  C   UNL     1       4.000   4.814   5.514  0.00  0.00    +0.000 A 
ATOM      5  C   UNL     1       4.570   3.581   5.807  0.00  0.00    +0.000 A 
ATOM      6  N   UNL     1       4.108   2.395   5.341  0.00  0.00    +0.000 NA
ENDROOT
BRANCH   1   7
ATOM      7  C   UNL     1       2.510   1.104   3.998  0.00  0.00    +0.000 C 
BRANCH   7  10
ATOM      8  C   UNL     1       0.166   0.820   4.703  0.00  0.00    +0.000 C 
ATOM      9  O   UNL     1      -0.241   1.489   3.756  0.00  0.00    +0.000 OA
ATOM     10  N   UNL     1       1.499   0.529   4.866  0.00  0.00    +0.000 N 
ATOM     11  H   UNL     1       1.831   0.112   5.724  0.00  0.00    +0.000 HD
BRANCH   8  15
ATOM     12  C   UNL     1      -2.092   2.400   7.256  0.00  0.00    +0.000 C 
ATOM     13  C   UNL     1      -2.529   2.044   5.830  0.00  0.00    +0.000 C 
ATOM     14  C   UNL     1      -2.238   0.579   5.490  0.00  0.00    +0.000 C 
ATOM     15  C   UNL     1      -0.772   0.189   5.744  0.00  0.00    +0.000 C 
ATOM     16  C   UNL     1      -0.395   0.523   7.193  0.00  0.00    +0.000 C 
ATOM     17  C   UNL     1      -0.641   1.994   7.528  0.00  0.00    +0.000 C 
BRANCH  12  18
ATOM     18  N   UNL     1      -2.247   3.835   7.493  0.00  0.00    +0.000 NA
ATOM     19  H   UNL     1      -3.195   4.120   7.253  0.00  0.00    +0.000 HD
ATOM     20  H   UNL     1      -1.636   4.353   6.859  0.00  0.00    +0.000 HD
ENDBRANCH  12  18
ENDBRANCH   8  15
ENDBRANCH   7  10
ENDBRANCH   1   7
BRANCH   4  21
ATOM     21  C   UNL     1       4.574   6.087   6.061  0.00  0.00    +0.000 C 
BRANCH  21  22
ATOM     22  N   UNL     1       5.586   6.629   5.189  0.00  0.00    +0.000 N 
ATOM     23  C   UNL     1       6.340   7.710   5.572  0.00  0.00    +0.000 C 
ATOM     24  O   UNL     1       6.217   8.222   6.681  0.00  0.00    +0.000 OA
ATOM     25  H   UNL     1       5.537   6.382   4.204  0.00  0.00    +0.000 HD
BRANCH  23  26
ATOM     26  C   UNL     1       7.349   8.186   4.618  0.00  0.00    +0.000 A 
ATOM     27  C   UNL     1       8.427   8.933   5.077  0.00  0.00    +0.000 A 
ATOM     28  S   UNL     1       9.537   9.357   3.854  0.00  0.00    +0.000 S 
ATOM     29  C   UNL     1       8.590   8.605   2.658  0.00  0.00    +0.000 A 
ATOM     30  N   UNL     1       8.971   8.623   1.353  0.00  0.00    +0.000 NA
ATOM     31  C   UNL     1       8.141   8.049   0.547  0.00  0.00    +0.000 A 
ATOM     32  N   UNL     1       6.968   7.452   0.929  0.00  0.00    +0.000 N 
ATOM     33  C   UNL     1       6.559   7.380   2.241  0.00  0.00    +0.000 A 
ATOM     34  O   UNL     1       5.525   6.801   2.554  0.00  0.00    +0.000 OA
ATOM     35  C   UNL     1       7.450   8.023   3.185  0.00  0.00    +0.000 A 
ATOM     36  H   UNL     1       6.365   7.015   0.248  0.00  0.00    +0.000 HD
ENDBRANCH  23  26
ENDBRANCH  21  22
ENDBRANCH   4  21
TORSDOF 7
