REMARK  Name = 
REMARK  6 active torsions:
REMARK  status: ('A' for Active; 'I' for Inactive)
REMARK    1  A    between atoms: C_2  and  C_25
REMARK    2  A    between atoms: N_3  and  C_4
REMARK    3  A    between atoms: C_4  and  C_5
REMARK    4  A    between atoms: C_8  and  C_9
REMARK    5  A    between atoms: C_9  and  N_10
REMARK    6  A    between atoms: C_11  and  C_13
REMARK                            x       y       z     vdW  Elec       q    Type
REMARK                         _______ _______ _______ _____ _____    ______ ____
ROOT
ATOM      1  C   UNL     1       3.311  -2.514  -2.639  0.00  0.00    +0.000 A 
ATOM      2  C   UNL     1       4.360  -1.885  -3.323  0.00  0.00    +0.000 A 
ATOM      3  C   UNL     1       5.237  -2.627  -4.121  0.00  0.00    +0.000 A 
ATOM      4  C   UNL     1       5.071  -4.010  -4.267  0.00  0.00    +0.000 A 
ATOM      5  C   UNL     1       4.035  -4.642  -3.566  0.00  0.00    +0.000 A 
ATOM      6  C   UNL     1       3.157  -3.900  -2.769  0.00  0.00    +0.000 A 
ENDROOT
BRANCH   1   7
ATOM      7  C   UNL     1       2.366  -1.717  -1.781  0.00  0.00    +0.000 C 
BRANCH   7  10
ATOM      8  O   UNL     1       0.302  -0.262  -0.673  0.00  0.00    +0.000 OA
ATOM      9  C   UNL     1       0.238  -0.516  -1.874  0.00  0.00    +0.000 C 
ATOM     10  N   UNL     1       1.216  -1.249  -2.513  0.00  0.00    +0.000 N 
ATOM     11  H   UNL     1       1.150  -1.381  -3.515  0.00  0.00    +0.000 HD
BRANCH   9  12
ATOM     12  C   UNL     1      -0.850  -0.064  -2.717  0.00  0.00    +0.000 A 
ATOM     13  C   UNL     1      -1.930   0.751  -2.424  0.00  0.00    +0.000 A 
ATOM     14  C   UNL     1      -2.698   0.856  -3.607  0.00  0.00    +0.000 A 
ATOM     15  C   UNL     1      -2.045   0.099  -4.552  0.00  0.00    +0.000 A 
ATOM     16  O   UNL     1      -0.920  -0.457  -4.029  0.00  0.00    +0.000 OA
ENDBRANCH   9  12
ENDBRANCH   7  10
ENDBRANCH   1   7
BRANCH   4  17
ATOM     17  C   UNL     1       6.012  -4.818  -5.124  0.00  0.00    +0.000 C 
BRANCH  17  18
ATOM     18  N   UNL     1       7.131  -5.295  -4.353  0.00  0.00    +0.000 N 
ATOM     19  C   UNL     1       8.158  -5.993  -4.935  0.00  0.00    +0.000 C 
ATOM     20  O   UNL     1       8.204  -6.200  -6.144  0.00  0.00    +0.000 OA
ATOM     21  H   UNL     1       7.001  -5.348  -3.349  0.00  0.00    +0.000 HD
BRANCH  19  22
ATOM     22  C   UNL     1       9.239  -6.424  -4.039  0.00  0.00    +0.000 A 
ATOM     23  C   UNL     1      10.503  -6.682  -4.554  0.00  0.00    +0.000 A 
ATOM     24  S   UNL     1      11.654  -7.095  -3.365  0.00  0.00    +0.000 S 
ATOM     25  C   UNL     1      10.491  -6.999  -2.127  0.00  0.00    +0.000 A 
ATOM     26  N   UNL     1      10.823  -7.257  -0.833  0.00  0.00    +0.000 NA
ATOM     27  C   UNL     1       9.836  -7.179  -0.003  0.00  0.00    +0.000 A 
ATOM     28  N   UNL     1       8.548  -6.865  -0.350  0.00  0.00    +0.000 N 
ATOM     29  C   UNL     1       8.170  -6.575  -1.639  0.00  0.00    +0.000 A 
ATOM     30  O   UNL     1       7.015  -6.269  -1.910  0.00  0.00    +0.000 OA
ATOM     31  C   UNL     1       9.244  -6.647  -2.612  0.00  0.00    +0.000 A 
ATOM     32  H   UNL     1       7.820  -6.820   0.347  0.00  0.00    +0.000 HD
ENDBRANCH  19  22
ENDBRANCH  17  18
ENDBRANCH   4  17
TORSDOF 6
