REMARK  Name = 
REMARK  8 active torsions:
REMARK  status: ('A' for Active; 'I' for Inactive)
REMARK    1  A    between atoms: C_1  and  C_2
REMARK    2  A    between atoms: C_2  and  N_3
REMARK    3  A    between atoms: C_2  and  C_25
REMARK    4  A    between atoms: N_3  and  C_4
REMARK    5  A    between atoms: C_4  and  C_5
REMARK    6  A    between atoms: C_8  and  C_9
REMARK    7  A    between atoms: C_9  and  N_10
REMARK    8  A    between atoms: C_11  and  C_13
REMARK                            x       y       z     vdW  Elec       q    Type
REMARK                         _______ _______ _______ _____ _____    ______ ____
ROOT
ATOM      1  C   UNL     1       2.960  -3.209   1.736  0.00  0.00    +0.000 A 
ATOM      2  C   UNL     1       4.063  -3.442   2.571  0.00  0.00    +0.000 A 
ATOM      3  C   UNL     1       4.537  -4.741   2.782  0.00  0.00    +0.000 A 
ATOM      4  C   UNL     1       3.919  -5.835   2.165  0.00  0.00    +0.000 A 
ATOM      5  C   UNL     1       2.803  -5.607   1.351  0.00  0.00    +0.000 A 
ATOM      6  C   UNL     1       2.335  -4.309   1.131  0.00  0.00    +0.000 A 
ENDROOT
BRANCH   1   7
ATOM      7  C   UNL     1       2.429  -1.810   1.505  0.00  0.00    +0.000 C 
BRANCH   7   8
ATOM      8  N   UNL     1       3.417  -0.968   0.836  0.00  0.00    +0.000 NA
ATOM      9  H   UNL     1       4.258  -0.935   1.412  0.00  0.00    +0.000 HD
BRANCH   8  11
ATOM     10  C   UNL     1       1.775   0.493  -0.354  0.00  0.00    +0.000 C 
ATOM     11  C   UNL     1       2.972   0.416   0.602  0.00  0.00    +0.000 C 
BRANCH  11  12
ATOM     12  C   UNL     1       4.113   1.248   0.041  0.00  0.00    +0.000 A 
ATOM     13  C   UNL     1       5.052   0.727  -0.859  0.00  0.00    +0.000 A 
ATOM     14  C   UNL     1       6.081   1.531  -1.340  0.00  0.00    +0.000 A 
ATOM     15  C   UNL     1       6.132   2.848  -0.920  0.00  0.00    +0.000 A 
ATOM     16  N   UNL     1       5.237   3.401  -0.073  0.00  0.00    +0.000 NA
ATOM     17  C   UNL     1       4.251   2.592   0.382  0.00  0.00    +0.000 A 
ENDBRANCH  11  12
ENDBRANCH   8  11
ENDBRANCH   7   8
ENDBRANCH   1   7
BRANCH   4  18
ATOM     18  C   UNL     1       4.404  -7.240   2.407  0.00  0.00    +0.000 C 
BRANCH  18  19
ATOM     19  N   UNL     1       3.745  -7.818   3.551  0.00  0.00    +0.000 N 
ATOM     20  C   UNL     1       4.083  -9.063   4.015  0.00  0.00    +0.000 C 
ATOM     21  O   UNL     1       4.986  -9.723   3.512  0.00  0.00    +0.000 OA
ATOM     22  H   UNL     1       2.863  -7.402   3.832  0.00  0.00    +0.000 HD
BRANCH  20  23
ATOM     23  C   UNL     1       3.348  -9.540   5.194  0.00  0.00    +0.000 A 
ATOM     24  C   UNL     1       3.916 -10.510   6.009  0.00  0.00    +0.000 A 
ATOM     25  S   UNL     1       2.963 -10.911   7.364  0.00  0.00    +0.000 S 
ATOM     26  C   UNL     1       1.730  -9.842   6.881  0.00  0.00    +0.000 A 
ATOM     27  N   UNL     1       0.588  -9.718   7.610  0.00  0.00    +0.000 NA
ATOM     28  C   UNL     1      -0.274  -8.897   7.114  0.00  0.00    +0.000 A 
ATOM     29  N   UNL     1      -0.098  -8.183   5.956  0.00  0.00    +0.000 N 
ATOM     30  C   UNL     1       1.051  -8.253   5.204  0.00  0.00    +0.000 A 
ATOM     31  O   UNL     1       1.195  -7.567   4.197  0.00  0.00    +0.000 OA
ATOM     32  C   UNL     1       2.050  -9.174   5.712  0.00  0.00    +0.000 A 
ATOM     33  H   UNL     1      -0.810  -7.550   5.624  0.00  0.00    +0.000 HD
ENDBRANCH  20  23
ENDBRANCH  18  19
ENDBRANCH   4  18
TORSDOF 7
