REMARK  Name = 
REMARK  5 active torsions:
REMARK  status: ('A' for Active; 'I' for Inactive)
REMARK    1  A    between atoms: C_2  and  C_4
REMARK    2  A    between atoms: C_7  and  O_8
REMARK    3  A    between atoms: O_8  and  C_9
REMARK    4  A    between atoms: C_9  and  C_10
REMARK    5  A    between atoms: C_14  and  C_15
REMARK                            x       y       z     vdW  Elec       q    Type
REMARK                         _______ _______ _______ _____ _____    ______ ____
ROOT
ATOM      1  C   UNL     1       5.017   2.640  -5.344  0.00  0.00    +0.000 C 
ENDROOT
BRANCH   1   2
ATOM      2  C   UNL     1       5.960   2.828  -6.511  0.00  0.00    +0.000 A 
ATOM      3  N   UNL     1       7.069   3.566  -6.308  0.00  0.00    +0.000 NA
ATOM      4  C   UNL     1       7.855   3.771  -7.376  0.00  0.00    +0.000 A 
ATOM      5  C   UNL     1       7.584   3.267  -8.625  0.00  0.00    +0.000 A 
ATOM      6  C   UNL     1       6.432   2.513  -8.755  0.00  0.00    +0.000 A 
ATOM      7  N   UNL     1       5.611   2.294  -7.703  0.00  0.00    +0.000 NA
BRANCH   6   8
ATOM      8  C   UNL     1       6.001   1.932 -10.038  0.00  0.00    +0.000 A 
ATOM      9  C   UNL     1       4.646   1.745 -10.337  0.00  0.00    +0.000 A 
ATOM     10  N   UNL     1       4.162   1.256 -11.512  0.00  0.00    +0.000 NA
ATOM     11  C   UNL     1       5.078   0.915 -12.443  0.00  0.00    +0.000 A 
ATOM     12  C   UNL     1       6.439   1.037 -12.245  0.00  0.00    +0.000 A 
ATOM     13  F   UNL     1       7.305   0.678 -13.201  0.00  0.00    +0.000 F 
ATOM     14  C   UNL     1       6.906   1.544 -11.038  0.00  0.00    +0.000 A 
ENDBRANCH   6   8
ENDBRANCH   1   2
BRANCH   1  15
ATOM     15  O   UNL     1       5.378   1.483  -4.577  0.00  0.00    +0.000 OA
BRANCH  15  19
ATOM     16  C   UNL     1       2.923   0.940  -1.313  0.00  0.00    +0.000 A 
ATOM     17  C   UNL     1       3.976   0.051  -1.540  0.00  0.00    +0.000 A 
ATOM     18  C   UNL     1       4.800   0.241  -2.652  0.00  0.00    +0.000 A 
ATOM     19  C   UNL     1       4.541   1.315  -3.493  0.00  0.00    +0.000 A 
ATOM     20  N   UNL     1       3.524   2.182  -3.300  0.00  0.00    +0.000 NA
ATOM     21  C   UNL     1       2.732   1.970  -2.223  0.00  0.00    +0.000 A 
BRANCH  16  23
ATOM     22  N   UNL     1       2.458   0.244   0.968  0.00  0.00    +0.000 N 
ATOM     23  C   UNL     1       1.993   0.837  -0.171  0.00  0.00    +0.000 C 
ATOM     24  O   UNL     1       0.863   1.305  -0.224  0.00  0.00    +0.000 OA
ATOM     25  H   UNL     1       1.848   0.294   1.775  0.00  0.00    +0.000 HD
ATOM     26  H   UNL     1       3.442   0.089   1.139  0.00  0.00    +0.000 HD
ENDBRANCH  16  23
ENDBRANCH  15  19
ENDBRANCH   1  15
TORSDOF 5
