REMARK  Name = 
REMARK  8 active torsions:
REMARK  status: ('A' for Active; 'I' for Inactive)
REMARK    1  A    between atoms: C_2  and  C_3
REMARK    2  A    between atoms: C_3  and  N_4
REMARK    3  A    between atoms: C_5  and  C_7
REMARK    4  A    between atoms: N_17  and  C_18
REMARK    5  A    between atoms: C_18  and  C_19
REMARK    6  A    between atoms: C_22  and  C_23
REMARK    7  A    between atoms: C_23  and  N_24
REMARK    8  A    between atoms: C_25  and  C_27
REMARK                            x       y       z     vdW  Elec       q    Type
REMARK                         _______ _______ _______ _____ _____    ______ ____
ROOT
ATOM      1  O   UNL     1       2.806   1.516   1.193  0.00  0.00    +0.000 OA
ATOM      2  C   UNL     1       2.255   1.079   0.186  0.00  0.00    +0.000 C 
ATOM      3  N   UNL     1       2.944   0.624  -0.913  0.00  0.00    +0.000 N 
ATOM      4  H   UNL     1       2.438   0.131  -1.645  0.00  0.00    +0.000 HD
ENDROOT
BRANCH   2   5
ATOM      5  C   UNL     1       0.731   0.948   0.081  0.00  0.00    +0.000 C 
BRANCH   5   6
ATOM      6  N   UNL     1       0.263  -0.331   0.574  0.00  0.00    +0.000 N 
ATOM      7  C   UNL     1       0.231  -1.442  -0.227  0.00  0.00    +0.000 C 
ATOM      8  O   UNL     1       0.637  -1.405  -1.387  0.00  0.00    +0.000 OA
ATOM      9  H   UNL     1      -0.151  -0.355   1.501  0.00  0.00    +0.000 HD
BRANCH   7  10
ATOM     10  C   UNL     1      -0.250  -2.688   0.383  0.00  0.00    +0.000 A 
ATOM     11  C   UNL     1       0.145  -3.907  -0.151  0.00  0.00    +0.000 A 
ATOM     12  S   UNL     1      -0.483  -5.256   0.681  0.00  0.00    +0.000 S 
ATOM     13  C   UNL     1      -1.346  -4.260   1.757  0.00  0.00    +0.000 A 
ATOM     14  N   UNL     1      -2.137  -4.799   2.724  0.00  0.00    +0.000 NA
ATOM     15  C   UNL     1      -2.760  -3.930   3.448  0.00  0.00    +0.000 A 
ATOM     16  N   UNL     1      -2.655  -2.572   3.299  0.00  0.00    +0.000 N 
ATOM     17  C   UNL     1      -1.832  -1.982   2.367  0.00  0.00    +0.000 A 
ATOM     18  O   UNL     1      -1.695  -0.764   2.315  0.00  0.00    +0.000 OA
ATOM     19  C   UNL     1      -1.133  -2.915   1.504  0.00  0.00    +0.000 A 
ATOM     20  H   UNL     1      -3.155  -1.947   3.914  0.00  0.00    +0.000 HD
ENDBRANCH   7  10
ENDBRANCH   5   6
ENDBRANCH   2   5
BRANCH   3  21
ATOM     21  C   UNL     1       4.391   0.668  -1.018  0.00  0.00    +0.000 C 
BRANCH  21  22
ATOM     22  C   UNL     1       4.838   1.524  -2.185  0.00  0.00    +0.000 A 
ATOM     23  C   UNL     1       5.089   2.883  -2.008  0.00  0.00    +0.000 A 
ATOM     24  C   UNL     1       5.416   3.664  -3.118  0.00  0.00    +0.000 A 
ATOM     25  C   UNL     1       5.467   3.084  -4.388  0.00  0.00    +0.000 A 
ATOM     26  C   UNL     1       5.233   1.715  -4.465  0.00  0.00    +0.000 A 
ATOM     27  N   UNL     1       4.917   0.932  -3.405  0.00  0.00    +0.000 NA
BRANCH  25  28
ATOM     28  C   UNL     1       5.733   3.896  -5.622  0.00  0.00    +0.000 C 
BRANCH  28  29
ATOM     29  N   UNL     1       7.139   4.010  -5.917  0.00  0.00    +0.000 N 
ATOM     30  C   UNL     1       7.572   4.651  -7.057  0.00  0.00    +0.000 C 
ATOM     31  O   UNL     1       6.796   5.125  -7.880  0.00  0.00    +0.000 OA
ATOM     32  H   UNL     1       7.812   3.726  -5.222  0.00  0.00    +0.000 HD
BRANCH  30  33
ATOM     33  C   UNL     1       9.011   4.729  -7.214  0.00  0.00    +0.000 A 
ATOM     34  C   UNL     1      10.057   4.237  -6.450  0.00  0.00    +0.000 A 
ATOM     35  C   UNL     1      11.276   4.599  -7.076  0.00  0.00    +0.000 A 
ATOM     36  C   UNL     1      10.955   5.304  -8.212  0.00  0.00    +0.000 A 
ATOM     37  N   UNL     1       9.589   5.374  -8.290  0.00  0.00    +0.000 N 
ATOM     38  H   UNL     1       9.059   5.827  -9.026  0.00  0.00    +0.000 HD
ENDBRANCH  30  33
ENDBRANCH  28  29
ENDBRANCH  25  28
ENDBRANCH  21  22
ENDBRANCH   3  21
TORSDOF 8
