REMARK  Name = 
REMARK  6 active torsions:
REMARK  status: ('A' for Active; 'I' for Inactive)
REMARK    1  A    between atoms: C_2  and  C_19
REMARK    2  A    between atoms: N_3  and  C_4
REMARK    3  A    between atoms: C_4  and  C_5
REMARK    4  A    between atoms: C_8  and  C_9
REMARK    5  A    between atoms: C_9  and  O_10
REMARK    6  A    between atoms: C_9  and  C_11
REMARK                            x       y       z     vdW  Elec       q    Type
REMARK                         _______ _______ _______ _____ _____    ______ ____
ROOT
ATOM      1  C   UNL     1       2.269  -2.365  -0.122  0.00  0.00    +0.000 C 
ENDROOT
BRANCH   1   2
ATOM      2  C   UNL     1       3.218  -3.529  -0.221  0.00  0.00    +0.000 A 
ATOM      3  C   UNL     1       4.599  -3.310  -0.274  0.00  0.00    +0.000 A 
ATOM      4  C   UNL     1       5.489  -4.386  -0.326  0.00  0.00    +0.000 A 
ATOM      5  C   UNL     1       5.014  -5.706  -0.338  0.00  0.00    +0.000 A 
ATOM      6  C   UNL     1       3.626  -5.920  -0.331  0.00  0.00    +0.000 A 
ATOM      7  C   UNL     1       2.738  -4.843  -0.278  0.00  0.00    +0.000 A 
BRANCH   5   8
ATOM      8  C   UNL     1       5.985  -6.868  -0.299  0.00  0.00    +0.000 C 
BRANCH   8   9
ATOM      9  C   UNL     1       5.952  -7.764  -1.531  0.00  0.00    +0.000 A 
ATOM     10  N   UNL     1       5.125  -8.842  -1.514  0.00  0.00    +0.000 NA
ATOM     11  C   UNL     1       5.207  -9.639  -2.599  0.00  0.00    +0.000 A 
ATOM     12  C   UNL     1       6.067  -9.393  -3.642  0.00  0.00    +0.000 A 
ATOM     13  N   UNL     1       6.866  -8.315  -3.622  0.00  0.00    +0.000 NA
ATOM     14  N   UNL     1       6.806  -7.483  -2.546  0.00  0.00    +0.000 NA
ENDBRANCH   8   9
BRANCH   8  15
ATOM     15  O   UNL     1       5.692  -7.610   0.901  0.00  0.00    +0.000 OA
ATOM     16  H   UNL     1       5.156  -8.370   0.604  0.00  0.00    +0.000 HD
ENDBRANCH   8  15
ENDBRANCH   5   8
ENDBRANCH   1   2
BRANCH   1  19
ATOM     17  O   UNL     1       3.272  -0.173  -1.600  0.00  0.00    +0.000 OA
ATOM     18  C   UNL     1       2.405  -0.886  -2.096  0.00  0.00    +0.000 C 
ATOM     19  N   UNL     1       1.836  -1.934  -1.425  0.00  0.00    +0.000 N 
ATOM     20  H   UNL     1       1.260  -2.594  -1.933  0.00  0.00    +0.000 HD
BRANCH  18  21
ATOM     21  C   UNL     1       1.872  -0.625  -3.442  0.00  0.00    +0.000 A 
ATOM     22  C   UNL     1       2.013   0.635  -4.009  0.00  0.00    +0.000 A 
ATOM     23  S   UNL     1       1.327   0.765  -5.565  0.00  0.00    +0.000 S 
ATOM     24  C   UNL     1       0.856  -0.871  -5.556  0.00  0.00    +0.000 A 
ATOM     25  N   UNL     1       0.232  -1.424  -6.630  0.00  0.00    +0.000 NA
ATOM     26  C   UNL     1      -0.033  -2.682  -6.503  0.00  0.00    +0.000 A 
ATOM     27  N   UNL     1       0.256  -3.433  -5.394  0.00  0.00    +0.000 N 
ATOM     28  C   UNL     1       0.810  -2.897  -4.257  0.00  0.00    +0.000 A 
ATOM     29  O   UNL     1       0.912  -3.573  -3.236  0.00  0.00    +0.000 OA
ATOM     30  C   UNL     1       1.184  -1.499  -4.367  0.00  0.00    +0.000 A 
ATOM     31  H   UNL     1      -0.013  -4.403  -5.341  0.00  0.00    +0.000 HD
ENDBRANCH  18  21
ENDBRANCH   1  19
TORSDOF 6
