REMARK  Name = 
REMARK  5 active torsions:
REMARK  status: ('A' for Active; 'I' for Inactive)
REMARK    1  A    between atoms: C_2  and  C_4
REMARK    2  A    between atoms: N_8  and  CA_9
REMARK    3  A    between atoms: CA_9  and  C_10
REMARK    4  A    between atoms: CA_9  and  C_12
REMARK    5  A    between atoms: C_10  and  O_11
REMARK                            x       y       z     vdW  Elec       q    Type
REMARK                         _______ _______ _______ _____ _____    ______ ____
ROOT
ATOM      1  C   UNL     1       2.268   2.980   0.527  0.00  0.00    +0.000 A 
ATOM      2  C   UNL     1       3.556   2.542   0.246  0.00  0.00    +0.000 A 
ATOM      3  C   UNL     1       4.555   2.712   1.209  0.00  0.00    +0.000 A 
ATOM      4  C   UNL     1       4.249   3.275   2.450  0.00  0.00    +0.000 A 
ATOM      5  N   UNL     1       5.303   3.538   3.334  0.00  0.00    +0.000 N 
ATOM      6  N   UNL     1       3.001   3.703   2.729  0.00  0.00    +0.000 NA
ATOM      7  C   UNL     1       2.047   3.565   1.764  0.00  0.00    +0.000 A 
ATOM      8  H   UNL     1       6.043   2.849   3.240  0.00  0.00    +0.000 HD
ENDROOT
BRANCH   1  10
ATOM      9  N   UNL     1       1.213   1.898  -1.381  0.00  0.00    +0.000 N 
ATOM     10  C   UNL     1       1.154   2.892  -0.441  0.00  0.00    +0.000 C 
ATOM     11  O   UNL     1       0.199   3.656  -0.391  0.00  0.00    +0.000 OA
ATOM     12  H   UNL     1       0.400   1.793  -1.978  0.00  0.00    +0.000 HD
ATOM     13  H   UNL     1       1.841   1.111  -1.308  0.00  0.00    +0.000 HD
ENDBRANCH   1  10
BRANCH   5  14
ATOM     14  CA  UNL     1       4.951   3.704   4.756  0.00  0.00    +0.000 C 
BRANCH  14  15
ATOM     15  C   UNL     1       5.923   4.693   5.402  0.00  0.00    +0.000 A 
ATOM     16  C   UNL     1       5.595   6.044   5.469  0.00  0.00    +0.000 A 
ATOM     17  C   UNL     1       6.479   6.903   6.112  0.00  0.00    +0.000 A 
ATOM     18 CL   UNL     1       6.089   8.574   6.261  0.00  0.00    +0.000 Cl
ATOM     19  C   UNL     1       7.665   6.429   6.649  0.00  0.00    +0.000 A 
ATOM     20  C   UNL     1       7.933   5.081   6.507  0.00  0.00    +0.000 A 
ATOM     21  N   UNL     1       7.098   4.215   5.901  0.00  0.00    +0.000 NA
ENDBRANCH  14  15
BRANCH  14  22
ATOM     22  C   UNL     1       5.038   2.343   5.506  0.00  0.00    +0.000 C 
BRANCH  22  23
ATOM     23  O   UNL     1       4.095   1.373   5.041  0.00  0.00    +0.000 OA
ATOM     24  H   UNL     1       3.208   1.765   5.135  0.00  0.00    +0.000 HD
ENDBRANCH  22  23
ENDBRANCH  14  22
ENDBRANCH   5  14
TORSDOF 5
