REMARK  Name = 
REMARK  5 active torsions:
REMARK  status: ('A' for Active; 'I' for Inactive)
REMARK    1  A    between atoms: C_2  and  C_4
REMARK    2  A    between atoms: C_7  and  N_8
REMARK    3  A    between atoms: N_8  and  C_9
REMARK    4  A    between atoms: C_9  and  C_10
REMARK    5  A    between atoms: C_14  and  C_15
REMARK                            x       y       z     vdW  Elec       q    Type
REMARK                         _______ _______ _______ _____ _____    ______ ____
ROOT
ATOM      1  C   UNL     1       4.579  -5.716   2.139  0.00  0.00    +0.000 C 
ENDROOT
BRANCH   1   2
ATOM      2  C   UNL     1       5.279  -6.800   2.919  0.00  0.00    +0.000 A 
ATOM      3  C   UNL     1       4.932  -8.133   2.743  0.00  0.00    +0.000 A 
ATOM      4  N   UNL     1       5.510  -9.155   3.409  0.00  0.00    +0.000 NA
ATOM      5  C   UNL     1       6.472  -8.831   4.308  0.00  0.00    +0.000 A 
ATOM      6  C   UNL     1       6.915  -7.535   4.590  0.00  0.00    +0.000 A 
ATOM      7  C   UNL     1       6.282  -6.513   3.859  0.00  0.00    +0.000 A 
BRANCH   6   8
ATOM      8  C   UNL     1       7.971  -7.262   5.594  0.00  0.00    +0.000 A 
ATOM      9  C   UNL     1       9.025  -8.172   5.826  0.00  0.00    +0.000 A 
ATOM     10  C   UNL     1      10.013  -7.920   6.784  0.00  0.00    +0.000 A 
ATOM     11  C   UNL     1       9.971  -6.744   7.517  0.00  0.00    +0.000 A 
ATOM     12  F   UNL     1      10.919  -6.498   8.430  0.00  0.00    +0.000 F 
ATOM     13  C   UNL     1       8.957  -5.821   7.315  0.00  0.00    +0.000 A 
ATOM     14  C   UNL     1       7.963  -6.082   6.365  0.00  0.00    +0.000 A 
ENDBRANCH   6   8
ENDBRANCH   1   2
BRANCH   1  15
ATOM     15  N   UNL     1       3.372  -5.313   2.851  0.00  0.00    +0.000 N 
ATOM     16  H   UNL     1       3.569  -5.024   3.805  0.00  0.00    +0.000 HD
BRANCH  15  20
ATOM     17  C   UNL     1       0.966  -2.530   1.004  0.00  0.00    +0.000 A 
ATOM     18  C   UNL     1       2.139  -2.959   0.405  0.00  0.00    +0.000 A 
ATOM     19  N   UNL     1       2.972  -3.865   0.988  0.00  0.00    +0.000 NA
ATOM     20  C   UNL     1       2.603  -4.336   2.199  0.00  0.00    +0.000 A 
ATOM     21  C   UNL     1       1.408  -3.890   2.785  0.00  0.00    +0.000 A 
ATOM     22  N   UNL     1       0.567  -2.979   2.224  0.00  0.00    +0.000 NA
BRANCH  17  24
ATOM     23  N   UNL     1      -1.034  -1.164   0.983  0.00  0.00    +0.000 N 
ATOM     24  C   UNL     1       0.088  -1.553   0.303  0.00  0.00    +0.000 C 
ATOM     25  O   UNL     1       0.349  -1.121  -0.813  0.00  0.00    +0.000 OA
ATOM     26  H   UNL     1      -1.678  -0.511   0.555  0.00  0.00    +0.000 HD
ATOM     27  H   UNL     1      -1.228  -1.541   1.904  0.00  0.00    +0.000 HD
ENDBRANCH  17  24
ENDBRANCH  15  20
ENDBRANCH   1  15
TORSDOF 5
