REMARK  Name = 
REMARK  5 active torsions:
REMARK  status: ('A' for Active; 'I' for Inactive)
REMARK    1  A    between atoms: N_1  and  C_2
REMARK    2  A    between atoms: C_2  and  C_3
REMARK    3  A    between atoms: C_3  and  C_4
REMARK    4  A    between atoms: C_7  and  C_8
REMARK    5  A    between atoms: C_8  and  N_9
REMARK                            x       y       z     vdW  Elec       q    Type
REMARK                         _______ _______ _______ _____ _____    ______ ____
ROOT
ATOM      1  C   UNL     1       4.549  -1.450   0.015  0.00  0.00    +0.000 A 
ATOM      2  C   UNL     1       5.272  -0.253  -0.069  0.00  0.00    +0.000 A 
ATOM      3  C   UNL     1       6.672  -0.258  -0.014  0.00  0.00    +0.000 A 
ATOM      4  C   UNL     1       7.378  -1.463   0.108  0.00  0.00    +0.000 A 
ATOM      5  C   UNL     1       6.651  -2.661   0.157  0.00  0.00    +0.000 A 
ATOM      6  C   UNL     1       5.254  -2.656   0.113  0.00  0.00    +0.000 A 
ENDROOT
BRANCH   1   7
ATOM      7  C   UNL     1       3.038  -1.449   0.021  0.00  0.00    +0.000 C 
BRANCH   7   8
ATOM      8  C   UNL     1       2.435  -1.588  -1.380  0.00  0.00    +0.000 C 
BRANCH   8   9
ATOM      9  N   UNL     1       0.973  -1.617  -1.321  0.00  0.00    +0.000 NA
ATOM     10  H   UNL     1       0.598  -1.698  -2.266  0.00  0.00    +0.000 HD
ATOM     11  H   UNL     1       0.626  -0.732  -0.954  0.00  0.00    +0.000 HD
ENDBRANCH   8   9
ENDBRANCH   7   8
ENDBRANCH   1   7
BRANCH   4  12
ATOM     12  C   UNL     1       8.890  -1.479   0.226  0.00  0.00    +0.000 C 
BRANCH  12  13
ATOM     13  N   UNL     1       9.351  -1.218   1.593  0.00  0.00    +0.000 N 
ATOM     14  C   UNL     1       8.671  -1.849   2.746  0.00  0.00    +0.000 C 
ATOM     15  C   UNL     1       9.675  -1.967   3.907  0.00  0.00    +0.000 C 
ATOM     16  C   UNL     1      10.967  -1.811   3.172  0.00  0.00    +0.000 A 
ATOM     17  N   UNL     1      12.176  -2.025   3.716  0.00  0.00    +0.000 NA
ATOM     18  C   UNL     1      13.192  -1.814   2.863  0.00  0.00    +0.000 A 
ATOM     19  N   UNL     1      13.088  -1.435   1.573  0.00  0.00    +0.000 NA
ATOM     20  C   UNL     1      11.831  -1.237   1.103  0.00  0.00    +0.000 A 
ATOM     21  C   UNL     1      10.711  -1.410   1.874  0.00  0.00    +0.000 A 
ENDBRANCH  12  13
ENDBRANCH   4  12
TORSDOF 5
