REMARK  Name = 
REMARK  9 active torsions:
REMARK  status: ('A' for Active; 'I' for Inactive)
REMARK    1  A    between atoms: C_1  and  O_2
REMARK    2  A    between atoms: O_2  and  C_3
REMARK    3  A    between atoms: C_10  and  C_11
REMARK    4  A    between atoms: N_13  and  C_14
REMARK    5  A    between atoms: C_14  and  C_15
REMARK    6  A    between atoms: N_19  and  CA_20
REMARK    7  A    between atoms: CA_20  and  C_21
REMARK    8  A    between atoms: CA_20  and  C_23
REMARK    9  A    between atoms: C_21  and  O_22
REMARK                            x       y       z     vdW  Elec       q    Type
REMARK                         _______ _______ _______ _____ _____    ______ ____
ROOT
ATOM      1  C   UNL     1       1.630   0.407  -3.380  0.00  0.00    +0.000 A 
ATOM      2  C   UNL     1       1.882  -0.954  -3.540  0.00  0.00    +0.000 A 
ATOM      3  C   UNL     1       0.817  -1.842  -3.727  0.00  0.00    +0.000 A 
ATOM      4  C   UNL     1      -0.490  -1.364  -3.798  0.00  0.00    +0.000 A 
ATOM      5  N   UNL     1      -1.538  -2.269  -3.922  0.00  0.00    +0.000 N 
ATOM      6  N   UNL     1      -0.743  -0.046  -3.685  0.00  0.00    +0.000 NA
ATOM      7  C   UNL     1       0.301   0.799  -3.469  0.00  0.00    +0.000 A 
ATOM      8  H   UNL     1      -1.298  -3.217  -4.169  0.00  0.00    +0.000 HD
ENDROOT
BRANCH   1   9
ATOM      9  C   UNL     1       2.736   1.401  -3.160  0.00  0.00    +0.000 C 
BRANCH   9  12
ATOM     10  C   UNL     1       4.315   2.764  -4.475  0.00  0.00    +0.000 C 
ATOM     11  O   UNL     1       4.879   3.157  -3.454  0.00  0.00    +0.000 OA
ATOM     12  N   UNL     1       3.256   1.901  -4.410  0.00  0.00    +0.000 N 
ATOM     13  H   UNL     1       2.758   1.656  -5.257  0.00  0.00    +0.000 HD
BRANCH  10  21
ATOM     14  C   UNL     1       3.304   1.980  -7.669  0.00  0.00    +0.000 A 
ATOM     15  N   UNL     1       3.131   1.836  -8.996  0.00  0.00    +0.000 NA
ATOM     16  C   UNL     1       3.942   2.513  -9.814  0.00  0.00    +0.000 A 
ATOM     17  N   UNL     1       4.920   3.342  -9.464  0.00  0.00    +0.000 NA
ATOM     18  C   UNL     1       5.058   3.459  -8.129  0.00  0.00    +0.000 A 
ATOM     19  S   UNL     1       6.252   4.487  -7.500  0.00  0.00    +0.000 S 
ATOM     20  C   UNL     1       5.812   4.102  -5.905  0.00  0.00    +0.000 A 
ATOM     21  C   UNL     1       4.759   3.197  -5.815  0.00  0.00    +0.000 A 
ATOM     22  C   UNL     1       4.301   2.828  -7.153  0.00  0.00    +0.000 A 
BRANCH  14  24
ATOM     23  C   UNL     1       1.823   0.184  -7.417  0.00  0.00    +0.000 C 
ATOM     24  O   UNL     1       2.431   1.328  -6.824  0.00  0.00    +0.000 OA
ENDBRANCH  14  24
ENDBRANCH  10  21
ENDBRANCH   9  12
ENDBRANCH   1   9
BRANCH   5  25
ATOM     25  CA  UNL     1      -2.857  -1.796  -4.364  0.00  0.00    +0.000 C 
BRANCH  25  26
ATOM     26  C   UNL     1      -3.899  -2.909  -4.210  0.00  0.00    +0.000 A 
ATOM     27  C   UNL     1      -3.750  -4.173  -4.813  0.00  0.00    +0.000 A 
ATOM     28  C   UNL     1      -4.761  -5.136  -4.738  0.00  0.00    +0.000 A 
ATOM     29  C   UNL     1      -5.947  -4.853  -4.064  0.00  0.00    +0.000 A 
ATOM     30  C   UNL     1      -6.109  -3.612  -3.456  0.00  0.00    +0.000 A 
ATOM     31 CL   UNL     1      -7.584  -3.249  -2.646  0.00  0.00    +0.000 Cl
ATOM     32  C   UNL     1      -5.098  -2.649  -3.519  0.00  0.00    +0.000 A 
ENDBRANCH  25  26
BRANCH  25  33
ATOM     33  C   UNL     1      -2.838  -1.284  -5.831  0.00  0.00    +0.000 C 
BRANCH  33  34
ATOM     34  O   UNL     1      -2.277  -2.233  -6.748  0.00  0.00    +0.000 OA
ATOM     35  H   UNL     1      -1.368  -2.384  -6.438  0.00  0.00    +0.000 HD
ENDBRANCH  33  34
ENDBRANCH  25  33
ENDBRANCH   5  25
TORSDOF 8
