REMARK  Name = 
REMARK  9 active torsions:
REMARK  status: ('A' for Active; 'I' for Inactive)
REMARK    1  A    between atoms: C_1  and  O_2
REMARK    2  A    between atoms: O_2  and  C_3
REMARK    3  A    between atoms: C_10  and  C_11
REMARK    4  A    between atoms: N_13  and  C_14
REMARK    5  A    between atoms: C_14  and  C_15
REMARK    6  A    between atoms: C_18  and  C_19
REMARK    7  A    between atoms: C_19  and  N_20
REMARK    8  A    between atoms: N_20  and  C_21
REMARK    9  A    between atoms: C_21  and  C_22
REMARK                            x       y       z     vdW  Elec       q    Type
REMARK                         _______ _______ _______ _____ _____    ______ ____
ROOT
ATOM      1  C   UNL     1       1.471   2.985  -1.372  0.00  0.00    +0.000 A 
ATOM      2  C   UNL     1       1.338   1.710  -1.935  0.00  0.00    +0.000 A 
ATOM      3  C   UNL     1       0.142   1.317  -2.551  0.00  0.00    +0.000 A 
ATOM      4  C   UNL     1      -0.941   2.202  -2.668  0.00  0.00    +0.000 A 
ATOM      5  C   UNL     1      -0.759   3.516  -2.213  0.00  0.00    +0.000 A 
ATOM      6  C   UNL     1       0.427   3.900  -1.565  0.00  0.00    +0.000 A 
ENDROOT
BRANCH   1   7
ATOM      7  C   UNL     1       2.699   3.349  -0.564  0.00  0.00    +0.000 C 
BRANCH   7  10
ATOM      8  C   UNL     1       4.943   4.361  -0.891  0.00  0.00    +0.000 C 
ATOM      9  O   UNL     1       5.226   4.262   0.301  0.00  0.00    +0.000 OA
ATOM     10  N   UNL     1       3.734   3.945  -1.374  0.00  0.00    +0.000 N 
ATOM     11  H   UNL     1       3.543   4.008  -2.366  0.00  0.00    +0.000 HD
BRANCH   8  19
ATOM     12  C   UNL     1       4.827   4.893  -4.293  0.00  0.00    +0.000 A 
ATOM     13  N   UNL     1       5.003   5.267  -5.576  0.00  0.00    +0.000 NA
ATOM     14  C   UNL     1       6.140   5.887  -5.896  0.00  0.00    +0.000 A 
ATOM     15  N   UNL     1       7.148   6.176  -5.082  0.00  0.00    +0.000 NA
ATOM     16  C   UNL     1       6.924   5.798  -3.809  0.00  0.00    +0.000 A 
ATOM     17  S   UNL     1       8.104   6.082  -2.624  0.00  0.00    +0.000 S 
ATOM     18  C   UNL     1       7.130   5.393  -1.412  0.00  0.00    +0.000 A 
ATOM     19  C   UNL     1       5.894   4.947  -1.864  0.00  0.00    +0.000 A 
ATOM     20  C   UNL     1       5.789   5.168  -3.309  0.00  0.00    +0.000 A 
BRANCH  12  22
ATOM     21  C   UNL     1       3.097   3.531  -5.058  0.00  0.00    +0.000 C 
ATOM     22  O   UNL     1       3.651   4.257  -3.965  0.00  0.00    +0.000 OA
ENDBRANCH  12  22
ENDBRANCH   8  19
ENDBRANCH   7  10
ENDBRANCH   1   7
BRANCH   4  23
ATOM     23  C   UNL     1      -2.251   1.781  -3.321  0.00  0.00    +0.000 C 
BRANCH  23  24
ATOM     24  N   UNL     1      -2.522   0.355  -3.127  0.00  0.00    +0.000 NA
ATOM     25  H   UNL     1      -2.546   0.151  -2.129  0.00  0.00    +0.000 HD
BRANCH  24  26
ATOM     26  C   UNL     1      -3.766  -0.106  -3.757  0.00  0.00    +0.000 C 
BRANCH  26  27
ATOM     27  C   UNL     1      -3.975  -1.629  -3.506  0.00  0.00    +0.000 C 
ATOM     28  C   UNL     1      -2.823  -2.455  -4.116  0.00  0.00    +0.000 C 
ATOM     29  C   UNL     1      -3.022  -3.952  -3.895  0.00  0.00    +0.000 C 
ATOM     30  C   UNL     1      -4.408  -4.392  -4.353  0.00  0.00    +0.000 C 
ATOM     31  C   UNL     1      -5.496  -3.513  -3.743  0.00  0.00    +0.000 C 
ATOM     32  N   UNL     1      -5.258  -2.099  -4.058  0.00  0.00    +0.000 NA
ATOM     33  H   UNL     1      -6.016  -1.546  -3.671  0.00  0.00    +0.000 HD
ENDBRANCH  26  27
ENDBRANCH  24  26
ENDBRANCH  23  24
ENDBRANCH   4  23
TORSDOF 8
