REMARK  Name = 
REMARK  9 active torsions:
REMARK  status: ('A' for Active; 'I' for Inactive)
REMARK    1  A    between atoms: C_1  and  C_2
REMARK    2  A    between atoms: C_2  and  C_3
REMARK    3  A    between atoms: C_3  and  N_4
REMARK    4  A    between atoms: C_3  and  C_26
REMARK    5  A    between atoms: N_4  and  C_5
REMARK    6  A    between atoms: C_5  and  C_6
REMARK    7  A    between atoms: C_9  and  C_10
REMARK    8  A    between atoms: C_10  and  N_11
REMARK    9  A    between atoms: C_12  and  C_14
REMARK                            x       y       z     vdW  Elec       q    Type
REMARK                         _______ _______ _______ _____ _____    ______ ____
ROOT
ATOM      1  C   UNL     1       3.022  -1.237  -2.193  0.00  0.00    +0.000 A 
ATOM      2  C   UNL     1       2.661  -2.550  -1.893  0.00  0.00    +0.000 A 
ATOM      3  C   UNL     1       2.105  -3.342  -2.893  0.00  0.00    +0.000 A 
ATOM      4  C   UNL     1       1.924  -2.809  -4.170  0.00  0.00    +0.000 A 
ATOM      5  C   UNL     1       2.294  -1.484  -4.371  0.00  0.00    +0.000 A 
ATOM      6  N   UNL     1       2.840  -0.694  -3.421  0.00  0.00    +0.000 NA
ENDROOT
BRANCH   1   7
ATOM      7  C   UNL     1       3.583  -0.337  -1.113  0.00  0.00    +0.000 C 
BRANCH   7   8
ATOM      8  N   UNL     1       4.813  -0.873  -0.510  0.00  0.00    +0.000 NA
ATOM      9  H   UNL     1       5.507  -0.941  -1.260  0.00  0.00    +0.000 HD
BRANCH   8  10
ATOM     10  C   UNL     1       5.377   0.033   0.519  0.00  0.00    +0.000 C 
BRANCH  10  11
ATOM     11  C   UNL     1       6.725  -0.491   1.026  0.00  0.00    +0.000 A 
ATOM     12  C   UNL     1       6.827  -1.749   1.623  0.00  0.00    +0.000 A 
ATOM     13  C   UNL     1       8.044  -2.146   2.170  0.00  0.00    +0.000 A 
ATOM     14  C   UNL     1       9.133  -1.287   2.098  0.00  0.00    +0.000 A 
ATOM     15  C   UNL     1       8.959  -0.066   1.469  0.00  0.00    +0.000 A 
ATOM     16  N   UNL     1       7.788   0.350   0.936  0.00  0.00    +0.000 NA
ENDBRANCH  10  11
BRANCH  10  18
ATOM     17  C   UNL     1       4.906   1.246   2.733  0.00  0.00    +0.000 C 
ATOM     18  C   UNL     1       4.405   0.238   1.707  0.00  0.00    +0.000 C 
ENDBRANCH  10  18
ENDBRANCH   8  10
ENDBRANCH   7   8
ENDBRANCH   1   7
BRANCH   4  19
ATOM     19  C   UNL     1       1.293  -3.597  -5.276  0.00  0.00    +0.000 C 
BRANCH  19  20
ATOM     20  N   UNL     1      -0.136  -3.415  -5.277  0.00  0.00    +0.000 N 
ATOM     21  C   UNL     1      -0.940  -4.097  -6.151  0.00  0.00    +0.000 C 
ATOM     22  O   UNL     1      -0.489  -4.923  -6.940  0.00  0.00    +0.000 OA
ATOM     23  H   UNL     1      -0.500  -2.593  -4.804  0.00  0.00    +0.000 HD
BRANCH  21  24
ATOM     24  C   UNL     1      -2.378  -3.835  -6.051  0.00  0.00    +0.000 A 
ATOM     25  C   UNL     1      -3.283  -4.788  -6.502  0.00  0.00    +0.000 A 
ATOM     26  S   UNL     1      -4.912  -4.350  -6.265  0.00  0.00    +0.000 S 
ATOM     27  C   UNL     1      -4.470  -2.852  -5.599  0.00  0.00    +0.000 A 
ATOM     28  N   UNL     1      -5.413  -1.957  -5.197  0.00  0.00    +0.000 NA
ATOM     29  C   UNL     1      -4.937  -0.850  -4.729  0.00  0.00    +0.000 A 
ATOM     30  N   UNL     1      -3.605  -0.558  -4.618  0.00  0.00    +0.000 N 
ATOM     31  C   UNL     1      -2.615  -1.438  -4.987  0.00  0.00    +0.000 A 
ATOM     32  O   UNL     1      -1.430  -1.167  -4.833  0.00  0.00    +0.000 OA
ATOM     33  C   UNL     1      -3.096  -2.693  -5.533  0.00  0.00    +0.000 A 
ATOM     34  H   UNL     1      -3.299   0.323  -4.233  0.00  0.00    +0.000 HD
ENDBRANCH  21  24
ENDBRANCH  19  20
ENDBRANCH   4  19
TORSDOF 8
