REMARK  Name = 
REMARK  5 active torsions:
REMARK  status: ('A' for Active; 'I' for Inactive)
REMARK    1  A    between atoms: C_2  and  C_4
REMARK    2  A    between atoms: C_7  and  S_8
REMARK    3  A    between atoms: S_8  and  C_9
REMARK    4  A    between atoms: C_9  and  C_10
REMARK    5  A    between atoms: C_15  and  N_16
REMARK                            x       y       z     vdW  Elec       q    Type
REMARK                         _______ _______ _______ _____ _____    ______ ____
ROOT
ATOM      1  S   UNL     1       5.642   0.459  -4.676  0.00  0.00    +0.000 S 
ENDROOT
BRANCH   1   5
ATOM      2  C   UNL     1       4.027   2.032  -0.754  0.00  0.00    +0.000 A 
ATOM      3  C   UNL     1       5.386   1.741  -0.863  0.00  0.00    +0.000 A 
ATOM      4  C   UNL     1       5.892   1.321  -2.096  0.00  0.00    +0.000 A 
ATOM      5  C   UNL     1       5.029   1.204  -3.186  0.00  0.00    +0.000 A 
ATOM      6  N   UNL     1       3.714   1.480  -3.091  0.00  0.00    +0.000 NA
ATOM      7  C   UNL     1       3.240   1.884  -1.886  0.00  0.00    +0.000 A 
BRANCH   2   9
ATOM      8  N   UNL     1       4.151   3.014   1.469  0.00  0.00    +0.000 N 
ATOM      9  C   UNL     1       3.375   2.431   0.507  0.00  0.00    +0.000 C 
ATOM     10  O   UNL     1       2.175   2.271   0.684  0.00  0.00    +0.000 OA
ATOM     11  H   UNL     1       3.663   3.358   2.288  0.00  0.00    +0.000 HD
ATOM     12  H   UNL     1       5.072   3.381   1.285  0.00  0.00    +0.000 HD
ENDBRANCH   2   9
ENDBRANCH   1   5
BRANCH   1  13
ATOM     13  C   UNL     1       5.083   1.461  -6.016  0.00  0.00    +0.000 C 
ATOM     14  C   UNL     1       5.030   2.976  -5.856  0.00  0.00    +0.000 C 
ATOM     15  C   UNL     1       3.766   2.205  -6.078  0.00  0.00    +0.000 C 
BRANCH  13  16
ATOM     16  C   UNL     1       5.629   0.865  -7.325  0.00  0.00    +0.000 A 
ATOM     17  C   UNL     1       6.796   1.400  -7.911  0.00  0.00    +0.000 A 
ATOM     18  C   UNL     1       7.420   0.800  -9.013  0.00  0.00    +0.000 A 
ATOM     19  C   UNL     1       6.900  -0.366  -9.566  0.00  0.00    +0.000 A 
ATOM     20  C   UNL     1       5.736  -0.916  -9.042  0.00  0.00    +0.000 A 
ATOM     21  C   UNL     1       5.112  -0.293  -7.949  0.00  0.00    +0.000 A 
BRANCH  21  22
ATOM     22  N   UNL     1       3.899  -0.922  -7.450  0.00  0.00    +0.000 N 
ATOM     23  O   UNL     1       2.848  -0.273  -7.535  0.00  0.00    +0.000 OA
ATOM     24  O   UNL     1       3.992  -2.093  -7.059  0.00  0.00    +0.000 OA
ENDBRANCH  21  22
ENDBRANCH  13  16
ENDBRANCH   1  13
TORSDOF 5
