REMARK  Name = 
REMARK  9 active torsions:
REMARK  status: ('A' for Active; 'I' for Inactive)
REMARK    1  A    between atoms: N_1  and  C_2
REMARK    2  A    between atoms: C_2  and  C_3
REMARK    3  A    between atoms: C_2  and  C_26
REMARK    4  A    between atoms: C_3  and  N_4
REMARK    5  A    between atoms: N_4  and  C_5
REMARK    6  A    between atoms: C_5  and  C_6
REMARK    7  A    between atoms: C_9  and  C_10
REMARK    8  A    between atoms: C_10  and  N_11
REMARK    9  A    between atoms: C_12  and  C_14
REMARK                            x       y       z     vdW  Elec       q    Type
REMARK                         _______ _______ _______ _____ _____    ______ ____
ROOT
ATOM      1  C   UNL     1       2.425  -4.611   1.387  0.00  0.00    +0.000 C 
ATOM      2  C   UNL     1       3.305  -4.342   2.624  0.00  0.00    +0.000 C 
ATOM      3  C   UNL     1       3.143  -5.414   3.700  0.00  0.00    +0.000 C 
ATOM      4  C   UNL     1       3.475  -6.819   3.178  0.00  0.00    +0.000 C 
ATOM      5  C   UNL     1       2.604  -7.124   1.947  0.00  0.00    +0.000 C 
ATOM      6  C   UNL     1       2.666  -6.040   0.867  0.00  0.00    +0.000 C 
ENDROOT
BRANCH   1   7
ATOM      7  C   UNL     1       0.920  -4.317   1.622  0.00  0.00    +0.000 C 
BRANCH   7   8
ATOM      8  N   UNL     1       0.752  -2.880   1.838  0.00  0.00    +0.000 NA
ATOM      9  H   UNL     1       1.303  -2.616   2.666  0.00  0.00    +0.000 HD
BRANCH   8  10
ATOM     10  C   UNL     1      -0.628  -2.488   2.193  0.00  0.00    +0.000 C 
BRANCH  10  11
ATOM     11  C   UNL     1      -0.658  -0.973   2.603  0.00  0.00    +0.000 C 
BRANCH  11  12
ATOM     12  C   UNL     1       0.120  -0.699   3.900  0.00  0.00    +0.000 A 
ATOM     13  C   UNL     1       0.168   0.593   4.422  0.00  0.00    +0.000 A 
ATOM     14  C   UNL     1       0.953   0.841   5.547  0.00  0.00    +0.000 A 
ATOM     15  C   UNL     1       1.670  -0.199   6.125  0.00  0.00    +0.000 A 
ATOM     16  C   UNL     1       1.569  -1.453   5.555  0.00  0.00    +0.000 A 
ATOM     17  N   UNL     1       0.817  -1.723   4.467  0.00  0.00    +0.000 NA
ENDBRANCH  11  12
BRANCH  11  18
ATOM     18  N   UNL     1      -0.107  -0.159   1.488  0.00  0.00    +0.000 NA
ATOM     19  H   UNL     1      -0.641  -0.379   0.649  0.00  0.00    +0.000 HD
ATOM     20  H   UNL     1       0.810  -0.578   1.292  0.00  0.00    +0.000 HD
ENDBRANCH  11  18
ENDBRANCH  10  11
ENDBRANCH   8  10
ENDBRANCH   7   8
ENDBRANCH   1   7
BRANCH   4  21
ATOM     21  C   UNL     1       4.971  -7.008   2.855  0.00  0.00    +0.000 C 
BRANCH  21  22
ATOM     22  N   UNL     1       5.821  -6.806   4.010  0.00  0.00    +0.000 N 
ATOM     23  C   UNL     1       6.216  -7.830   4.832  0.00  0.00    +0.000 C 
ATOM     24  O   UNL     1       5.879  -8.995   4.636  0.00  0.00    +0.000 OA
ATOM     25  H   UNL     1       6.017  -5.846   4.279  0.00  0.00    +0.000 HD
BRANCH  23  26
ATOM     26  C   UNL     1       7.115  -7.474   5.937  0.00  0.00    +0.000 A 
ATOM     27  C   UNL     1       7.932  -8.450   6.493  0.00  0.00    +0.000 A 
ATOM     28  S   UNL     1       8.910  -7.883   7.768  0.00  0.00    +0.000 S 
ATOM     29  C   UNL     1       8.247  -6.321   7.653  0.00  0.00    +0.000 A 
ATOM     30  N   UNL     1       8.629  -5.336   8.511  0.00  0.00    +0.000 NA
ATOM     31  C   UNL     1       8.018  -4.210   8.341  0.00  0.00    +0.000 A 
ATOM     32  N   UNL     1       7.076  -3.976   7.375  0.00  0.00    +0.000 N 
ATOM     33  C   UNL     1       6.725  -4.914   6.432  0.00  0.00    +0.000 A 
ATOM     34  O   UNL     1       5.995  -4.621   5.492  0.00  0.00    +0.000 OA
ATOM     35  C   UNL     1       7.328  -6.220   6.624  0.00  0.00    +0.000 A 
ATOM     36  H   UNL     1       6.669  -3.060   7.264  0.00  0.00    +0.000 HD
ENDBRANCH  23  26
ENDBRANCH  21  22
ENDBRANCH   4  21
TORSDOF 9
