REMARK  Name = 
REMARK  8 active torsions:
REMARK  status: ('A' for Active; 'I' for Inactive)
REMARK    1  A    between atoms: C_1  and  O_2
REMARK    2  A    between atoms: O_2  and  C_3
REMARK    3  A    between atoms: C_10  and  C_11
REMARK    4  A    between atoms: N_13  and  C_14
REMARK    5  A    between atoms: C_14  and  C_15
REMARK    6  A    between atoms: C_18  and  C_19
REMARK    7  A    between atoms: C_19  and  C_20
REMARK    8  A    between atoms: C_20  and  N_21
REMARK                            x       y       z     vdW  Elec       q    Type
REMARK                         _______ _______ _______ _____ _____    ______ ____
ROOT
ATOM      1  C   UNL     1       3.018   0.824   3.271  0.00  0.00    +0.000 C 
ENDROOT
BRANCH   1   2
ATOM      2  C   UNL     1       1.935   1.809   2.920  0.00  0.00    +0.000 A 
ATOM      3  C   UNL     1       0.632   1.367   2.663  0.00  0.00    +0.000 A 
ATOM      4  C   UNL     1      -0.368   2.273   2.295  0.00  0.00    +0.000 A 
ATOM      5  C   UNL     1      -0.093   3.641   2.163  0.00  0.00    +0.000 A 
ATOM      6  C   UNL     1       1.214   4.078   2.424  0.00  0.00    +0.000 A 
ATOM      7  C   UNL     1       2.217   3.173   2.792  0.00  0.00    +0.000 A 
BRANCH   5   8
ATOM      8  C   UNL     1      -1.134   4.671   1.752  0.00  0.00    +0.000 C 
BRANCH   8   9
ATOM      9  C   UNL     1      -2.537   4.114   1.487  0.00  0.00    +0.000 C 
BRANCH   9  10
ATOM     10  N   UNL     1      -3.474   5.161   1.100  0.00  0.00    +0.000 N 
ATOM     11  C   UNL     1      -4.759   4.659   0.884  0.00  0.00    +0.000 A 
ATOM     12  N   UNL     1      -5.183   3.586   1.571  0.00  0.00    +0.000 NA
ATOM     13  C   UNL     1      -6.413   3.118   1.295  0.00  0.00    +0.000 A 
ATOM     14  C   UNL     1      -7.238   3.683   0.361  0.00  0.00    +0.000 A 
ATOM     15  C   UNL     1      -6.721   4.778  -0.287  0.00  0.00    +0.000 A 
ATOM     16  N   UNL     1      -5.489   5.275  -0.054  0.00  0.00    +0.000 NA
ATOM     17  H   UNL     1      -3.242   5.687   0.265  0.00  0.00    +0.000 HD
ENDBRANCH   9  10
ENDBRANCH   8   9
ENDBRANCH   5   8
ENDBRANCH   1   2
BRANCH   1  20
ATOM     18  C   UNL     1       4.657  -0.618   2.148  0.00  0.00    +0.000 C 
ATOM     19  O   UNL     1       5.018  -1.085   3.226  0.00  0.00    +0.000 OA
ATOM     20  N   UNL     1       3.676   0.334   2.084  0.00  0.00    +0.000 N 
ATOM     21  H   UNL     1       3.416   0.744   1.197  0.00  0.00    +0.000 HD
BRANCH  18  29
ATOM     22  C   UNL     1       4.041   0.097  -1.168  0.00  0.00    +0.000 A 
ATOM     23  N   UNL     1       4.030   0.202  -2.513  0.00  0.00    +0.000 NA
ATOM     24  C   UNL     1       4.921  -0.510  -3.207  0.00  0.00    +0.000 A 
ATOM     25  N   UNL     1       5.843  -1.333  -2.717  0.00  0.00    +0.000 NA
ATOM     26  C   UNL     1       5.826  -1.403  -1.376  0.00  0.00    +0.000 A 
ATOM     27  S   UNL     1       6.933  -2.413  -0.579  0.00  0.00    +0.000 S 
ATOM     28  C   UNL     1       6.314  -1.974   0.940  0.00  0.00    +0.000 A 
ATOM     29  C   UNL     1       5.269  -1.058   0.881  0.00  0.00    +0.000 A 
ATOM     30  C   UNL     1       4.974  -0.723  -0.510  0.00  0.00    +0.000 A 
BRANCH  22  32
ATOM     31  C   UNL     1       1.956   1.146  -1.200  0.00  0.00    +0.000 C 
ATOM     32  O   UNL     1       3.136   0.853  -0.453  0.00  0.00    +0.000 OA
ENDBRANCH  22  32
ENDBRANCH  18  29
ENDBRANCH   1  20
TORSDOF 7
