REMARK  Name = 
REMARK  7 active torsions:
REMARK  status: ('A' for Active; 'I' for Inactive)
REMARK    1  A    between atoms: C_2  and  C_3
REMARK    2  A    between atoms: C_6  and  O_7
REMARK    3  A    between atoms: O_7  and  C_8
REMARK    4  A    between atoms: C_8  and  C_9
REMARK    5  A    between atoms: C_9  and  C_12
REMARK    6  A    between atoms: C_16  and  C_17
REMARK    7  A    between atoms: C_17  and  N_18
REMARK                            x       y       z     vdW  Elec       q    Type
REMARK                         _______ _______ _______ _____ _____    ______ ____
ROOT
ATOM      1  C   UNL     1       5.865  -0.933   0.199  0.00  0.00    +0.000 C 
ATOM      2  F   UNL     1       4.882  -1.115  -0.732  0.00  0.00    +0.000 F 
ATOM      3  F   UNL     1       6.621   0.107  -0.265  0.00  0.00    +0.000 F 
ENDROOT
BRANCH   1   4
ATOM      4  C   UNL     1       6.698  -2.189   0.393  0.00  0.00    +0.000 A 
ATOM      5  C   UNL     1       8.053  -2.084   0.738  0.00  0.00    +0.000 A 
ATOM      6  C   UNL     1       8.810  -3.229   0.980  0.00  0.00    +0.000 A 
ATOM      7  C   UNL     1       8.221  -4.492   0.892  0.00  0.00    +0.000 A 
ATOM      8  C   UNL     1       6.870  -4.632   0.546  0.00  0.00    +0.000 A 
ATOM      9  C   UNL     1       6.120  -3.468   0.289  0.00  0.00    +0.000 A 
BRANCH   8  10
ATOM     10  C   UNL     1       6.197  -5.994   0.565  0.00  0.00    +0.000 C 
BRANCH  10  11
ATOM     11  N   UNL     1       6.162  -6.839  -0.629  0.00  0.00    +0.000 NA
ATOM     12  C   UNL     1       7.473  -7.253  -1.140  0.00  0.00    +0.000 C 
ATOM     13  C   UNL     1       6.980  -6.956  -2.573  0.00  0.00    +0.000 C 
ATOM     14  F   UNL     1       6.604  -8.030  -3.313  0.00  0.00    +0.000 F 
ATOM     15  C   UNL     1       5.843  -6.162  -1.891  0.00  0.00    +0.000 C 
ENDBRANCH  10  11
ENDBRANCH   8  10
ENDBRANCH   1   4
BRANCH   1  16
ATOM     16  C   UNL     1       5.214  -0.516   1.532  0.00  0.00    +0.000 C 
BRANCH  16  17
ATOM     17  O   UNL     1       4.513   0.729   1.385  0.00  0.00    +0.000 OA
BRANCH  17  21
ATOM     18  C   UNL     1       2.574   2.499   4.626  0.00  0.00    +0.000 A 
ATOM     19  C   UNL     1       3.203   1.267   4.819  0.00  0.00    +0.000 A 
ATOM     20  C   UNL     1       3.869   0.639   3.760  0.00  0.00    +0.000 A 
ATOM     21  C   UNL     1       3.908   1.239   2.500  0.00  0.00    +0.000 A 
ATOM     22  C   UNL     1       3.279   2.473   2.312  0.00  0.00    +0.000 A 
ATOM     23  C   UNL     1       2.613   3.104   3.368  0.00  0.00    +0.000 A 
BRANCH  18  25
ATOM     24  N   UNL     1       1.341   3.653   6.596  0.00  0.00    +0.000 NA
ATOM     25  C   UNL     1       1.893   3.135   5.712  0.00  0.00    +0.000 C 
ENDBRANCH  18  25
ENDBRANCH  17  21
ENDBRANCH  16  17
ENDBRANCH   1  16
TORSDOF 7
