REMARK  Name = 
REMARK  5 active torsions:
REMARK  status: ('A' for Active; 'I' for Inactive)
REMARK    1  A    between atoms: N_1  and  C_2
REMARK    2  A    between atoms: C_2  and  C_3
REMARK    3  A    between atoms: C_3  and  C_4
REMARK    4  A    between atoms: C_7  and  C_8
REMARK    5  A    between atoms: C_8  and  N_9
REMARK                            x       y       z     vdW  Elec       q    Type
REMARK                         _______ _______ _______ _____ _____    ______ ____
ROOT
ATOM      1  C   UNL     1       4.647  -0.124   1.498  0.00  0.00    +0.000 A 
ATOM      2  C   UNL     1       5.401   1.055   1.558  0.00  0.00    +0.000 A 
ATOM      3  C   UNL     1       6.796   1.008   1.672  0.00  0.00    +0.000 A 
ATOM      4  C   UNL     1       7.468  -0.222   1.737  0.00  0.00    +0.000 A 
ATOM      5  C   UNL     1       6.710  -1.400   1.672  0.00  0.00    +0.000 A 
ATOM      6  C   UNL     1       5.318  -1.352   1.551  0.00  0.00    +0.000 A 
ENDROOT
BRANCH   1   7
ATOM      7  C   UNL     1       3.135  -0.083   1.444  0.00  0.00    +0.000 C 
BRANCH   7   8
ATOM      8  C   UNL     1       2.589   0.610   0.192  0.00  0.00    +0.000 C 
BRANCH   8   9
ATOM      9  N   UNL     1       1.126   0.594   0.179  0.00  0.00    +0.000 NA
ATOM     10  H   UNL     1       0.791   1.098  -0.642  0.00  0.00    +0.000 HD
ATOM     11  H   UNL     1       0.770   1.099   0.989  0.00  0.00    +0.000 HD
ENDBRANCH   8   9
ENDBRANCH   7   8
ENDBRANCH   1   7
BRANCH   4  12
ATOM     12  C   UNL     1       8.964  -0.286   1.985  0.00  0.00    +0.000 C 
BRANCH  12  13
ATOM     13  N   UNL     1       9.228  -0.423   3.413  0.00  0.00    +0.000 N 
ATOM     14  N   UNL     1       9.298  -1.662   3.957  0.00  0.00    +0.000 NA
ATOM     15  C   UNL     1       9.035  -1.438   5.247  0.00  0.00    +0.000 A 
ATOM     16  C   UNL     1       8.890  -0.066   5.546  0.00  0.00    +0.000 A 
ATOM     17  C   UNL     1       8.556   0.695   6.679  0.00  0.00    +0.000 A 
ATOM     18  C   UNL     1       8.572   2.092   6.583  0.00  0.00    +0.000 A 
ATOM     19  C   UNL     1       8.946   2.724   5.397  0.00  0.00    +0.000 A 
ATOM     20  C   UNL     1       9.245   1.983   4.249  0.00  0.00    +0.000 A 
ATOM     21  C   UNL     1       9.172   0.585   4.347  0.00  0.00    +0.000 A 
ENDBRANCH  12  13
ENDBRANCH   4  12
TORSDOF 5
