REMARK  Name = 
REMARK  5 active torsions:
REMARK  status: ('A' for Active; 'I' for Inactive)
REMARK    1  A    between atoms: C_1  and  C_2
REMARK    2  A    between atoms: C_2  and  O_3
REMARK    3  A    between atoms: C_2  and  C_13
REMARK    4  A    between atoms: O_3  and  C_4
REMARK    5  A    between atoms: C_8  and  C_9
REMARK                            x       y       z     vdW  Elec       q    Type
REMARK                         _______ _______ _______ _____ _____    ______ ____
ROOT
ATOM      1  C   UNL     1       3.066   0.428  -2.317  0.00  0.00    +0.000 A 
ATOM      2  C   UNL     1       3.543   1.298  -3.291  0.00  0.00    +0.000 A 
ATOM      3  N   UNL     1       3.874   0.929  -4.555  0.00  0.00    +0.000 NA
ATOM      4  C   UNL     1       3.728  -0.385  -4.861  0.00  0.00    +0.000 A 
ATOM      5  C   UNL     1       3.258  -1.336  -3.969  0.00  0.00    +0.000 A 
ATOM      6  C   UNL     1       2.907  -0.904  -2.686  0.00  0.00    +0.000 A 
ENDROOT
BRANCH   5   7
ATOM      7  C   UNL     1       3.121  -2.783  -4.266  0.00  0.00    +0.000 C 
ATOM      8  N   UNL     1       3.523  -3.258  -5.479  0.00  0.00    +0.000 N 
ATOM      9  O   UNL     1       2.671  -3.558  -3.429  0.00  0.00    +0.000 OA
ATOM     10  H   UNL     1       3.956  -2.724  -6.213  0.00  0.00    +0.000 HD
ATOM     11  H   UNL     1       3.448  -4.260  -5.607  0.00  0.00    +0.000 HD
ENDBRANCH   5   7
BRANCH   1  12
ATOM     12  O   UNL     1       2.799   0.955  -1.087  0.00  0.00    +0.000 OA
BRANCH  12  14
ATOM     13  C   UNL     1       0.919  -0.130  -0.025  0.00  0.00    +0.000 C 
ATOM     14  C   UNL     1       2.437   0.055  -0.024  0.00  0.00    +0.000 C 
BRANCH  14  15
ATOM     15  C   UNL     1       2.958   0.610   1.326  0.00  0.00    +0.000 C 
ATOM     16  C   UNL     1       2.356   1.978   1.687  0.00  0.00    +0.000 C 
ATOM     17  C   UNL     1       2.966   2.563   2.958  0.00  0.00    +0.000 C 
ATOM     18  C   UNL     1       4.483   2.645   2.857  0.00  0.00    +0.000 C 
ATOM     19  C   UNL     1       5.079   1.270   2.588  0.00  0.00    +0.000 C 
ATOM     20  C   UNL     1       4.501   0.658   1.316  0.00  0.00    +0.000 C 
ENDBRANCH  14  15
ENDBRANCH  12  14
ENDBRANCH   1  12
TORSDOF 4
