REMARK  Name = 
REMARK  9 active torsions:
REMARK  status: ('A' for Active; 'I' for Inactive)
REMARK    1  A    between atoms: C_1  and  O_2
REMARK    2  A    between atoms: O_2  and  C_3
REMARK    3  A    between atoms: C_5  and  C_6
REMARK    4  A    between atoms: C_6  and  N_7
REMARK    5  A    between atoms: C_8  and  C_10
REMARK    6  A    between atoms: C_22  and  C_23
REMARK    7  A    between atoms: C_23  and  N_24
REMARK    8  A    between atoms: C_25  and  C_27
REMARK    9  A    between atoms: C_29  and  C_30
REMARK                            x       y       z     vdW  Elec       q    Type
REMARK                         _______ _______ _______ _____ _____    ______ ____
ROOT
ATOM      1  C   UNL     1       3.005  -0.763  -0.850  0.00  0.00    +0.000 A 
ATOM      2  C   UNL     1       2.739  -0.980  -2.211  0.00  0.00    +0.000 A 
ATOM      3  C   UNL     1       3.491  -1.892  -2.962  0.00  0.00    +0.000 A 
ATOM      4  C   UNL     1       4.535  -2.577  -2.333  0.00  0.00    +0.000 A 
ATOM      5  C   UNL     1       4.775  -2.401  -0.966  0.00  0.00    +0.000 A 
ATOM      6  C   UNL     1       4.008  -1.503  -0.202  0.00  0.00    +0.000 A 
ENDROOT
BRANCH   1   8
ATOM      7  C   UNL     1       1.930   1.331  -0.762  0.00  0.00    +0.000 C 
ATOM      8  O   UNL     1       2.269   0.114  -0.094  0.00  0.00    +0.000 OA
ENDBRANCH   1   8
BRANCH   3   9
ATOM      9  C   UNL     1       3.201  -2.085  -4.430  0.00  0.00    +0.000 C 
BRANCH   9  10
ATOM     10  N   UNL     1       3.946  -1.143  -5.225  0.00  0.00    +0.000 N 
ATOM     11  C   UNL     1       3.761  -1.035  -6.579  0.00  0.00    +0.000 C 
ATOM     12  O   UNL     1       2.917  -1.699  -7.175  0.00  0.00    +0.000 OA
ATOM     13  H   UNL     1       4.783  -0.753  -4.804  0.00  0.00    +0.000 HD
BRANCH  11  14
ATOM     14  C   UNL     1       4.583  -0.034  -7.274  0.00  0.00    +0.000 A 
ATOM     15  C   UNL     1       4.168   0.466  -8.501  0.00  0.00    +0.000 A 
ATOM     16  S   UNL     1       5.208   1.655  -9.143  0.00  0.00    +0.000 S 
ATOM     17  C   UNL     1       6.277   1.509  -7.827  0.00  0.00    +0.000 A 
ATOM     18  N   UNL     1       7.414   2.251  -7.767  0.00  0.00    +0.000 NA
ATOM     19  C   UNL     1       8.147   2.022  -6.728  0.00  0.00    +0.000 A 
ATOM     20  N   UNL     1       7.841   1.120  -5.743  0.00  0.00    +0.000 N 
ATOM     21  C   UNL     1       6.692   0.367  -5.750  0.00  0.00    +0.000 A 
ATOM     22  O   UNL     1       6.431  -0.403  -4.829  0.00  0.00    +0.000 OA
ATOM     23  C   UNL     1       5.838   0.579  -6.904  0.00  0.00    +0.000 A 
ATOM     24  H   UNL     1       8.454   0.991  -4.951  0.00  0.00    +0.000 HD
ENDBRANCH  11  14
ENDBRANCH   9  10
ENDBRANCH   3   9
BRANCH   6  25
ATOM     25  C   UNL     1       4.258  -1.398   1.287  0.00  0.00    +0.000 C 
BRANCH  25  26
ATOM     26  N   UNL     1       3.469  -2.368   2.014  0.00  0.00    +0.000 N 
ATOM     27  C   UNL     1       3.621  -2.585   3.363  0.00  0.00    +0.000 C 
ATOM     28  O   UNL     1       4.452  -1.999   4.046  0.00  0.00    +0.000 OA
ATOM     29  H   UNL     1       2.630  -2.700   1.562  0.00  0.00    +0.000 HD
BRANCH  27  30
ATOM     30  C   UNL     1       2.702  -3.562   3.925  0.00  0.00    +0.000 A 
ATOM     31  C   UNL     1       1.796  -4.419   3.317  0.00  0.00    +0.000 A 
ATOM     32  C   UNL     1       1.161  -5.186   4.325  0.00  0.00    +0.000 A 
ATOM     33  C   UNL     1       1.689  -4.790   5.534  0.00  0.00    +0.000 A 
ATOM     34  N   UNL     1       2.622  -3.814   5.283  0.00  0.00    +0.000 N 
ATOM     35  H   UNL     1       3.186  -3.337   5.978  0.00  0.00    +0.000 HD
BRANCH  32  36
ATOM     36  C   UNL     1       0.163  -6.193   4.130  0.00  0.00    +0.000 C 
ATOM     37  N   UNL     1      -0.646  -7.005   3.949  0.00  0.00    +0.000 NA
ENDBRANCH  32  36
ENDBRANCH  27  30
ENDBRANCH  25  26
ENDBRANCH   6  25
TORSDOF 8
