REMARK  Name = 
REMARK  7 active torsions:
REMARK  status: ('A' for Active; 'I' for Inactive)
REMARK    1  A    between atoms: N_1  and  C_2
REMARK    2  A    between atoms: C_2  and  C_3
REMARK    3  A    between atoms: C_2  and  C_24
REMARK    4  A    between atoms: C_3  and  C_4
REMARK    5  A    between atoms: C_7  and  C_8
REMARK    6  A    between atoms: C_8  and  N_9
REMARK    7  A    between atoms: C_10  and  C_12
REMARK                            x       y       z     vdW  Elec       q    Type
REMARK                         _______ _______ _______ _____ _____    ______ ____
ROOT
ATOM      1  C   UNL     1       2.572   1.963  -1.502  0.00  0.00    +0.000 A 
ATOM      2  C   UNL     1       1.967   1.158  -2.478  0.00  0.00    +0.000 A 
ATOM      3  C   UNL     1       1.562   1.701  -3.701  0.00  0.00    +0.000 A 
ATOM      4  C   UNL     1       1.765   3.059  -3.977  0.00  0.00    +0.000 A 
ATOM      5  C   UNL     1       2.341   3.869  -2.990  0.00  0.00    +0.000 A 
ATOM      6  C   UNL     1       2.742   3.327  -1.766  0.00  0.00    +0.000 A 
ENDROOT
BRANCH   1   7
ATOM      7  C   UNL     1       3.018   1.361  -0.185  0.00  0.00    +0.000 C 
BRANCH   7   8
ATOM      8  C   UNL     1       4.540   1.471   0.102  0.00  0.00    +0.000 C 
BRANCH   8   9
ATOM      9  C   UNL     1       4.902   0.894   1.521  0.00  0.00    +0.000 C 
ATOM     10  C   UNL     1       6.388   1.171   1.845  0.00  0.00    +0.000 C 
ATOM     11  C   UNL     1       6.834   0.524   3.152  0.00  0.00    +0.000 C 
ATOM     12  C   UNL     1       6.466  -0.954   3.163  0.00  0.00    +0.000 C 
ATOM     13  C   UNL     1       4.980  -1.134   2.884  0.00  0.00    +0.000 C 
ATOM     14  N   UNL     1       4.608  -0.557   1.593  0.00  0.00    +0.000 NA
ATOM     15  H   UNL     1       3.610  -0.708   1.455  0.00  0.00    +0.000 HD
ENDBRANCH   8   9
BRANCH   8  16
ATOM     16  N   UNL     1       5.333   0.784  -0.937  0.00  0.00    +0.000 NA
ATOM     17  H   UNL     1       4.906   0.920  -1.851  0.00  0.00    +0.000 HD
ATOM     18  H   UNL     1       5.298  -0.218  -0.733  0.00  0.00    +0.000 HD
ENDBRANCH   8  16
ENDBRANCH   7   8
ENDBRANCH   1   7
BRANCH   4  19
ATOM     19  C   UNL     1       1.302   3.658  -5.280  0.00  0.00    +0.000 C 
BRANCH  19  20
ATOM     20  N   UNL     1      -0.056   4.116  -5.161  0.00  0.00    +0.000 N 
ATOM     21  C   UNL     1      -0.757   4.613  -6.227  0.00  0.00    +0.000 C 
ATOM     22  O   UNL     1      -0.284   4.654  -7.359  0.00  0.00    +0.000 OA
ATOM     23  H   UNL     1      -0.380   4.314  -4.221  0.00  0.00    +0.000 HD
BRANCH  21  24
ATOM     24  C   UNL     1      -2.136   5.034  -5.950  0.00  0.00    +0.000 A 
ATOM     25  C   UNL     1      -3.060   5.095  -6.984  0.00  0.00    +0.000 A 
ATOM     26  S   UNL     1      -4.633   5.509  -6.470  0.00  0.00    +0.000 S 
ATOM     27  C   UNL     1      -4.123   5.676  -4.856  0.00  0.00    +0.000 A 
ATOM     28  N   UNL     1      -4.998   6.026  -3.876  0.00  0.00    +0.000 NA
ATOM     29  C   UNL     1      -4.469   6.144  -2.703  0.00  0.00    +0.000 A 
ATOM     30  N   UNL     1      -3.143   5.946  -2.422  0.00  0.00    +0.000 N 
ATOM     31  C   UNL     1      -2.225   5.579  -3.376  0.00  0.00    +0.000 A 
ATOM     32  O   UNL     1      -1.048   5.396  -3.086  0.00  0.00    +0.000 OA
ATOM     33  C   UNL     1      -2.771   5.420  -4.711  0.00  0.00    +0.000 A 
ATOM     34  H   UNL     1      -2.788   6.058  -1.484  0.00  0.00    +0.000 HD
ENDBRANCH  21  24
ENDBRANCH  19  20
ENDBRANCH   4  19
TORSDOF 7
