REMARK  Name = 
REMARK  9 active torsions:
REMARK  status: ('A' for Active; 'I' for Inactive)
REMARK    1  A    between atoms: C_1  and  C_2
REMARK    2  A    between atoms: C_2  and  C_3
REMARK    3  A    between atoms: C_2  and  C_4
REMARK    4  A    between atoms: C_2  and  N_5
REMARK    5  A    between atoms: N_5  and  C_6
REMARK    6  A    between atoms: C_6  and  C_7
REMARK    7  A    between atoms: C_7  and  C_8
REMARK    8  A    between atoms: C_11  and  C_12
REMARK    9  A    between atoms: C_20  and  C_21
REMARK                            x       y       z     vdW  Elec       q    Type
REMARK                         _______ _______ _______ _____ _____    ______ ____
ROOT
ATOM      1  N   UNL     1       2.932  -0.282   1.216  0.00  0.00    +0.000 N 
ATOM      2  C   UNL     1       4.288  -0.412   1.556  0.00  0.00    +0.000 A 
ATOM      3  C   UNL     1       4.788  -0.079   2.830  0.00  0.00    +0.000 A 
ATOM      4  N   UNL     1       6.090  -0.203   3.223  0.00  0.00    +0.000 NA
ATOM      5  C   UNL     1       6.918  -0.688   2.261  0.00  0.00    +0.000 A 
ATOM      6  C   UNL     1       6.464  -1.012   0.999  0.00  0.00    +0.000 A 
ATOM      7  N   UNL     1       5.163  -0.870   0.633  0.00  0.00    +0.000 NA
ENDROOT
BRANCH   5   8
ATOM      8  C   UNL     1       8.355  -0.867   2.595  0.00  0.00    +0.000 C 
ATOM      9  N   UNL     1       8.735  -0.485   3.853  0.00  0.00    +0.000 N 
ATOM     10  O   UNL     1       9.162  -1.334   1.790  0.00  0.00    +0.000 OA
ATOM     11  H   UNL     1       8.050  -0.092   4.489  0.00  0.00    +0.000 HD
ATOM     12  H   UNL     1       9.703  -0.570   4.130  0.00  0.00    +0.000 HD
ENDBRANCH   5   8
BRANCH   1  14
ATOM     13  C   UNL     1       1.073   0.496  -0.358  0.00  0.00    +0.000 C 
ATOM     14  C   UNL     1       2.568   0.135  -0.181  0.00  0.00    +0.000 C 
ATOM     15  C   UNL     1       2.886  -0.968  -1.210  0.00  0.00    +0.000 C 
ATOM     16  C   UNL     1       3.319   1.443  -0.536  0.00  0.00    +0.000 C 
ENDBRANCH   1  14
BRANCH   1  17
ATOM     17  C   UNL     1       1.973  -0.818   2.206  0.00  0.00    +0.000 C 
BRANCH  17  18
ATOM     18  C   UNL     1       1.086  -1.960   1.699  0.00  0.00    +0.000 C 
BRANCH  18  19
ATOM     19  C   UNL     1       0.278  -2.629   2.785  0.00  0.00    +0.000 A 
ATOM     20  C   UNL     1      -0.965  -2.106   3.170  0.00  0.00    +0.000 A 
ATOM     21  C   UNL     1      -1.742  -2.762   4.126  0.00  0.00    +0.000 A 
ATOM     22  C   UNL     1      -1.284  -3.949   4.708  0.00  0.00    +0.000 A 
ATOM     23  C   UNL     1      -0.030  -4.457   4.348  0.00  0.00    +0.000 A 
ATOM     24  C   UNL     1       0.746  -3.800   3.390  0.00  0.00    +0.000 A 
BRANCH  22  25
ATOM     25  C   UNL     1      -2.151  -4.626   5.705  0.00  0.00    +0.000 C 
ATOM     26  N   UNL     1      -1.985  -5.973   5.876  0.00  0.00    +0.000 N 
ATOM     27  O   UNL     1      -3.012  -4.018   6.324  0.00  0.00    +0.000 OA
ATOM     28  H   UNL     1      -1.478  -6.545   5.213  0.00  0.00    +0.000 HD
ATOM     29  H   UNL     1      -2.661  -6.433   6.475  0.00  0.00    +0.000 HD
ENDBRANCH  22  25
ENDBRANCH  18  19
ENDBRANCH  17  18
ENDBRANCH   1  17
TORSDOF 6
