REMARK  Name = 
REMARK  12 active torsions:
REMARK  status: ('A' for Active; 'I' for Inactive)
REMARK    1  A    between atoms: C_1  and  C_2
REMARK    2  A    between atoms: C_5  and  C_6
REMARK    3  A    between atoms: C_6  and  O_7
REMARK    4  A    between atoms: O_7  and  C_8
REMARK    5  A    between atoms: C_10  and  C_11
REMARK    6  A    between atoms: C_11  and  C_12
REMARK    7  A    between atoms: C_11  and  C_13
REMARK    8  A    between atoms: C_11  and  C_14
REMARK    9  A    between atoms: C_14  and  O_15
REMARK   10  A    between atoms: O_15  and  C_16
REMARK   11  A    between atoms: CA_19  and  C_20
REMARK   12  A    between atoms: C_20  and  OXT_22
REMARK                            x       y       z     vdW  Elec       q    Type
REMARK                         _______ _______ _______ _____ _____    ______ ____
ROOT
ATOM      1  C   UNL     1       4.984   6.592  -2.584  0.00  0.00    +0.000 C 
ATOM      2  C   UNL     1       4.846   8.011  -3.180  0.00  0.00    +0.000 C 
ATOM      3  C   UNL     1       6.488   6.288  -2.383  0.00  0.00    +0.000 C 
ENDROOT
BRANCH   1   6
ATOM      4  C   UNL     1       3.207   4.831   0.349  0.00  0.00    +0.000 A 
ATOM      5  C   UNL     1       3.768   5.091  -0.898  0.00  0.00    +0.000 A 
ATOM      6  C   UNL     1       4.275   6.376  -1.218  0.00  0.00    +0.000 A 
ATOM      7  C   UNL     1       4.159   7.337  -0.191  0.00  0.00    +0.000 A 
ATOM      8 CL   UNL     1       4.787   8.940  -0.226  0.00  0.00    +0.000 Cl
ATOM      9  C   UNL     1       3.534   6.985   1.010  0.00  0.00    +0.000 A 
ATOM     10  N   UNL     1       3.059   5.759   1.305  0.00  0.00    +0.000 NA
BRANCH   4  11
ATOM     11  O   UNL     1       2.788   3.539   0.598  0.00  0.00    +0.000 OA
BRANCH  11  12
ATOM     12  C   UNL     1       2.721   3.263   2.003  0.00  0.00    +0.000 C 
BRANCH  12  17
ATOM     13  C   UNL     1       2.920  -0.180   0.766  0.00  0.00    +0.000 C 
ATOM     14  C   UNL     1       3.147   0.693   1.979  0.00  0.00    +0.000 C 
ATOM     15  O   UNL     1       2.654   0.063   3.201  0.00  0.00    +0.000 OA
ATOM     16  C   UNL     1       2.138   1.353   3.636  0.00  0.00    +0.000 C 
ATOM     17  C   UNL     1       2.171   1.866   2.189  0.00  0.00    +0.000 C 
ENDBRANCH  12  17
ENDBRANCH  11  12
ENDBRANCH   4  11
ENDBRANCH   1   6
BRANCH   1  18
ATOM     18  C   UNL     1       4.495   5.618  -3.708  0.00  0.00    +0.000 C 
BRANCH  18  19
ATOM     19  O   UNL     1       3.116   5.840  -4.047  0.00  0.00    +0.000 OA
BRANCH  19  20
ATOM     20  C   UNL     1       2.698   4.966  -5.024  0.00  0.00    +0.000 A 
ATOM     21  C   UNL     1       1.623   5.322  -5.837  0.00  0.00    +0.000 A 
ATOM     22  N   UNL     1       1.167   4.529  -6.846  0.00  0.00    +0.000 NA
ATOM     23  CA  UNL     1       1.836   3.344  -6.975  0.00  0.00    +0.000 A 
ATOM     24  C   UNL     1       2.882   2.972  -6.153  0.00  0.00    +0.000 A 
ATOM     25  N   UNL     1       3.334   3.779  -5.161  0.00  0.00    +0.000 NA
BRANCH  23  26
ATOM     26  C   UNL     1       1.408   2.445  -8.076  0.00  0.00    +0.000 C 
ATOM     27  O   UNL     1       1.907   1.358  -8.312  0.00  0.00    +0.000 OA
BRANCH  26  28
ATOM     28  OXT UNL     1       0.404   3.005  -8.787  0.00  0.00    +0.000 OA
ATOM     29  HXT UNL     1       0.177   3.884  -8.402  0.00  0.00    +0.000 HD
ENDBRANCH  26  28
ENDBRANCH  23  26
ENDBRANCH  19  20
ENDBRANCH  18  19
ENDBRANCH   1  18
TORSDOF 9
