REMARK  Name = 
REMARK  4 active torsions:
REMARK  status: ('A' for Active; 'I' for Inactive)
REMARK    1  A    between atoms: N_1  and  C_2
REMARK    2  A    between atoms: C_2  and  C_3
REMARK    3  A    between atoms: C_6  and  C_7
REMARK    4  A    between atoms: C_7  and  C_8
REMARK                            x       y       z     vdW  Elec       q    Type
REMARK                         _______ _______ _______ _____ _____    ______ ____
ROOT
ATOM      1  C   UNL     1       4.033   2.196  -5.301  0.00  0.00    +0.000 C 
ENDROOT
BRANCH   1   2
ATOM      2  C   UNL     1       2.970   3.095  -5.847  0.00  0.00    +0.000 A 
ATOM      3  C   UNL     1       2.713   4.409  -5.515  0.00  0.00    +0.000 A 
ATOM      4  N   UNL     1       1.345   4.424  -5.336  0.00  0.00    +0.000 N 
ATOM      5  C   UNL     1       0.833   3.583  -6.315  0.00  0.00    +0.000 A 
ATOM      6  C   UNL     1      -0.456   3.458  -6.796  0.00  0.00    +0.000 A 
ATOM      7  C   UNL     1      -0.601   2.490  -7.776  0.00  0.00    +0.000 A 
ATOM      8  N   UNL     1       0.385   1.672  -8.218  0.00  0.00    +0.000 NA
ATOM      9  C   UNL     1       1.618   1.775  -7.667  0.00  0.00    +0.000 A 
ATOM     10  C   UNL     1       1.883   2.758  -6.702  0.00  0.00    +0.000 A 
ATOM     11  H   UNL     1       0.889   4.574  -4.455  0.00  0.00    +0.000 HD
ENDBRANCH   1   2
BRANCH   1  15
ATOM     12  C   UNL     1       2.266   1.695  -1.419  0.00  0.00    +0.000 A 
ATOM     13  C   UNL     1       2.029   0.712  -2.385  0.00  0.00    +0.000 A 
ATOM     14  C   UNL     1       2.639   0.827  -3.648  0.00  0.00    +0.000 A 
ATOM     15  C   UNL     1       3.487   1.919  -3.893  0.00  0.00    +0.000 A 
ATOM     16  C   UNL     1       3.688   2.816  -2.854  0.00  0.00    +0.000 A 
ATOM     17  N   UNL     1       3.100   2.734  -1.646  0.00  0.00    +0.000 NA
BRANCH  12  18
ATOM     18  C   UNL     1       1.611   1.613  -0.063  0.00  0.00    +0.000 C 
BRANCH  18  19
ATOM     19  N   UNL     1       2.472   0.954   0.918  0.00  0.00    +0.000 NA
ATOM     20  H   UNL     1       2.107   1.136   1.851  0.00  0.00    +0.000 HD
ATOM     21  H   UNL     1       3.378   1.427   0.878  0.00  0.00    +0.000 HD
ENDBRANCH  18  19
ENDBRANCH  12  18
ENDBRANCH   1  15
TORSDOF 4
