REMARK  Name = 
REMARK  5 active torsions:
REMARK  status: ('A' for Active; 'I' for Inactive)
REMARK    1  A    between atoms: C_2  and  C_4
REMARK    2  A    between atoms: C_7  and  N_8
REMARK    3  A    between atoms: N_8  and  C_9
REMARK    4  A    between atoms: C_9  and  C_10
REMARK    5  A    between atoms: C_12  and  N_13
REMARK                            x       y       z     vdW  Elec       q    Type
REMARK                         _______ _______ _______ _____ _____    ______ ____
ROOT
ATOM      1  N   UNL     1       5.190   2.355   4.431  0.00  0.00    +0.000 N 
ATOM      2  H   UNL     1       6.063   2.044   4.011  0.00  0.00    +0.000 HD
ENDROOT
BRANCH   1   6
ATOM      3  C   UNL     1       2.015   2.519   1.652  0.00  0.00    +0.000 A 
ATOM      4  C   UNL     1       1.737   2.521   3.018  0.00  0.00    +0.000 A 
ATOM      5  C   UNL     1       2.779   2.437   3.948  0.00  0.00    +0.000 A 
ATOM      6  C   UNL     1       4.115   2.322   3.542  0.00  0.00    +0.000 A 
ATOM      7  C   UNL     1       4.376   2.336   2.165  0.00  0.00    +0.000 A 
ATOM      8  C   UNL     1       3.340   2.413   1.224  0.00  0.00    +0.000 A 
BRANCH   3  10
ATOM      9  N   UNL     1      -0.204   3.282   1.002  0.00  0.00    +0.000 N 
ATOM     10  C   UNL     1       0.937   2.618   0.638  0.00  0.00    +0.000 C 
ATOM     11  O   UNL     1       1.069   2.162  -0.491  0.00  0.00    +0.000 OA
ATOM     12  H   UNL     1      -0.885   3.431   0.270  0.00  0.00    +0.000 HD
ATOM     13  H   UNL     1      -0.239   3.893   1.805  0.00  0.00    +0.000 HD
ENDBRANCH   3  10
ENDBRANCH   1   6
BRANCH   1  14
ATOM     14  C   UNL     1       5.058   1.846   5.798  0.00  0.00    +0.000 C 
BRANCH  14  15
ATOM     15  C   UNL     1       6.006   2.584   6.721  0.00  0.00    +0.000 A 
ATOM     16  C   UNL     1       5.860   3.955   6.868  0.00  0.00    +0.000 A 
ATOM     17  C   UNL     1       6.661   4.613   7.780  0.00  0.00    +0.000 A 
ATOM     18  N   UNL     1       7.565   3.920   8.495  0.00  0.00    +0.000 NA
ATOM     19  C   UNL     1       7.655   2.598   8.273  0.00  0.00    +0.000 A 
ATOM     20  N   UNL     1       6.916   1.881   7.418  0.00  0.00    +0.000 NA
BRANCH  17  21
ATOM     21  N   UNL     1       6.517   5.962   8.010  0.00  0.00    +0.000 N 
ATOM     22  C   UNL     1       6.042   6.910   6.998  0.00  0.00    +0.000 C 
ATOM     23  C   UNL     1       7.108   7.989   6.754  0.00  0.00    +0.000 C 
ATOM     24  O   UNL     1       7.484   8.643   7.976  0.00  0.00    +0.000 OA
ATOM     25  C   UNL     1       8.038   7.688   8.899  0.00  0.00    +0.000 C 
ATOM     26  C   UNL     1       7.037   6.574   9.237  0.00  0.00    +0.000 C 
ENDBRANCH  17  21
ENDBRANCH  14  15
ENDBRANCH   1  14
TORSDOF 5
