REMARK  Name = 
REMARK  8 active torsions:
REMARK  status: ('A' for Active; 'I' for Inactive)
REMARK    1  A    between atoms: C_1  and  N_2
REMARK    2  A    between atoms: N_2  and  C_3
REMARK    3  A    between atoms: C_3  and  C_4
REMARK    4  A    between atoms: C_7  and  C_8
REMARK    5  A    between atoms: C_8  and  N_9
REMARK    6  A    between atoms: N_9  and  C_10
REMARK    7  A    between atoms: C_13  and  N_14
REMARK    8  A    between atoms: C_19  and  C_21
REMARK                            x       y       z     vdW  Elec       q    Type
REMARK                         _______ _______ _______ _____ _____    ______ ____
ROOT
ATOM      1  C   UNL     1       2.229  -2.084   1.423  0.00  0.00    +0.000 A 
ATOM      2  C   UNL     1       2.706  -3.395   1.281  0.00  0.00    +0.000 A 
ATOM      3  C   UNL     1       1.974  -4.479   1.775  0.00  0.00    +0.000 A 
ATOM      4  C   UNL     1       0.708  -4.279   2.341  0.00  0.00    +0.000 A 
ATOM      5  C   UNL     1       0.278  -2.959   2.554  0.00  0.00    +0.000 A 
ATOM      6  C   UNL     1       1.045  -1.870   2.128  0.00  0.00    +0.000 A 
ENDROOT
BRANCH   1   7
ATOM      7  C   UNL     1       3.031  -0.931   0.892  0.00  0.00    +0.000 C 
BRANCH   7   9
ATOM      8  C   UNL     1       1.875  -1.110  -1.361  0.00  0.00    +0.000 C 
ATOM      9  N   UNL     1       2.818  -0.444  -0.481  0.00  0.00    +0.000 N 
ATOM     10  C   UNL     1       3.193   0.860  -0.868  0.00  0.00    +0.000 C 
ATOM     11  O   UNL     1       2.788   1.368  -1.904  0.00  0.00    +0.000 OA
BRANCH  10  12
ATOM     12  C   UNL     1       4.127   1.596  -0.006  0.00  0.00    +0.000 A 
ATOM     13  C   UNL     1       5.188   1.018   0.683  0.00  0.00    +0.000 A 
ATOM     14  S   UNL     1       6.120   2.115   1.581  0.00  0.00    +0.000 S 
ATOM     15  C   UNL     1       5.210   3.423   0.998  0.00  0.00    +0.000 A 
ATOM     16  N   UNL     1       5.548   4.694   1.331  0.00  0.00    +0.000 NA
ATOM     17  C   UNL     1       4.806   5.594   0.778  0.00  0.00    +0.000 A 
ATOM     18  N   UNL     1       3.728   5.336  -0.032  0.00  0.00    +0.000 N 
ATOM     19  C   UNL     1       3.269   4.065  -0.278  0.00  0.00    +0.000 A 
ATOM     20  O   UNL     1       2.162   3.881  -0.798  0.00  0.00    +0.000 OA
ATOM     21  C   UNL     1       4.156   3.021   0.201  0.00  0.00    +0.000 A 
ATOM     22  H   UNL     1       3.146   6.085  -0.372  0.00  0.00    +0.000 HD
ENDBRANCH  10  12
ENDBRANCH   7   9
ENDBRANCH   1   7
BRANCH   4  23
ATOM     23  C   UNL     1      -0.251  -5.440   2.559  0.00  0.00    +0.000 C 
BRANCH  23  24
ATOM     24  N   UNL     1       0.252  -6.470   3.468  0.00  0.00    +0.000 NA
ATOM     25  H   UNL     1       0.432  -6.021   4.367  0.00  0.00    +0.000 HD
BRANCH  24  26
ATOM     26  C   UNL     1      -0.677  -7.604   3.683  0.00  0.00    +0.000 C 
ATOM     27  C   UNL     1      -1.007  -8.397   2.401  0.00  0.00    +0.000 C 
ATOM     28  C   UNL     1      -1.837  -9.655   2.670  0.00  0.00    +0.000 C 
ATOM     29  C   UNL     1      -1.117 -10.570   3.658  0.00  0.00    +0.000 C 
ATOM     30  C   UNL     1      -0.834  -9.819   4.963  0.00  0.00    +0.000 C 
ATOM     31  C   UNL     1      -0.020  -8.544   4.715  0.00  0.00    +0.000 C 
BRANCH  29  32
ATOM     32  N   UNL     1      -1.924 -11.764   3.888  0.00  0.00    +0.000 NA
ATOM     33  H   UNL     1      -2.851 -11.506   4.224  0.00  0.00    +0.000 HD
ATOM     34  H   UNL     1      -1.501 -12.337   4.616  0.00  0.00    +0.000 HD
ENDBRANCH  29  32
ENDBRANCH  24  26
ENDBRANCH  23  24
ENDBRANCH   4  23
TORSDOF 7
