REMARK  Name = 
REMARK  5 active torsions:
REMARK  status: ('A' for Active; 'I' for Inactive)
REMARK    1  A    between atoms: C_2  and  C_3
REMARK    2  A    between atoms: C_6  and  N_7
REMARK    3  A    between atoms: N_7  and  C_8
REMARK    4  A    between atoms: C_8  and  C_9
REMARK    5  A    between atoms: C_13  and  C_14
REMARK                            x       y       z     vdW  Elec       q    Type
REMARK                         _______ _______ _______ _____ _____    ______ ____
ROOT
ATOM      1  C   UNL     1       8.650  -0.886  -0.010  0.00  0.00    +0.000 C 
ATOM      2  C   UNL     1       8.862  -1.498  -1.389  0.00  0.00    +0.000 C 
ATOM      3  C   UNL     1       8.904  -2.365  -0.174  0.00  0.00    +0.000 C 
ENDROOT
BRANCH   1   4
ATOM      4  C   UNL     1       9.732  -0.006   0.593  0.00  0.00    +0.000 A 
ATOM      5  C   UNL     1      10.309  -0.276   1.842  0.00  0.00    +0.000 A 
ATOM      6  C   UNL     1      11.128   0.660   2.471  0.00  0.00    +0.000 A 
ATOM      7  C   UNL     1      11.372   1.893   1.865  0.00  0.00    +0.000 A 
ATOM      8  C   UNL     1      10.828   2.208   0.610  0.00  0.00    +0.000 A 
ATOM      9  C   UNL     1      10.052   1.221  -0.020  0.00  0.00    +0.000 A 
BRANCH   8  10
ATOM     10  C   UNL     1      10.961   3.555   0.012  0.00  0.00    +0.000 A 
ATOM     11  C   UNL     1      11.053   3.746  -1.379  0.00  0.00    +0.000 A 
ATOM     12  C   UNL     1      11.111   5.027  -1.937  0.00  0.00    +0.000 A 
ATOM     13  C   UNL     1      11.092   6.147  -1.112  0.00  0.00    +0.000 A 
ATOM     14  C   UNL     1      11.004   5.989   0.266  0.00  0.00    +0.000 A 
ATOM     15  C   UNL     1      10.932   4.708   0.819  0.00  0.00    +0.000 A 
ENDBRANCH   8  10
ENDBRANCH   1   4
BRANCH   1  16
ATOM     16  N   UNL     1       7.310  -0.284   0.130  0.00  0.00    +0.000 N 
ATOM     17  H   UNL     1       7.248   0.641  -0.296  0.00  0.00    +0.000 HD
BRANCH  16  21
ATOM     18  C   UNL     1       4.689  -0.588   3.287  0.00  0.00    +0.000 A 
ATOM     19  N   UNL     1       5.804  -1.342   3.372  0.00  0.00    +0.000 NA
ATOM     20  C   UNL     1       6.681  -1.208   2.349  0.00  0.00    +0.000 A 
ATOM     21  C   UNL     1       6.506  -0.358   1.274  0.00  0.00    +0.000 A 
ATOM     22  C   UNL     1       5.316   0.357   1.319  0.00  0.00    +0.000 A 
ATOM     23  N   UNL     1       4.400   0.280   2.301  0.00  0.00    +0.000 NA
BRANCH  18  25
ATOM     24  N   UNL     1       2.884  -0.880   5.132  0.00  0.00    +0.000 NA
ATOM     25  C   UNL     1       3.702  -0.750   4.314  0.00  0.00    +0.000 C 
ENDBRANCH  18  25
ENDBRANCH  16  21
ENDBRANCH   1  16
TORSDOF 5
