REMARK  Name = 
REMARK  9 active torsions:
REMARK  status: ('A' for Active; 'I' for Inactive)
REMARK    1  A    between atoms: C_2  and  C_21
REMARK    2  A    between atoms: N_3  and  C_4
REMARK    3  A    between atoms: C_4  and  C_5
REMARK    4  A    between atoms: C_8  and  C_9
REMARK    5  A    between atoms: C_9  and  N_10
REMARK    6  A    between atoms: N_10  and  CA_11
REMARK    7  A    between atoms: CA_11  and  C_12
REMARK    8  A    between atoms: CA_11  and  C_14
REMARK    9  A    between atoms: C_12  and  O_13
REMARK                            x       y       z     vdW  Elec       q    Type
REMARK                         _______ _______ _______ _____ _____    ______ ____
ROOT
ATOM      1  C   UNL     1       6.536   8.926  -9.908  0.00  0.00    +0.000 A 
ATOM      2  C   UNL     1       7.017   7.951  -9.031  0.00  0.00    +0.000 A 
ATOM      3  C   UNL     1       6.837   8.109  -7.659  0.00  0.00    +0.000 A 
ATOM      4  C   UNL     1       6.198   9.254  -7.193  0.00  0.00    +0.000 A 
ATOM      5  N   UNL     1       5.748  10.227  -8.026  0.00  0.00    +0.000 NA
ATOM      6  C   UNL     1       5.927  10.043  -9.355  0.00  0.00    +0.000 A 
ENDROOT
BRANCH   1   7
ATOM      7  C   UNL     1       6.700   8.805 -11.398  0.00  0.00    +0.000 C 
BRANCH   7  10
ATOM      8  O   UNL     1       7.129  11.389 -12.424  0.00  0.00    +0.000 OA
ATOM      9  C   UNL     1       8.093  10.641 -12.284  0.00  0.00    +0.000 C 
ATOM     10  N   UNL     1       7.960   9.350 -11.831  0.00  0.00    +0.000 N 
ATOM     11  H   UNL     1       8.791   8.837 -11.558  0.00  0.00    +0.000 HD
BRANCH   9  12
ATOM     12  C   UNL     1       9.453  11.061 -12.646  0.00  0.00    +0.000 A 
ATOM     13  C   UNL     1       9.637  12.097 -13.549  0.00  0.00    +0.000 A 
ATOM     14  S   UNL     1      11.277  12.433 -13.881  0.00  0.00    +0.000 S 
ATOM     15  C   UNL     1      11.800  11.238 -12.789  0.00  0.00    +0.000 A 
ATOM     16  N   UNL     1      13.125  11.020 -12.572  0.00  0.00    +0.000 NA
ATOM     17  C   UNL     1      13.379  10.120 -11.682  0.00  0.00    +0.000 A 
ATOM     18  N   UNL     1      12.429   9.408 -10.998  0.00  0.00    +0.000 N 
ATOM     19  C   UNL     1      11.083   9.534 -11.246  0.00  0.00    +0.000 A 
ATOM     20  O   UNL     1      10.267   8.781 -10.724  0.00  0.00    +0.000 OA
ATOM     21  C   UNL     1      10.739  10.573 -12.200  0.00  0.00    +0.000 A 
ATOM     22  H   UNL     1      12.695   8.694 -10.336  0.00  0.00    +0.000 HD
ENDBRANCH   9  12
ENDBRANCH   7  10
ENDBRANCH   1   7
BRANCH   4  23
ATOM     23  C   UNL     1       5.949   9.456  -5.713  0.00  0.00    +0.000 C 
BRANCH  23  24
ATOM     24  N   UNL     1       7.179   9.572  -4.922  0.00  0.00    +0.000 NA
ATOM     25  H   UNL     1       7.766  10.324  -5.279  0.00  0.00    +0.000 HD
BRANCH  24  26
ATOM     26  CA  UNL     1       6.896   9.791  -3.485  0.00  0.00    +0.000 C 
BRANCH  26  27
ATOM     27  C   UNL     1       8.227   9.860  -2.725  0.00  0.00    +0.000 C 
ATOM     28  N   UNL     1       8.492   9.045  -1.736  0.00  0.00    +0.000 NA
ATOM     29  C   UNL     1       9.784   9.536  -1.182  0.00  0.00    +0.000 C 
ATOM     30  C   UNL     1      10.198  10.765  -1.999  0.00  0.00    +0.000 C 
ATOM     31  N   UNL     1       9.169  10.825  -3.009  0.00  0.00    +0.000 N 
ATOM     32  H   UNL     1       8.767  11.743  -3.204  0.00  0.00    +0.000 HD
ENDBRANCH  26  27
BRANCH  26  33
ATOM     33  C   UNL     1       6.118  11.084  -3.161  0.00  0.00    +0.000 C 
BRANCH  33  34
ATOM     34  O   UNL     1       6.764  12.238  -3.716  0.00  0.00    +0.000 OA
ATOM     35  H   UNL     1       6.712  12.148  -4.685  0.00  0.00    +0.000 HD
ENDBRANCH  33  34
ENDBRANCH  26  33
ENDBRANCH  24  26
ENDBRANCH  23  24
ENDBRANCH   4  23
TORSDOF 9
