REMARK  Name = 
REMARK  8 active torsions:
REMARK  status: ('A' for Active; 'I' for Inactive)
REMARK    1  A    between atoms: C_1  and  C_2
REMARK    2  A    between atoms: C_2  and  N_3
REMARK    3  A    between atoms: C_2  and  C_25
REMARK    4  A    between atoms: N_3  and  C_4
REMARK    5  A    between atoms: C_4  and  C_5
REMARK    6  A    between atoms: C_8  and  C_9
REMARK    7  A    between atoms: C_9  and  N_10
REMARK    8  A    between atoms: C_11  and  C_13
REMARK                            x       y       z     vdW  Elec       q    Type
REMARK                         _______ _______ _______ _____ _____    ______ ____
ROOT
ATOM      1  C   UNL     1       2.968  -3.085  -1.945  0.00  0.00    +0.000 A 
ATOM      2  C   UNL     1       3.792  -2.608  -2.975  0.00  0.00    +0.000 A 
ATOM      3  C   UNL     1       4.166  -3.444  -4.034  0.00  0.00    +0.000 A 
ATOM      4  C   UNL     1       3.722  -4.771  -4.087  0.00  0.00    +0.000 A 
ATOM      5  C   UNL     1       2.949  -5.264  -3.029  0.00  0.00    +0.000 A 
ATOM      6  C   UNL     1       2.568  -4.428  -1.977  0.00  0.00    +0.000 A 
ENDROOT
BRANCH   1   7
ATOM      7  C   UNL     1       2.515  -2.183  -0.816  0.00  0.00    +0.000 C 
BRANCH   7   8
ATOM      8  N   UNL     1       1.633  -1.121  -1.297  0.00  0.00    +0.000 NA
ATOM      9  H   UNL     1       2.138  -0.563  -1.985  0.00  0.00    +0.000 HD
BRANCH   8  11
ATOM     10  C   UNL     1       0.237  -0.920   0.765  0.00  0.00    +0.000 C 
ATOM     11  C   UNL     1       1.164  -0.216  -0.235  0.00  0.00    +0.000 C 
BRANCH  11  12
ATOM     12  C   UNL     1       0.455   0.981  -0.863  0.00  0.00    +0.000 A 
ATOM     13  C   UNL     1       0.949   2.281  -0.674  0.00  0.00    +0.000 A 
ATOM     14  C   UNL     1       0.316   3.378  -1.265  0.00  0.00    +0.000 A 
ATOM     15  C   UNL     1      -0.819   3.192  -2.052  0.00  0.00    +0.000 A 
ATOM     16  C   UNL     1      -1.324   1.909  -2.246  0.00  0.00    +0.000 A 
ATOM     17  C   UNL     1      -0.692   0.812  -1.658  0.00  0.00    +0.000 A 
ENDBRANCH  11  12
ENDBRANCH   8  11
ENDBRANCH   7   8
ENDBRANCH   1   7
BRANCH   4  18
ATOM     18  C   UNL     1       4.094  -5.672  -5.236  0.00  0.00    +0.000 C 
BRANCH  18  19
ATOM     19  N   UNL     1       5.327  -6.364  -4.965  0.00  0.00    +0.000 N 
ATOM     20  C   UNL     1       5.909  -7.188  -5.892  0.00  0.00    +0.000 C 
ATOM     21  O   UNL     1       5.442  -7.340  -7.017  0.00  0.00    +0.000 OA
ATOM     22  H   UNL     1       5.590  -6.448  -3.989  0.00  0.00    +0.000 HD
BRANCH  20  23
ATOM     23  C   UNL     1       7.168  -7.826  -5.487  0.00  0.00    +0.000 A 
ATOM     24  C   UNL     1       8.062  -8.265  -6.455  0.00  0.00    +0.000 A 
ATOM     25  S   UNL     1       9.509  -8.898  -5.810  0.00  0.00    +0.000 S 
ATOM     26  C   UNL     1       8.968  -8.661  -4.211  0.00  0.00    +0.000 A 
ATOM     27  N   UNL     1       9.746  -9.005  -3.153  0.00  0.00    +0.000 NA
ATOM     28  C   UNL     1       9.197  -8.795  -2.001  0.00  0.00    +0.000 A 
ATOM     29  N   UNL     1       7.941  -8.279  -1.815  0.00  0.00    +0.000 N 
ATOM     30  C   UNL     1       7.130  -7.899  -2.856  0.00  0.00    +0.000 A 
ATOM     31  O   UNL     1       6.020  -7.418  -2.653  0.00  0.00    +0.000 OA
ATOM     32  C   UNL     1       7.701  -8.103  -4.174  0.00  0.00    +0.000 A 
ATOM     33  H   UNL     1       7.569  -8.142  -0.887  0.00  0.00    +0.000 HD
ENDBRANCH  20  23
ENDBRANCH  18  19
ENDBRANCH   4  18
TORSDOF 7
