REMARK  Name = 
REMARK  9 active torsions:
REMARK  status: ('A' for Active; 'I' for Inactive)
REMARK    1  A    between atoms: C_1  and  O_2
REMARK    2  A    between atoms: O_2  and  C_3
REMARK    3  A    between atoms: C_10  and  C_11
REMARK    4  A    between atoms: N_13  and  C_14
REMARK    5  A    between atoms: C_14  and  C_15
REMARK    6  A    between atoms: C_18  and  N_19
REMARK    7  A    between atoms: N_19  and  C_20
REMARK    8  A    between atoms: C_20  and  C_21
REMARK    9  A    between atoms: C_21  and  C_22
REMARK                            x       y       z     vdW  Elec       q    Type
REMARK                         _______ _______ _______ _____ _____    ______ ____
ROOT
ATOM      1  C   UNL     1       3.031  -1.300  -3.152  0.00  0.00    +0.000 C 
ENDROOT
BRANCH   1   2
ATOM      2  C   UNL     1       1.849  -2.092  -2.654  0.00  0.00    +0.000 A 
ATOM      3  C   UNL     1       1.894  -3.489  -2.616  0.00  0.00    +0.000 A 
ATOM      4  C   UNL     1       0.849  -4.222  -2.036  0.00  0.00    +0.000 A 
ATOM      5  C   UNL     1      -0.255  -3.580  -1.468  0.00  0.00    +0.000 A 
ATOM      6  C   UNL     1      -0.338  -2.190  -1.592  0.00  0.00    +0.000 A 
ATOM      7  C   UNL     1       0.698  -1.452  -2.180  0.00  0.00    +0.000 A 
BRANCH   5   8
ATOM      8  N   UNL     1      -1.268  -4.237  -0.762  0.00  0.00    +0.000 N 
ATOM      9  H   UNL     1      -2.158  -4.207  -1.255  0.00  0.00    +0.000 HD
BRANCH   8  10
ATOM     10  C   UNL     1      -0.980  -5.529  -0.132  0.00  0.00    +0.000 C 
BRANCH  10  11
ATOM     11  C   UNL     1       0.022  -5.341   1.011  0.00  0.00    +0.000 C 
BRANCH  11  12
ATOM     12  C   UNL     1       0.309  -6.630   1.724  0.00  0.00    +0.000 A 
ATOM     13  C   UNL     1       0.088  -6.738   3.094  0.00  0.00    +0.000 A 
ATOM     14  C   UNL     1       0.406  -7.933   3.729  0.00  0.00    +0.000 A 
ATOM     15  C   UNL     1       0.939  -8.978   2.987  0.00  0.00    +0.000 A 
ATOM     16  C   UNL     1       1.135  -8.785   1.629  0.00  0.00    +0.000 A 
ATOM     17  N   UNL     1       0.832  -7.639   0.985  0.00  0.00    +0.000 NA
ENDBRANCH  11  12
ENDBRANCH  10  11
ENDBRANCH   8  10
ENDBRANCH   5   8
ENDBRANCH   1   2
BRANCH   1  20
ATOM     18  C   UNL     1       4.033  -0.456  -5.226  0.00  0.00    +0.000 C 
ATOM     19  O   UNL     1       5.032  -0.058  -4.634  0.00  0.00    +0.000 OA
ATOM     20  N   UNL     1       3.020  -1.125  -4.582  0.00  0.00    +0.000 N 
ATOM     21  H   UNL     1       2.153  -1.318  -5.072  0.00  0.00    +0.000 HD
BRANCH  18  29
ATOM     22  C   UNL     1       1.311  -0.268  -7.246  0.00  0.00    +0.000 A 
ATOM     23  N   UNL     1       0.417  -0.224  -8.255  0.00  0.00    +0.000 NA
ATOM     24  C   UNL     1       0.881  -0.126  -9.504  0.00  0.00    +0.000 A 
ATOM     25  N   UNL     1       2.155  -0.061  -9.885  0.00  0.00    +0.000 NA
ATOM     26  C   UNL     1       3.013  -0.120  -8.852  0.00  0.00    +0.000 A 
ATOM     27  S   UNL     1       4.685  -0.027  -9.132  0.00  0.00    +0.000 S 
ATOM     28  C   UNL     1       5.023  -0.153  -7.468  0.00  0.00    +0.000 A 
ATOM     29  C   UNL     1       3.888  -0.296  -6.681  0.00  0.00    +0.000 A 
ATOM     30  C   UNL     1       2.691  -0.243  -7.506  0.00  0.00    +0.000 A 
BRANCH  22  32
ATOM     31  C   UNL     1      -0.567  -0.245  -5.846  0.00  0.00    +0.000 C 
ATOM     32  O   UNL     1       0.852  -0.327  -5.948  0.00  0.00    +0.000 OA
ENDBRANCH  22  32
ENDBRANCH  18  29
ENDBRANCH   1  20
TORSDOF 8
