REMARK  Name = 
REMARK  5 active torsions:
REMARK  status: ('A' for Active; 'I' for Inactive)
REMARK    1  A    between atoms: C_1  and  S_2
REMARK    2  A    between atoms: S_2  and  C_5
REMARK    3  A    between atoms: C_8  and  C_9
REMARK    4  A    between atoms: C_9  and  N_10
REMARK    5  A    between atoms: C_15  and  C_16
REMARK                            x       y       z     vdW  Elec       q    Type
REMARK                         _______ _______ _______ _____ _____    ______ ____
ROOT
ATOM      1  N   UNL     1       4.939   1.072   6.384  0.00  0.00    +0.000 N 
ATOM      2  C   UNL     1       3.903   1.716   7.010  0.00  0.00    +0.000 A 
ATOM      3  N   UNL     1       4.325   2.726   7.734  0.00  0.00    +0.000 NA
ATOM      4  C   UNL     1       5.686   2.740   7.575  0.00  0.00    +0.000 A 
ATOM      5  C   UNL     1       6.624   3.591   8.183  0.00  0.00    +0.000 A 
ATOM      6  C   UNL     1       7.983   3.429   7.883  0.00  0.00    +0.000 A 
ATOM      7  C   UNL     1       8.380   2.452   6.960  0.00  0.00    +0.000 A 
ATOM      8  C   UNL     1       7.455   1.604   6.342  0.00  0.00    +0.000 A 
ATOM      9 CL   UNL     1       8.029   0.471   5.186  0.00  0.00    +0.000 Cl
ATOM     10  C   UNL     1       6.105   1.744   6.691  0.00  0.00    +0.000 A 
ENDROOT
BRANCH   6  11
ATOM     11  C   UNL     1       9.057   4.252   8.509  0.00  0.00    +0.000 C 
ATOM     12  N   UNL     1       8.707   5.208   9.419  0.00  0.00    +0.000 N 
ATOM     13  O   UNL     1      10.234   4.081   8.219  0.00  0.00    +0.000 OA
ATOM     14  H   UNL     1       7.770   5.422   9.718  0.00  0.00    +0.000 HD
ATOM     15  H   UNL     1       9.466   5.741   9.826  0.00  0.00    +0.000 HD
ENDBRANCH   6  11
BRANCH   1  16
ATOM     16  C   UNL     1       4.795  -0.195   5.683  0.00  0.00    +0.000 C 
BRANCH  16  20
ATOM     17  C   UNL     1       3.483   0.066   1.644  0.00  0.00    +0.000 A 
ATOM     18  C   UNL     1       4.273   1.098   2.133  0.00  0.00    +0.000 A 
ATOM     19  C   UNL     1       4.748   1.021   3.440  0.00  0.00    +0.000 A 
ATOM     20  C   UNL     1       4.371  -0.059   4.241  0.00  0.00    +0.000 A 
ATOM     21  N   UNL     1       3.612  -1.077   3.752  0.00  0.00    +0.000 NA
ATOM     22  C   UNL     1       3.177  -0.996   2.470  0.00  0.00    +0.000 A 
BRANCH  17  24
ATOM     23  C   UNL     1       4.074  -0.715  -0.945  0.00  0.00    +0.000 C 
ATOM     24  S   UNL     1       2.837   0.122   0.007  0.00  0.00    +0.000 S 
ATOM     25  O   UNL     1       2.811   1.510  -0.404  0.00  0.00    +0.000 OA
ATOM     26  O   UNL     1       1.629  -0.684  -0.009  0.00  0.00    +0.000 OA
ENDBRANCH  17  24
ENDBRANCH  16  20
ENDBRANCH   1  16
TORSDOF 4
