REMARK  Name = 
REMARK  8 active torsions:
REMARK  status: ('A' for Active; 'I' for Inactive)
REMARK    1  A    between atoms: C_1  and  C_2
REMARK    2  A    between atoms: C_2  and  C_3
REMARK    3  A    between atoms: C_2  and  C_14
REMARK    4  A    between atoms: C_3  and  N_4
REMARK    5  A    between atoms: N_4  and  C_5
REMARK    6  A    between atoms: C_8  and  C_9
REMARK    7  A    between atoms: N_22  and  S_23
REMARK    8  A    between atoms: S_23  and  C_24
REMARK                            x       y       z     vdW  Elec       q    Type
REMARK                         _______ _______ _______ _____ _____    ______ ____
ROOT
ATOM      1  C   UNL     1       3.809  -0.949   0.580  0.00  0.00    +0.000 C 
ATOM      2  C   UNL     1       2.632  -0.159   0.012  0.00  0.00    +0.000 C 
ENDROOT
BRANCH   2   3
ATOM      3  C   UNL     1       3.078   0.686  -1.182  0.00  0.00    +0.000 A 
ATOM      4  C   UNL     1       3.644   0.118  -2.324  0.00  0.00    +0.000 A 
ATOM      5  C   UNL     1       3.949   0.943  -3.400  0.00  0.00    +0.000 A 
ATOM      6  N   UNL     1       3.696   2.272  -3.439  0.00  0.00    +0.000 NA
ATOM      7  C   UNL     1       3.128   2.818  -2.351  0.00  0.00    +0.000 A 
ATOM      8  N   UNL     1       2.684   4.156  -2.334  0.00  0.00    +0.000 N 
ATOM      9  C   UNL     1       3.361   5.006  -3.329  0.00  0.00    +0.000 C 
ATOM     10  C   UNL     1       2.792   6.437  -3.305  0.00  0.00    +0.000 C 
ATOM     11  N   UNL     1       1.305   6.431  -3.414  0.00  0.00    +0.000 NA
ATOM     12  C   UNL     1       0.688   5.637  -2.327  0.00  0.00    +0.000 C 
ATOM     13  C   UNL     1       1.197   4.193  -2.351  0.00  0.00    +0.000 C 
ATOM     14  C   UNL     1       2.869   2.065  -1.211  0.00  0.00    +0.000 A 
BRANCH  11  15
ATOM     15  S   UNL     1       0.572   6.505  -4.917  0.00  0.00    +0.000 S 
ATOM     16  C   UNL     1       0.993   5.001  -5.776  0.00  0.00    +0.000 C 
ATOM     17  O   UNL     1      -0.861   6.496  -4.704  0.00  0.00    +0.000 OA
ATOM     18  O   UNL     1       1.201   7.592  -5.642  0.00  0.00    +0.000 OA
ENDBRANCH  11  15
ENDBRANCH   2   3
BRANCH   2  19
ATOM     19  C   UNL     1       1.950   0.690   1.114  0.00  0.00    +0.000 C 
BRANCH  19  20
ATOM     20  N   UNL     1       1.397  -0.103   2.215  0.00  0.00    +0.000 N 
ATOM     21  H   UNL     1       2.072  -0.756   2.604  0.00  0.00    +0.000 HD
BRANCH  20  22
ATOM     22  C   UNL     1       0.824   0.666   3.253  0.00  0.00    +0.000 A 
ATOM     23  C   UNL     1       0.803   0.164   4.554  0.00  0.00    +0.000 A 
ATOM     24  C   UNL     1       0.236   0.916   5.583  0.00  0.00    +0.000 A 
ATOM     25  C   UNL     1      -0.332   2.143   5.274  0.00  0.00    +0.000 A 
ATOM     26  N   UNL     1      -0.400   2.644   4.015  0.00  0.00    +0.000 NA
ATOM     27  C   UNL     1       0.159   1.880   3.045  0.00  0.00    +0.000 A 
BRANCH  25  28
ATOM     28  C   UNL     1      -0.883   3.011   6.356  0.00  0.00    +0.000 C 
ATOM     29  N   UNL     1      -1.416   4.204   5.946  0.00  0.00    +0.000 N 
ATOM     30  O   UNL     1      -0.850   2.692   7.536  0.00  0.00    +0.000 OA
ATOM     31  H   UNL     1      -1.401   4.448   4.960  0.00  0.00    +0.000 HD
ATOM     32  H   UNL     1      -1.768   4.851   6.632  0.00  0.00    +0.000 HD
ENDBRANCH  25  28
ENDBRANCH  20  22
ENDBRANCH  19  20
ENDBRANCH   2  19
TORSDOF 6
