REMARK  Name = 
REMARK  9 active torsions:
REMARK  status: ('A' for Active; 'I' for Inactive)
REMARK    1  A    between atoms: C_1  and  O_2
REMARK    2  A    between atoms: O_2  and  C_3
REMARK    3  A    between atoms: C_10  and  C_11
REMARK    4  A    between atoms: N_13  and  C_14
REMARK    5  A    between atoms: C_14  and  C_15
REMARK    6  A    between atoms: C_18  and  C_19
REMARK    7  A    between atoms: C_19  and  S_20
REMARK    8  A    between atoms: S_20  and  C_21
REMARK    9  A    between atoms: C_21  and  C_22
REMARK                            x       y       z     vdW  Elec       q    Type
REMARK                         _______ _______ _______ _____ _____    ______ ____
ROOT
ATOM      1  C   UNL     1       2.902   1.402   2.962  0.00  0.00    +0.000 C 
ENDROOT
BRANCH   1   2
ATOM      2  C   UNL     1       1.812   2.302   2.440  0.00  0.00    +0.000 A 
ATOM      3  C   UNL     1       0.562   1.776   2.091  0.00  0.00    +0.000 A 
ATOM      4  C   UNL     1      -0.438   2.603   1.571  0.00  0.00    +0.000 A 
ATOM      5  C   UNL     1      -0.215   3.976   1.393  0.00  0.00    +0.000 A 
ATOM      6  C   UNL     1       1.042   4.497   1.732  0.00  0.00    +0.000 A 
ATOM      7  C   UNL     1       2.045   3.669   2.247  0.00  0.00    +0.000 A 
BRANCH   5   8
ATOM      8  C   UNL     1      -1.267   4.869   0.781  0.00  0.00    +0.000 C 
BRANCH   8   9
ATOM      9  S   UNL     1      -2.876   4.857   1.626  0.00  0.00    +0.000 S 
BRANCH   9  10
ATOM     10  C   UNL     1      -2.401   5.549   3.244  0.00  0.00    +0.000 C 
BRANCH  10  11
ATOM     11  C   UNL     1      -3.603   5.631   4.153  0.00  0.00    +0.000 A 
ATOM     12  C   UNL     1      -3.963   4.541   4.953  0.00  0.00    +0.000 A 
ATOM     13  C   UNL     1      -5.103   4.636   5.738  0.00  0.00    +0.000 A 
ATOM     14  N   UNL     1      -5.898   5.726   5.781  0.00  0.00    +0.000 NA
ATOM     15  C   UNL     1      -5.540   6.765   4.996  0.00  0.00    +0.000 A 
ATOM     16  C   UNL     1      -4.418   6.767   4.178  0.00  0.00    +0.000 A 
ENDBRANCH  10  11
ENDBRANCH   9  10
ENDBRANCH   8   9
ENDBRANCH   5   8
ENDBRANCH   1   2
BRANCH   1  19
ATOM     17  C   UNL     1       4.695  -0.045   2.124  0.00  0.00    +0.000 C 
ATOM     18  O   UNL     1       4.962  -0.404   3.272  0.00  0.00    +0.000 OA
ATOM     19  N   UNL     1       3.689   0.851   1.885  0.00  0.00    +0.000 N 
ATOM     20  H   UNL     1       3.502   1.171   0.944  0.00  0.00    +0.000 HD
BRANCH  17  28
ATOM     21  C   UNL     1       4.398   0.354  -1.288  0.00  0.00    +0.000 A 
ATOM     22  N   UNL     1       4.525   0.344  -2.631  0.00  0.00    +0.000 NA
ATOM     23  C   UNL     1       5.512  -0.379  -3.166  0.00  0.00    +0.000 A 
ATOM     24  N   UNL     1       6.408  -1.113  -2.513  0.00  0.00    +0.000 NA
ATOM     25  C   UNL     1       6.252  -1.070  -1.179  0.00  0.00    +0.000 A 
ATOM     26  S   UNL     1       7.306  -1.957  -0.189  0.00  0.00    +0.000 S 
ATOM     27  C   UNL     1       6.515  -1.422   1.215  0.00  0.00    +0.000 A 
ATOM     28  C   UNL     1       5.450  -0.561   0.971  0.00  0.00    +0.000 A 
ATOM     29  C   UNL     1       5.288  -0.360  -0.467  0.00  0.00    +0.000 A 
BRANCH  21  31
ATOM     30  C   UNL     1       2.287   1.296  -1.623  0.00  0.00    +0.000 C 
ATOM     31  O   UNL     1       3.397   1.130  -0.740  0.00  0.00    +0.000 OA
ENDBRANCH  21  31
ENDBRANCH  17  28
ENDBRANCH   1  19
TORSDOF 8
