REMARK  Name = 
REMARK  3 active torsions:
REMARK  status: ('A' for Active; 'I' for Inactive)
REMARK    1  A    between atoms: C_3  and  N_4
REMARK    2  A    between atoms: N_4  and  C_5
REMARK    3  A    between atoms: C_5  and  C_6
REMARK                            x       y       z     vdW  Elec       q    Type
REMARK                         _______ _______ _______ _____ _____    ______ ____
ROOT
ATOM      1  C   UNL     1       1.511   0.013  -0.063  0.00  0.00    +0.000 A 
ATOM      2  C   UNL     1       0.777   1.185  -0.120  0.00  0.00    +0.000 A 
ATOM      3  C   UNL     1      -0.613   1.130  -0.106  0.00  0.00    +0.000 A 
ATOM      4  N   UNL     1      -1.271  -0.054  -0.031  0.00  0.00    +0.000 NA
ATOM      5  C   UNL     1      -0.560  -1.212  -0.009  0.00  0.00    +0.000 A 
ATOM      6  N   UNL     1      -1.205  -2.430   0.109  0.00  0.00    +0.000 N 
ATOM      7  C   UNL     1      -2.548  -2.505   0.676  0.00  0.00    +0.000 C 
ATOM      8  C   UNL     1      -2.632  -3.804   1.524  0.00  0.00    +0.000 C 
ATOM      9  N   UNL     1      -2.279  -5.039   0.778  0.00  0.00    +0.000 NA
ATOM     10  C   UNL     1      -0.945  -4.868   0.158  0.00  0.00    +0.000 C 
ATOM     11  C   UNL     1      -0.816  -3.587  -0.700  0.00  0.00    +0.000 C 
ATOM     12  C   UNL     1       0.831  -1.190  -0.015  0.00  0.00    +0.000 A 
ATOM     13  H   UNL     1      -2.961  -5.152   0.029  0.00  0.00    +0.000 HD
ENDROOT
BRANCH   3  14
ATOM     14  N   UNL     1      -1.385   2.270  -0.163  0.00  0.00    +0.000 N 
ATOM     15  H   UNL     1      -2.382   2.107  -0.115  0.00  0.00    +0.000 HD
BRANCH  14  16
ATOM     16  C   UNL     1      -0.834   3.603  -0.324  0.00  0.00    +0.000 C 
BRANCH  16  17
ATOM     17  C   UNL     1      -1.917   4.684  -0.490  0.00  0.00    +0.000 C 
ATOM     18  C   UNL     1      -2.726   4.494  -1.782  0.00  0.00    +0.000 C 
ATOM     19  C   UNL     1      -3.741   5.617  -1.986  0.00  0.00    +0.000 C 
ATOM     20  C   UNL     1      -3.079   6.992  -1.963  0.00  0.00    +0.000 C 
ATOM     21  C   UNL     1      -2.267   7.198  -0.691  0.00  0.00    +0.000 C 
ATOM     22  C   UNL     1      -1.252   6.077  -0.485  0.00  0.00    +0.000 C 
ENDBRANCH  16  17
ENDBRANCH  14  16
ENDBRANCH   3  14
TORSDOF 3
