REMARK  Name = 
REMARK  3 active torsions:
REMARK  status: ('A' for Active; 'I' for Inactive)
REMARK    1  A    between atoms: C_2  and  C_4
REMARK    2  A    between atoms: N_8  and  C_9
REMARK    3  A    between atoms: C_9  and  C_10
REMARK                            x       y       z     vdW  Elec       q    Type
REMARK                         _______ _______ _______ _____ _____    ______ ____
ROOT
ATOM      1  C   UNL     1       3.572   3.666  -0.685  0.00  0.00    +0.000 A 
ATOM      2  C   UNL     1       2.788   3.897   0.441  0.00  0.00    +0.000 A 
ATOM      3  C   UNL     1       3.357   3.789   1.710  0.00  0.00    +0.000 A 
ATOM      4  C   UNL     1       4.703   3.482   1.837  0.00  0.00    +0.000 A 
ATOM      5  N   UNL     1       5.326   3.284   3.073  0.00  0.00    +0.000 N 
ATOM      6  N   UNL     1       5.475   3.252   0.749  0.00  0.00    +0.000 NA
ATOM      7  C   UNL     1       4.901   3.332  -0.484  0.00  0.00    +0.000 A 
ATOM      8  H   UNL     1       6.307   3.109   2.865  0.00  0.00    +0.000 HD
ENDROOT
BRANCH   1  10
ATOM      9  N   UNL     1       1.915   4.517  -2.228  0.00  0.00    +0.000 N 
ATOM     10  C   UNL     1       2.997   3.697  -2.046  0.00  0.00    +0.000 C 
ATOM     11  O   UNL     1       3.462   3.031  -2.953  0.00  0.00    +0.000 OA
ATOM     12  H   UNL     1       1.511   4.551  -3.158  0.00  0.00    +0.000 HD
ATOM     13  H   UNL     1       1.638   5.228  -1.567  0.00  0.00    +0.000 HD
ENDBRANCH   1  10
BRANCH   5  14
ATOM     14  C   UNL     1       5.044   4.022   4.317  0.00  0.00    +0.000 C 
ATOM     15  C   UNL     1       4.919   3.116   5.543  0.00  0.00    +0.000 C 
ATOM     16  C   UNL     1       3.750   3.935   5.112  0.00  0.00    +0.000 C 
BRANCH  14  17
ATOM     17  C   UNL     1       5.797   5.339   4.461  0.00  0.00    +0.000 A 
ATOM     18  C   UNL     1       5.239   6.540   4.003  0.00  0.00    +0.000 A 
ATOM     19  C   UNL     1       5.897   7.736   4.243  0.00  0.00    +0.000 A 
ATOM     20  N   UNL     1       7.078   7.823   4.888  0.00  0.00    +0.000 NA
ATOM     21  C   UNL     1       7.624   6.662   5.301  0.00  0.00    +0.000 A 
ATOM     22  C   UNL     1       7.036   5.421   5.110  0.00  0.00    +0.000 A 
ENDBRANCH  14  17
ENDBRANCH   5  14
TORSDOF 3
