REMARK  Name = 
REMARK  10 active torsions:
REMARK  status: ('A' for Active; 'I' for Inactive)
REMARK    1  A    between atoms: C_1  and  O_2
REMARK    2  A    between atoms: O_2  and  C_3
REMARK    3  A    between atoms: C_10  and  C_11
REMARK    4  A    between atoms: N_13  and  C_14
REMARK    5  A    between atoms: C_14  and  C_15
REMARK    6  A    between atoms: C_18  and  C_19
REMARK    7  A    between atoms: C_19  and  N_20
REMARK    8  A    between atoms: N_20  and  C_21
REMARK    9  A    between atoms: C_21  and  C_22
REMARK   10  A    between atoms: C_21  and  C_23
REMARK                            x       y       z     vdW  Elec       q    Type
REMARK                         _______ _______ _______ _____ _____    ______ ____
ROOT
ATOM      1  C   UNL     1      -2.014   4.166  -9.362  0.00  0.00    +0.000 A 
ATOM      2  C   UNL     1      -3.225   3.680  -8.853  0.00  0.00    +0.000 A 
ATOM      3  C   UNL     1      -3.253   2.902  -7.688  0.00  0.00    +0.000 A 
ATOM      4  C   UNL     1      -2.073   2.594  -6.997  0.00  0.00    +0.000 A 
ATOM      5  C   UNL     1      -0.875   3.164  -7.458  0.00  0.00    +0.000 A 
ATOM      6  C   UNL     1      -0.844   3.939  -8.625  0.00  0.00    +0.000 A 
ENDROOT
BRANCH   1   7
ATOM      7  C   UNL     1      -1.971   4.905 -10.678  0.00  0.00    +0.000 C 
BRANCH   7  10
ATOM      8  C   UNL     1      -2.101   7.198 -11.567  0.00  0.00    +0.000 C 
ATOM      9  O   UNL     1      -1.987   6.798 -12.722  0.00  0.00    +0.000 OA
ATOM     10  N   UNL     1      -2.103   6.325 -10.508  0.00  0.00    +0.000 N 
ATOM     11  H   UNL     1      -2.204   6.673  -9.564  0.00  0.00    +0.000 HD
BRANCH   8  19
ATOM     12  C   UNL     1      -2.519   8.964  -8.643  0.00  0.00    +0.000 A 
ATOM     13  N   UNL     1      -2.612   9.882  -7.662  0.00  0.00    +0.000 NA
ATOM     14  C   UNL     1      -2.608  11.172  -8.011  0.00  0.00    +0.000 A 
ATOM     15  N   UNL     1      -2.530  11.670  -9.242  0.00  0.00    +0.000 NA
ATOM     16  C   UNL     1      -2.423  10.720 -10.187  0.00  0.00    +0.000 A 
ATOM     17  S   UNL     1      -2.325  11.169 -11.821  0.00  0.00    +0.000 S 
ATOM     18  C   UNL     1      -2.203   9.545 -12.311  0.00  0.00    +0.000 A 
ATOM     19  C   UNL     1      -2.230   8.634 -11.260  0.00  0.00    +0.000 A 
ATOM     20  C   UNL     1      -2.388   9.343  -9.990  0.00  0.00    +0.000 A 
BRANCH  12  22
ATOM     21  C   UNL     1      -3.217   7.381  -7.066  0.00  0.00    +0.000 C 
ATOM     22  O   UNL     1      -2.528   7.633  -8.288  0.00  0.00    +0.000 OA
ENDBRANCH  12  22
ENDBRANCH   8  19
ENDBRANCH   7  10
ENDBRANCH   1   7
BRANCH   4  23
ATOM     23  C   UNL     1      -2.063   1.717  -5.756  0.00  0.00    +0.000 C 
BRANCH  23  24
ATOM     24  N   UNL     1      -3.103   0.687  -5.773  0.00  0.00    +0.000 NA
ATOM     25  H   UNL     1      -2.970   0.093  -6.589  0.00  0.00    +0.000 HD
BRANCH  24  26
ATOM     26  C   UNL     1      -3.169  -0.142  -4.559  0.00  0.00    +0.000 C 
ATOM     27  C   UNL     1      -1.860  -0.864  -4.207  0.00  0.00    +0.000 C 
BRANCH  26  28
ATOM     28  C   UNL     1      -4.310  -1.148  -4.694  0.00  0.00    +0.000 A 
ATOM     29  C   UNL     1      -5.462  -1.019  -3.900  0.00  0.00    +0.000 A 
ATOM     30  C   UNL     1      -6.533  -1.906  -4.044  0.00  0.00    +0.000 A 
ATOM     31  C   UNL     1      -6.471  -2.934  -4.982  0.00  0.00    +0.000 A 
ATOM     32  C   UNL     1      -5.331  -3.086  -5.767  0.00  0.00    +0.000 A 
ATOM     33  C   UNL     1      -4.259  -2.202  -5.624  0.00  0.00    +0.000 A 
ENDBRANCH  26  28
ENDBRANCH  24  26
ENDBRANCH  23  24
ENDBRANCH   4  23
TORSDOF 8
