REMARK  Name = 
REMARK  5 active torsions:
REMARK  status: ('A' for Active; 'I' for Inactive)
REMARK    1  A    between atoms: C_2  and  C_4
REMARK    2  A    between atoms: C_7  and  O_8
REMARK    3  A    between atoms: O_8  and  C_9
REMARK    4  A    between atoms: C_9  and  C_10
REMARK    5  A    between atoms: C_14  and  C_15
REMARK                            x       y       z     vdW  Elec       q    Type
REMARK                         _______ _______ _______ _____ _____    ______ ____
ROOT
ATOM      1  C   UNL     1       5.500  -4.135   3.992  0.00  0.00    +0.000 C 
ENDROOT
BRANCH   1   2
ATOM      2  C   UNL     1       6.529  -4.622   4.988  0.00  0.00    +0.000 A 
ATOM      3  C   UNL     1       7.387  -3.750   5.662  0.00  0.00    +0.000 A 
ATOM      4  C   UNL     1       8.268  -4.242   6.622  0.00  0.00    +0.000 A 
ATOM      5  C   UNL     1       8.286  -5.607   6.929  0.00  0.00    +0.000 A 
ATOM      6  C   UNL     1       7.416  -6.514   6.300  0.00  0.00    +0.000 A 
ATOM      7  C   UNL     1       6.547  -5.991   5.325  0.00  0.00    +0.000 A 
BRANCH   6   8
ATOM      8  C   UNL     1       7.393  -7.952   6.666  0.00  0.00    +0.000 A 
ATOM      9  C   UNL     1       7.120  -8.957   5.716  0.00  0.00    +0.000 A 
ATOM     10  C   UNL     1       7.089 -10.313   6.067  0.00  0.00    +0.000 A 
ATOM     11  C   UNL     1       7.343 -10.696   7.379  0.00  0.00    +0.000 A 
ATOM     12  C   UNL     1       7.613  -9.721   8.327  0.00  0.00    +0.000 A 
ATOM     13  F   UNL     1       7.858 -10.082   9.594  0.00  0.00    +0.000 F 
ATOM     14  C   UNL     1       7.632  -8.370   7.987  0.00  0.00    +0.000 A 
ENDBRANCH   6   8
ENDBRANCH   1   2
BRANCH   1  15
ATOM     15  O   UNL     1       5.897  -2.917   3.354  0.00  0.00    +0.000 OA
BRANCH  15  19
ATOM     16  C   UNL     1       2.991  -1.457   0.820  0.00  0.00    +0.000 A 
ATOM     17  C   UNL     1       4.183  -0.749   0.985  0.00  0.00    +0.000 A 
ATOM     18  C   UNL     1       5.164  -1.253   1.843  0.00  0.00    +0.000 A 
ATOM     19  C   UNL     1       4.916  -2.450   2.501  0.00  0.00    +0.000 A 
ATOM     20  N   UNL     1       3.774  -3.155   2.355  0.00  0.00    +0.000 NA
ATOM     21  C   UNL     1       2.833  -2.640   1.530  0.00  0.00    +0.000 A 
BRANCH  16  23
ATOM     22  N   UNL     1       2.183  -0.204  -1.099  0.00  0.00    +0.000 N 
ATOM     23  C   UNL     1       1.877  -1.010  -0.039  0.00  0.00    +0.000 C 
ATOM     24  O   UNL     1       0.728  -1.378   0.161  0.00  0.00    +0.000 OA
ATOM     25  H   UNL     1       1.421  -0.006  -1.738  0.00  0.00    +0.000 HD
ATOM     26  H   UNL     1       3.124  -0.095  -1.449  0.00  0.00    +0.000 HD
ENDBRANCH  16  23
ENDBRANCH  15  19
ENDBRANCH   1  15
TORSDOF 5
