REMARK  Name = 
REMARK  14 active torsions:
REMARK  status: ('A' for Active; 'I' for Inactive)
REMARK    1  A    between atoms: C_1  and  C_2
REMARK    2  A    between atoms: C_2  and  C_3
REMARK    3  A    between atoms: C_2  and  C_4
REMARK    4  A    between atoms: C_4  and  N_5
REMARK    5  A    between atoms: C_6  and  C_8
REMARK    6  A    between atoms: C_8  and  O_9
REMARK    7  A    between atoms: O_9  and  C_10
REMARK    8  A    between atoms: C_14  and  C_15
REMARK    9  A    between atoms: C_15  and  C_16
REMARK   10  A    between atoms: C_15  and  C_17
REMARK   11  A    between atoms: C_15  and  C_18
REMARK   12  A    between atoms: C_18  and  N_19
REMARK   13  A    between atoms: N_19  and  C_20
REMARK   14  A    between atoms: C_23  and  C_24
REMARK                            x       y       z     vdW  Elec       q    Type
REMARK                         _______ _______ _______ _____ _____    ______ ____
ROOT
ATOM      1  C   UNL     1       8.602   4.093  -0.500  0.00  0.00    +0.000 A 
ATOM      2  C   UNL     1       9.455   3.300  -1.265  0.00  0.00    +0.000 A 
ATOM      3  C   UNL     1      10.803   3.628  -1.231  0.00  0.00    +0.000 A 
ATOM      4  N   UNL     1      11.326   4.641  -0.517  0.00  0.00    +0.000 NA
ATOM      5  C   UNL     1      10.480   5.414   0.220  0.00  0.00    +0.000 A 
ATOM      6  C   UNL     1       9.123   5.138   0.224  0.00  0.00    +0.000 A 
ENDROOT
BRANCH   5   7
ATOM      7  C   UNL     1      11.096   6.562   1.016  0.00  0.00    +0.000 C 
ATOM      8  C   UNL     1      12.102   5.954   2.024  0.00  0.00    +0.000 C 
ATOM      9  C   UNL     1      11.860   7.492   0.052  0.00  0.00    +0.000 C 
BRANCH   7  10
ATOM     10  C   UNL     1      10.044   7.388   1.822  0.00  0.00    +0.000 C 
BRANCH  10  11
ATOM     11  N   UNL     1       9.035   8.033   0.970  0.00  0.00    +0.000 N 
ATOM     12  H   UNL     1       8.682   7.465   0.206  0.00  0.00    +0.000 HD
BRANCH  11  13
ATOM     13  C   UNL     1       8.016   8.768   1.576  0.00  0.00    +0.000 A 
ATOM     14  C   UNL     1       8.223   9.483   2.759  0.00  0.00    +0.000 A 
ATOM     15  C   UNL     1       7.250  10.347   3.261  0.00  0.00    +0.000 A 
ATOM     16  C   UNL     1       6.045  10.519   2.576  0.00  0.00    +0.000 A 
ATOM     17  C   UNL     1       5.807   9.784   1.412  0.00  0.00    +0.000 A 
ATOM     18  C   UNL     1       6.791   8.926   0.913  0.00  0.00    +0.000 A 
BRANCH  16  19
ATOM     19  C   UNL     1       5.088  11.469   3.037  0.00  0.00    +0.000 C 
ATOM     20  N   UNL     1       4.307  12.268   3.405  0.00  0.00    +0.000 NA
ENDBRANCH  16  19
ENDBRANCH  11  13
ENDBRANCH  10  11
ENDBRANCH   7  10
ENDBRANCH   5   7
BRANCH   1  21
ATOM     21  O   UNL     1       7.247   3.866  -0.515  0.00  0.00    +0.000 OA
BRANCH  21  22
ATOM     22  C   UNL     1       6.570   4.255   0.699  0.00  0.00    +0.000 C 
BRANCH  22  24
ATOM     23  N   UNL     1       5.091   2.520  -0.174  0.00  0.00    +0.000 N 
ATOM     24  C   UNL     1       5.309   3.419   0.841  0.00  0.00    +0.000 C 
ATOM     25  O   UNL     1       4.546   3.542   1.808  0.00  0.00    +0.000 OA
ATOM     26  H   UNL     1       5.779   2.466  -0.922  0.00  0.00    +0.000 HD
BRANCH  23  27
ATOM     27  C   UNL     1       3.928   1.663  -0.180  0.00  0.00    +0.000 C 
BRANCH  27  29
ATOM     28  C   UNL     1       3.038   2.596  -2.344  0.00  0.00    +0.000 C 
ATOM     29  C   UNL     1       2.716   2.296  -0.879  0.00  0.00    +0.000 C 
ATOM     30  C   UNL     1       1.492   1.378  -0.805  0.00  0.00    +0.000 C 
ENDBRANCH  27  29
ENDBRANCH  23  27
ENDBRANCH  22  24
ENDBRANCH  21  22
ENDBRANCH   1  21
TORSDOF 10
