REMARK  Name = 
REMARK  9 active torsions:
REMARK  status: ('A' for Active; 'I' for Inactive)
REMARK    1  A    between atoms: C_1  and  C_2
REMARK    2  A    between atoms: C_2  and  O_3
REMARK    3  A    between atoms: C_5  and  O_6
REMARK    4  A    between atoms: O_6  and  C_7
REMARK    5  A    between atoms: C_11  and  C_12
REMARK    6  A    between atoms: C_12  and  C_13
REMARK    7  A    between atoms: C_13  and  N_14
REMARK    8  A    between atoms: N_14  and  C_15
REMARK    9  A    between atoms: C_18  and  C_19
REMARK                            x       y       z     vdW  Elec       q    Type
REMARK                         _______ _______ _______ _____ _____    ______ ____
ROOT
ATOM      1  C   UNL     1      10.328  -1.041   0.806  0.00  0.00    +0.000 C 
ENDROOT
BRANCH   1   6
ATOM      2  C   UNL     1       6.488  -0.959   0.638  0.00  0.00    +0.000 A 
ATOM      3  C   UNL     1       6.184  -2.314   0.634  0.00  0.00    +0.000 A 
ATOM      4  C   UNL     1       7.210  -3.255   0.754  0.00  0.00    +0.000 A 
ATOM      5  C   UNL     1       8.546  -2.842   0.842  0.00  0.00    +0.000 A 
ATOM      6  C   UNL     1       8.871  -1.480   0.800  0.00  0.00    +0.000 A 
ATOM      7  C   UNL     1       7.817  -0.555   0.716  0.00  0.00    +0.000 A 
BRANCH   2   8
ATOM      8  O   UNL     1       5.444  -0.074   0.525  0.00  0.00    +0.000 OA
BRANCH   8  12
ATOM      9  C   UNL     1       3.760   2.669   3.673  0.00  0.00    +0.000 C 
ATOM     10  C   UNL     1       4.182   1.611   2.665  0.00  0.00    +0.000 C 
ATOM     11  C   UNL     1       5.706   1.329   2.645  0.00  0.00    +0.000 C 
ATOM     12  C   UNL     1       5.613   1.248   1.099  0.00  0.00    +0.000 C 
ATOM     13  C   UNL     1       4.328   2.101   1.201  0.00  0.00    +0.000 C 
BRANCH  10  14
ATOM     14  O   UNL     1       3.332   0.454   2.822  0.00  0.00    +0.000 OA
ATOM     15  H   UNL     1       3.583   0.057   3.673  0.00  0.00    +0.000 HD
ENDBRANCH  10  14
ENDBRANCH   8  12
ENDBRANCH   2   8
ENDBRANCH   1   6
BRANCH   1  16
ATOM     16  C   UNL     1      10.498   0.484   0.759  0.00  0.00    +0.000 C 
BRANCH  16  17
ATOM     17  N   UNL     1      11.891   0.928   0.706  0.00  0.00    +0.000 N 
ATOM     18  H   UNL     1      12.413   0.460  -0.033  0.00  0.00    +0.000 HD
BRANCH  17  19
ATOM     19  C   UNL     1      12.061   2.330   0.644  0.00  0.00    +0.000 A 
ATOM     20  C   UNL     1      11.189   3.237   1.258  0.00  0.00    +0.000 A 
ATOM     21  C   UNL     1      11.440   4.607   1.230  0.00  0.00    +0.000 A 
ATOM     22  C   UNL     1      12.599   5.048   0.612  0.00  0.00    +0.000 A 
ATOM     23  N   UNL     1      13.502   4.214   0.023  0.00  0.00    +0.000 NA
ATOM     24  C   UNL     1      13.213   2.887   0.076  0.00  0.00    +0.000 A 
BRANCH  22  25
ATOM     25  C   UNL     1      12.900   6.511   0.585  0.00  0.00    +0.000 C 
ATOM     26  N   UNL     1      14.068   6.858  -0.038  0.00  0.00    +0.000 N 
ATOM     27  O   UNL     1      12.169   7.346   1.091  0.00  0.00    +0.000 OA
ATOM     28  H   UNL     1      14.658   6.129  -0.426  0.00  0.00    +0.000 HD
ATOM     29  H   UNL     1      14.351   7.823  -0.066  0.00  0.00    +0.000 HD
ENDBRANCH  22  25
ENDBRANCH  17  19
ENDBRANCH  16  17
ENDBRANCH   1  16
TORSDOF 8
