REMARK  Name = 
REMARK  5 active torsions:
REMARK  status: ('A' for Active; 'I' for Inactive)
REMARK    1  A    between atoms: C_2  and  C_4
REMARK    2  A    between atoms: C_7  and  O_8
REMARK    3  A    between atoms: O_8  and  C_9
REMARK    4  A    between atoms: C_9  and  C_10
REMARK    5  A    between atoms: C_14  and  C_15
REMARK                            x       y       z     vdW  Elec       q    Type
REMARK                         _______ _______ _______ _____ _____    ______ ____
ROOT
ATOM      1  C   UNL     1       5.048   3.214   4.960  0.00  0.00    +0.000 C 
ENDROOT
BRANCH   1   2
ATOM      2  C   UNL     1       5.950   4.111   5.780  0.00  0.00    +0.000 A 
ATOM      3  C   UNL     1       5.882   5.504   5.701  0.00  0.00    +0.000 A 
ATOM      4  C   UNL     1       6.664   6.289   6.544  0.00  0.00    +0.000 A 
ATOM      5  C   UNL     1       7.506   5.689   7.486  0.00  0.00    +0.000 A 
ATOM      6  C   UNL     1       7.584   4.291   7.618  0.00  0.00    +0.000 A 
ATOM      7  C   UNL     1       6.797   3.523   6.740  0.00  0.00    +0.000 A 
BRANCH   6   8
ATOM      8  C   UNL     1       8.425   3.658   8.657  0.00  0.00    +0.000 A 
ATOM      9  C   UNL     1       9.075   2.430   8.461  0.00  0.00    +0.000 A 
ATOM     10  C   UNL     1       9.849   1.862   9.475  0.00  0.00    +0.000 A 
ATOM     11  C   UNL     1       9.967   2.542  10.673  0.00  0.00    +0.000 A 
ATOM     12  N   UNL     1       9.364   3.721  10.920  0.00  0.00    +0.000 NA
ATOM     13  C   UNL     1       8.611   4.238   9.916  0.00  0.00    +0.000 A 
ENDBRANCH   6   8
ENDBRANCH   1   2
BRANCH   1  14
ATOM     14  O   UNL     1       4.657   3.826   3.725  0.00  0.00    +0.000 OA
BRANCH  14  18
ATOM     15  C   UNL     1       2.034   1.478   1.585  0.00  0.00    +0.000 A 
ATOM     16  C   UNL     1       2.411   2.725   1.084  0.00  0.00    +0.000 A 
ATOM     17  C   UNL     1       3.299   3.516   1.816  0.00  0.00    +0.000 A 
ATOM     18  C   UNL     1       3.779   3.026   3.023  0.00  0.00    +0.000 A 
ATOM     19  N   UNL     1       3.425   1.825   3.531  0.00  0.00    +0.000 NA
ATOM     20  C   UNL     1       2.552   1.083   2.809  0.00  0.00    +0.000 A 
BRANCH  15  22
ATOM     21  N   UNL     1       1.033   0.643  -0.464  0.00  0.00    +0.000 N 
ATOM     22  C   UNL     1       1.099   0.565   0.899  0.00  0.00    +0.000 C 
ATOM     23  O   UNL     1       0.442  -0.259   1.517  0.00  0.00    +0.000 OA
ATOM     24  H   UNL     1       0.478  -0.070  -0.923  0.00  0.00    +0.000 HD
ATOM     25  H   UNL     1       1.737   1.112  -1.017  0.00  0.00    +0.000 HD
ENDBRANCH  15  22
ENDBRANCH  14  18
ENDBRANCH   1  14
TORSDOF 5
