REMARK  Name = 
REMARK  9 active torsions:
REMARK  status: ('A' for Active; 'I' for Inactive)
REMARK    1  A    between atoms: N_1  and  C_2
REMARK    2  A    between atoms: C_2  and  C_3
REMARK    3  A    between atoms: C_3  and  N_4
REMARK    4  A    between atoms: C_3  and  C_26
REMARK    5  A    between atoms: N_4  and  C_5
REMARK    6  A    between atoms: C_5  and  C_6
REMARK    7  A    between atoms: C_9  and  C_10
REMARK    8  A    between atoms: C_10  and  N_11
REMARK    9  A    between atoms: C_12  and  C_14
REMARK                            x       y       z     vdW  Elec       q    Type
REMARK                         _______ _______ _______ _____ _____    ______ ____
ROOT
ATOM      1  C   UNL     1       0.635   1.578  -3.624  0.00  0.00    +0.000 A 
ATOM      2  C   UNL     1       0.001   1.127  -4.780  0.00  0.00    +0.000 A 
ATOM      3  C   UNL     1      -0.347   2.049  -5.761  0.00  0.00    +0.000 A 
ATOM      4  C   UNL     1      -0.076   3.403  -5.560  0.00  0.00    +0.000 A 
ATOM      5  C   UNL     1       0.569   3.761  -4.380  0.00  0.00    +0.000 A 
ATOM      6  N   UNL     1       0.931   2.887  -3.413  0.00  0.00    +0.000 NA
ENDROOT
BRANCH   1   7
ATOM      7  C   UNL     1       1.015   0.587  -2.539  0.00  0.00    +0.000 C 
BRANCH   7   8
ATOM      8  N   UNL     1       0.304   0.881  -1.295  0.00  0.00    +0.000 NA
ATOM      9  H   UNL     1       0.539   1.848  -1.056  0.00  0.00    +0.000 HD
BRANCH   8  10
ATOM     10  C   UNL     1       0.690   0.016  -0.157  0.00  0.00    +0.000 C 
BRANCH  10  11
ATOM     11  C   UNL     1      -0.011   0.484   1.130  0.00  0.00    +0.000 A 
ATOM     12  C   UNL     1      -1.316   0.985   1.091  0.00  0.00    +0.000 A 
ATOM     13  C   UNL     1      -1.917   1.419   2.268  0.00  0.00    +0.000 A 
ATOM     14  C   UNL     1      -1.214   1.329   3.460  0.00  0.00    +0.000 A 
ATOM     15  C   UNL     1       0.067   0.804   3.423  0.00  0.00    +0.000 A 
ATOM     16  N   UNL     1       0.682   0.379   2.294  0.00  0.00    +0.000 NA
ENDBRANCH  10  11
BRANCH  10  17
ATOM     17  C   UNL     1       0.378  -1.507  -0.336  0.00  0.00    +0.000 C 
BRANCH  17  18
ATOM     18  N   UNL     1       1.092  -2.195  -1.427  0.00  0.00    +0.000 NA
ATOM     19  H   UNL     1       0.806  -3.173  -1.447  0.00  0.00    +0.000 HD
ATOM     20  H   UNL     1       2.092  -2.183  -1.237  0.00  0.00    +0.000 HD
ENDBRANCH  17  18
ENDBRANCH  10  17
ENDBRANCH   8  10
ENDBRANCH   7   8
ENDBRANCH   1   7
BRANCH   4  21
ATOM     21  C   UNL     1      -0.384   4.425  -6.612  0.00  0.00    +0.000 C 
BRANCH  21  22
ATOM     22  N   UNL     1       0.741   4.570  -7.498  0.00  0.00    +0.000 N 
ATOM     23  C   UNL     1       0.788   5.530  -8.472  0.00  0.00    +0.000 C 
ATOM     24  O   UNL     1      -0.113   6.348  -8.630  0.00  0.00    +0.000 OA
ATOM     25  H   UNL     1       1.374   3.779  -7.556  0.00  0.00    +0.000 HD
BRANCH  23  26
ATOM     26  C   UNL     1       2.020   5.568  -9.269  0.00  0.00    +0.000 A 
ATOM     27  C   UNL     1       2.402   6.744  -9.898  0.00  0.00    +0.000 A 
ATOM     28  S   UNL     1       3.901   6.630 -10.705  0.00  0.00    +0.000 S 
ATOM     29  C   UNL     1       4.066   4.989 -10.284  0.00  0.00    +0.000 A 
ATOM     30  N   UNL     1       5.151   4.269 -10.678  0.00  0.00    +0.000 NA
ATOM     31  C   UNL     1       5.133   3.033 -10.309  0.00  0.00    +0.000 A 
ATOM     32  N   UNL     1       4.132   2.447  -9.580  0.00  0.00    +0.000 N 
ATOM     33  C   UNL     1       3.024   3.138  -9.144  0.00  0.00    +0.000 A 
ATOM     34  O   UNL     1       2.161   2.591  -8.470  0.00  0.00    +0.000 OA
ATOM     35  C   UNL     1       2.996   4.537  -9.533  0.00  0.00    +0.000 A 
ATOM     36  H   UNL     1       4.185   1.475  -9.323  0.00  0.00    +0.000 HD
ENDBRANCH  23  26
ENDBRANCH  21  22
ENDBRANCH   4  21
TORSDOF 9
