REMARK  Name = 
REMARK  6 active torsions:
REMARK  status: ('A' for Active; 'I' for Inactive)
REMARK    1  A    between atoms: C_1  and  C_2
REMARK    2  A    between atoms: C_2  and  C_3
REMARK    3  A    between atoms: C_2  and  O_4
REMARK    4  A    between atoms: C_2  and  C_14
REMARK    5  A    between atoms: O_4  and  C_5
REMARK    6  A    between atoms: C_8  and  C_9
REMARK                            x       y       z     vdW  Elec       q    Type
REMARK                         _______ _______ _______ _____ _____    ______ ____
ROOT
ATOM      1  C   UNL     1       2.091   0.378  -2.339  0.00  0.00    +0.000 A 
ATOM      2  C   UNL     1       2.049   1.452  -3.231  0.00  0.00    +0.000 A 
ATOM      3  C   UNL     1       1.186   1.429  -4.334  0.00  0.00    +0.000 A 
ATOM      4  C   UNL     1       0.368   0.317  -4.565  0.00  0.00    +0.000 A 
ATOM      5  C   UNL     1       0.457  -0.781  -3.708  0.00  0.00    +0.000 A 
ATOM      6  C   UNL     1       1.335  -0.759  -2.622  0.00  0.00    +0.000 A 
ENDROOT
BRANCH   4   7
ATOM      7  C   UNL     1      -0.605   0.352  -5.687  0.00  0.00    +0.000 C 
ATOM      8  N   UNL     1      -1.063  -0.848  -6.162  0.00  0.00    +0.000 N 
ATOM      9  O   UNL     1      -0.982   1.406  -6.179  0.00  0.00    +0.000 OA
ATOM     10  H   UNL     1      -0.625  -1.732  -5.948  0.00  0.00    +0.000 HD
ATOM     11  H   UNL     1      -1.676  -0.810  -6.966  0.00  0.00    +0.000 HD
ENDBRANCH   4   7
BRANCH   1  12
ATOM     12  O   UNL     1       2.891   0.546  -1.243  0.00  0.00    +0.000 OA
BRANCH  12  14
ATOM     13  C   UNL     1       1.013  -0.036   0.330  0.00  0.00    +0.000 C 
ATOM     14  C   UNL     1       2.533  -0.020   0.047  0.00  0.00    +0.000 C 
ATOM     15  C   UNL     1       3.169  -1.421   0.138  0.00  0.00    +0.000 C 
BRANCH  14  16
ATOM     16  C   UNL     1       3.102   0.906   1.139  0.00  0.00    +0.000 A 
ATOM     17  C   UNL     1       3.238   2.287   0.943  0.00  0.00    +0.000 A 
ATOM     18  C   UNL     1       3.583   3.117   2.009  0.00  0.00    +0.000 A 
ATOM     19  C   UNL     1       3.791   2.545   3.251  0.00  0.00    +0.000 A 
ATOM     20  N   UNL     1       3.696   1.222   3.487  0.00  0.00    +0.000 NA
ATOM     21  C   UNL     1       3.355   0.443   2.435  0.00  0.00    +0.000 A 
ENDBRANCH  14  16
ENDBRANCH  12  14
ENDBRANCH   1  12
TORSDOF 4
