REMARK  Name = 
REMARK  5 active torsions:
REMARK  status: ('A' for Active; 'I' for Inactive)
REMARK    1  A    between atoms: C_2  and  C_4
REMARK    2  A    between atoms: C_7  and  N_8
REMARK    3  A    between atoms: N_8  and  C_9
REMARK    4  A    between atoms: C_9  and  C_10
REMARK    5  A    between atoms: C_14  and  N_15
REMARK                            x       y       z     vdW  Elec       q    Type
REMARK                         _______ _______ _______ _____ _____    ______ ____
ROOT
ATOM      1  N   UNL     1       5.403   4.508   1.668  0.00  0.00    +0.000 N 
ATOM      2  H   UNL     1       5.053   4.974   0.835  0.00  0.00    +0.000 HD
ENDROOT
BRANCH   1   6
ATOM      3  C   UNL     1       4.876   0.442   1.528  0.00  0.00    +0.000 A 
ATOM      4  C   UNL     1       4.447   1.169   2.624  0.00  0.00    +0.000 A 
ATOM      5  N   UNL     1       4.575   2.524   2.696  0.00  0.00    +0.000 NA
ATOM      6  C   UNL     1       5.132   3.139   1.638  0.00  0.00    +0.000 A 
ATOM      7  C   UNL     1       5.553   2.381   0.531  0.00  0.00    +0.000 A 
ATOM      8  N   UNL     1       5.439   1.030   0.437  0.00  0.00    +0.000 NA
BRANCH   3  10
ATOM      9  N   UNL     1       5.298  -1.681   0.444  0.00  0.00    +0.000 N 
ATOM     10  C   UNL     1       4.763  -1.042   1.530  0.00  0.00    +0.000 C 
ATOM     11  O   UNL     1       4.237  -1.656   2.451  0.00  0.00    +0.000 OA
ATOM     12  H   UNL     1       5.285  -2.691   0.405  0.00  0.00    +0.000 HD
ATOM     13  H   UNL     1       5.756  -1.146  -0.285  0.00  0.00    +0.000 HD
ENDBRANCH   3  10
ENDBRANCH   1   6
BRANCH   1  14
ATOM     14  C   UNL     1       5.019   5.225   2.884  0.00  0.00    +0.000 C 
BRANCH  14  15
ATOM     15  C   UNL     1       5.918   6.429   3.055  0.00  0.00    +0.000 A 
ATOM     16  C   UNL     1       7.281   6.255   3.247  0.00  0.00    +0.000 A 
ATOM     17  N   UNL     1       8.132   7.292   3.376  0.00  0.00    +0.000 NA
ATOM     18  C   UNL     1       7.552   8.519   3.289  0.00  0.00    +0.000 A 
ATOM     19  C   UNL     1       6.183   8.745   3.104  0.00  0.00    +0.000 A 
ATOM     20  N   UNL     1       5.365   7.669   2.984  0.00  0.00    +0.000 NA
BRANCH  19  21
ATOM     21  N   UNL     1       5.636  10.006   2.929  0.00  0.00    +0.000 N 
ATOM     22  C   UNL     1       4.166  10.081   2.831  0.00  0.00    +0.000 C 
ATOM     23  C   UNL     1       3.788  11.362   2.072  0.00  0.00    +0.000 C 
ATOM     24  O   UNL     1       4.328  12.532   2.709  0.00  0.00    +0.000 OA
ATOM     25  C   UNL     1       5.761  12.446   2.781  0.00  0.00    +0.000 C 
ATOM     26  C   UNL     1       6.219  11.199   3.562  0.00  0.00    +0.000 C 
ENDBRANCH  19  21
ENDBRANCH  14  15
ENDBRANCH   1  14
TORSDOF 5
