REMARK  Name = 
REMARK  6 active torsions:
REMARK  status: ('A' for Active; 'I' for Inactive)
REMARK    1  A    between atoms: C_2  and  C_18
REMARK    2  A    between atoms: N_3  and  C_4
REMARK    3  A    between atoms: C_4  and  C_5
REMARK    4  A    between atoms: C_8  and  C_9
REMARK    5  A    between atoms: C_9  and  C_10
REMARK    6  A    between atoms: C_10  and  C_11
REMARK                            x       y       z     vdW  Elec       q    Type
REMARK                         _______ _______ _______ _____ _____    ______ ____
ROOT
ATOM      1  O   UNL     1       1.037   0.055  -0.108  0.00  0.00    +0.000 OA
ATOM      2  C   UNL     1       1.996   0.682  -0.552  0.00  0.00    +0.000 C 
ATOM      3  N   UNL     1       2.678   1.601   0.209  0.00  0.00    +0.000 N 
ATOM      4  H   UNL     1       3.316   2.250  -0.241  0.00  0.00    +0.000 HD
ENDROOT
BRANCH   2   5
ATOM      5  C   UNL     1       2.492   0.445  -1.912  0.00  0.00    +0.000 A 
ATOM      6  C   UNL     1       2.234  -0.768  -2.536  0.00  0.00    +0.000 A 
ATOM      7  S   UNL     1       2.878  -0.877  -4.110  0.00  0.00    +0.000 S 
ATOM      8  C   UNL     1       3.483   0.711  -4.029  0.00  0.00    +0.000 A 
ATOM      9  N   UNL     1       4.123   1.269  -5.092  0.00  0.00    +0.000 NA
ATOM     10  C   UNL     1       4.497   2.493  -4.910  0.00  0.00    +0.000 A 
ATOM     11  N   UNL     1       4.292   3.204  -3.753  0.00  0.00    +0.000 N 
ATOM     12  C   UNL     1       3.685   2.670  -2.642  0.00  0.00    +0.000 A 
ATOM     13  O   UNL     1       3.573   3.314  -1.604  0.00  0.00    +0.000 OA
ATOM     14  C   UNL     1       3.224   1.305  -2.808  0.00  0.00    +0.000 A 
ATOM     15  H   UNL     1       4.622   4.156  -3.666  0.00  0.00    +0.000 HD
ENDBRANCH   2   5
BRANCH   3  16
ATOM     16  C   UNL     1       2.183   1.957   1.514  0.00  0.00    +0.000 C 
BRANCH  16  17
ATOM     17  C   UNL     1       3.076   2.941   2.220  0.00  0.00    +0.000 A 
ATOM     18  C   UNL     1       2.896   4.318   2.041  0.00  0.00    +0.000 A 
ATOM     19  C   UNL     1       3.682   5.236   2.744  0.00  0.00    +0.000 A 
ATOM     20  C   UNL     1       4.669   4.796   3.635  0.00  0.00    +0.000 A 
ATOM     21  C   UNL     1       4.882   3.419   3.775  0.00  0.00    +0.000 A 
ATOM     22  C   UNL     1       4.097   2.501   3.071  0.00  0.00    +0.000 A 
BRANCH  20  23
ATOM     23  C   UNL     1       5.533   5.782   4.386  0.00  0.00    +0.000 C 
BRANCH  23  24
ATOM     24  C   UNL     1       4.742   6.723   5.309  0.00  0.00    +0.000 C 
BRANCH  24  25
ATOM     25  C   UNL     1       5.661   7.705   6.066  0.00  0.00    +0.000 C 
ATOM     26  C   UNL     1       4.870   8.595   7.022  0.00  0.00    +0.000 C 
ATOM     27  C   UNL     1       4.511   9.790   6.166  0.00  0.00    +0.000 C 
ATOM     28  N   UNL     1       5.711  10.028   5.363  0.00  0.00    +0.000 NA
ATOM     29  C   UNL     1       6.344   8.719   5.140  0.00  0.00    +0.000 C 
ATOM     30  H   UNL     1       6.355  10.609   5.900  0.00  0.00    +0.000 HD
ENDBRANCH  24  25
ENDBRANCH  23  24
ENDBRANCH  20  23
ENDBRANCH  16  17
ENDBRANCH   3  16
TORSDOF 6
