REMARK  Name = 
REMARK  8 active torsions:
REMARK  status: ('A' for Active; 'I' for Inactive)
REMARK    1  A    between atoms: C_1  and  O_2
REMARK    2  A    between atoms: O_2  and  C_3
REMARK    3  A    between atoms: C_10  and  C_11
REMARK    4  A    between atoms: N_13  and  C_14
REMARK    5  A    between atoms: C_14  and  C_15
REMARK    6  A    between atoms: N_19  and  C_20
REMARK    7  A    between atoms: C_20  and  C_21
REMARK    8  A    between atoms: C_21  and  N_22
REMARK                            x       y       z     vdW  Elec       q    Type
REMARK                         _______ _______ _______ _____ _____    ______ ____
ROOT
ATOM      1  C   UNL     1       2.557   3.077  -1.147  0.00  0.00    +0.000 C 
ENDROOT
BRANCH   1   2
ATOM      2  C   UNL     1       1.352   2.562  -1.884  0.00  0.00    +0.000 A 
ATOM      3  C   UNL     1       1.252   1.244  -2.323  0.00  0.00    +0.000 A 
ATOM      4  C   UNL     1       0.087   0.812  -2.968  0.00  0.00    +0.000 A 
ATOM      5  C   UNL     1      -0.955   1.710  -3.203  0.00  0.00    +0.000 A 
ATOM      6  N   UNL     1      -2.148   1.224  -3.754  0.00  0.00    +0.000 N 
ATOM      7  N   UNL     1      -0.852   2.996  -2.817  0.00  0.00    +0.000 NA
ATOM      8  C   UNL     1       0.278   3.392  -2.179  0.00  0.00    +0.000 A 
ATOM      9  H   UNL     1      -1.974   0.683  -4.598  0.00  0.00    +0.000 HD
BRANCH   6  10
ATOM     10  C   UNL     1      -3.222   2.202  -3.961  0.00  0.00    +0.000 C 
BRANCH  10  11
ATOM     11  C   UNL     1      -3.129   2.948  -5.318  0.00  0.00    +0.000 C 
BRANCH  11  12
ATOM     12  N   UNL     1      -3.145   2.090  -6.532  0.00  0.00    +0.000 NA
ATOM     13  C   UNL     1      -4.405   1.336  -6.651  0.00  0.00    +0.000 C 
ATOM     14  C   UNL     1      -4.375   0.409  -7.867  0.00  0.00    +0.000 C 
ATOM     15  C   UNL     1      -4.110   1.185  -9.152  0.00  0.00    +0.000 C 
ATOM     16  C   UNL     1      -2.871   2.058  -8.999  0.00  0.00    +0.000 C 
ATOM     17  C   UNL     1      -2.952   2.925  -7.738  0.00  0.00    +0.000 C 
ENDBRANCH  11  12
ENDBRANCH  10  11
ENDBRANCH   6  10
ENDBRANCH   1   2
BRANCH   1  20
ATOM     18  C   UNL     1       4.729   4.156  -1.636  0.00  0.00    +0.000 C 
ATOM     19  O   UNL     1       5.032   4.186  -0.447  0.00  0.00    +0.000 OA
ATOM     20  N   UNL     1       3.533   3.627  -2.051  0.00  0.00    +0.000 N 
ATOM     21  H   UNL     1       3.304   3.634  -3.035  0.00  0.00    +0.000 HD
BRANCH  18  29
ATOM     22  C   UNL     1       4.550   4.293  -5.071  0.00  0.00    +0.000 A 
ATOM     23  N   UNL     1       4.714   4.501  -6.391  0.00  0.00    +0.000 NA
ATOM     24  C   UNL     1       5.826   5.122  -6.794  0.00  0.00    +0.000 A 
ATOM     25  N   UNL     1       6.816   5.569  -6.026  0.00  0.00    +0.000 NA
ATOM     26  C   UNL     1       6.605   5.353  -4.716  0.00  0.00    +0.000 A 
ATOM     27  S   UNL     1       7.767   5.854  -3.584  0.00  0.00    +0.000 S 
ATOM     28  C   UNL     1       6.831   5.273  -2.288  0.00  0.00    +0.000 A 
ATOM     29  C   UNL     1       5.628   4.693  -2.677  0.00  0.00    +0.000 A 
ATOM     30  C   UNL     1       5.502   4.735  -4.135  0.00  0.00    +0.000 A 
BRANCH  22  32
ATOM     31  C   UNL     1       2.846   2.800  -5.647  0.00  0.00    +0.000 C 
ATOM     32  O   UNL     1       3.398   3.662  -4.655  0.00  0.00    +0.000 OA
ENDBRANCH  22  32
ENDBRANCH  18  29
ENDBRANCH   1  20
TORSDOF 7
