REMARK  Name = 
REMARK  7 active torsions:
REMARK  status: ('A' for Active; 'I' for Inactive)
REMARK    1  A    between atoms: C_1  and  C_2
REMARK    2  A    between atoms: C_2  and  N_3
REMARK    3  A    between atoms: C_2  and  C_16
REMARK    4  A    between atoms: C_4  and  C_6
REMARK    5  A    between atoms: C_19  and  C_20
REMARK    6  A    between atoms: C_20  and  N_21
REMARK    7  A    between atoms: C_22  and  C_24
REMARK                            x       y       z     vdW  Elec       q    Type
REMARK                         _______ _______ _______ _____ _____    ______ ____
ROOT
ATOM      1  C   UNL     1      13.057  -3.141   3.001  0.00  0.00    +0.000 C 
ATOM      2  C   UNL     1      11.956  -4.206   3.067  0.00  0.00    +0.000 C 
ENDROOT
BRANCH   2   3
ATOM      3  C   UNL     1      11.091  -3.991   4.306  0.00  0.00    +0.000 A 
ATOM      4  C   UNL     1       9.729  -3.681   4.193  0.00  0.00    +0.000 A 
ATOM      5  C   UNL     1       8.929  -3.548   5.338  0.00  0.00    +0.000 A 
ATOM      6  C   UNL     1       9.475  -3.715   6.619  0.00  0.00    +0.000 A 
ATOM      7  C   UNL     1      10.838  -4.012   6.733  0.00  0.00    +0.000 A 
ATOM      8  C   UNL     1      11.635  -4.139   5.593  0.00  0.00    +0.000 A 
BRANCH   6   9
ATOM      9  C   UNL     1       8.620  -3.605   7.856  0.00  0.00    +0.000 C 
BRANCH   9  10
ATOM     10  N   UNL     1       8.060  -4.882   8.236  0.00  0.00    +0.000 N 
ATOM     11  C   UNL     1       7.281  -5.003   9.374  0.00  0.00    +0.000 C 
ATOM     12  O   UNL     1       7.015  -4.055  10.102  0.00  0.00    +0.000 OA
ATOM     13  H   UNL     1       8.380  -5.719   7.765  0.00  0.00    +0.000 HD
BRANCH  11  14
ATOM     14  C   UNL     1       6.779  -6.448   9.609  0.00  0.00    +0.000 C 
ATOM     15  C   UNL     1       5.907  -6.611  10.841  0.00  0.00    +0.000 C 
ATOM     16  C   UNL     1       4.540  -6.153  10.370  0.00  0.00    +0.000 C 
ATOM     17  C   UNL     1       4.525  -6.456   8.879  0.00  0.00    +0.000 C 
ATOM     18  N   UNL     1       5.886  -6.863   8.504  0.00  0.00    +0.000 NA
ATOM     19  H   UNL     1       6.155  -6.396   7.638  0.00  0.00    +0.000 HD
ENDBRANCH  11  14
ENDBRANCH   9  10
ENDBRANCH   6   9
ENDBRANCH   2   3
BRANCH   2  20
ATOM     20  N   UNL     1      12.493  -5.560   3.098  0.00  0.00    +0.000 N 
ATOM     21  C   UNL     1      13.288  -6.090   2.114  0.00  0.00    +0.000 C 
ATOM     22  O   UNL     1      13.637  -5.455   1.124  0.00  0.00    +0.000 OA
ATOM     23  H   UNL     1      11.982  -6.213   3.685  0.00  0.00    +0.000 HD
BRANCH  21  24
ATOM     24  C   UNL     1      13.765  -7.459   2.341  0.00  0.00    +0.000 A 
ATOM     25  C   UNL     1      14.978  -7.867   1.801  0.00  0.00    +0.000 A 
ATOM     26  S   UNL     1      15.374  -9.488   2.162  0.00  0.00    +0.000 S 
ATOM     27  C   UNL     1      13.923  -9.707   3.023  0.00  0.00    +0.000 A 
ATOM     28  N   UNL     1      13.607 -10.913   3.571  0.00  0.00    +0.000 NA
ATOM     29  C   UNL     1      12.462 -10.942   4.169  0.00  0.00    +0.000 A 
ATOM     30  N   UNL     1      11.613  -9.874   4.285  0.00  0.00    +0.000 N 
ATOM     31  C   UNL     1      11.911  -8.628   3.787  0.00  0.00    +0.000 A 
ATOM     32  O   UNL     1      11.165  -7.671   3.975  0.00  0.00    +0.000 OA
ATOM     33  C   UNL     1      13.164  -8.552   3.068  0.00  0.00    +0.000 A 
ATOM     34  H   UNL     1      10.741  -9.956   4.787  0.00  0.00    +0.000 HD
ENDBRANCH  21  24
ENDBRANCH   2  20
TORSDOF 6
