REMARK  Name = 
REMARK  6 active torsions:
REMARK  status: ('A' for Active; 'I' for Inactive)
REMARK    1  A    between atoms: C_2  and  C_25
REMARK    2  A    between atoms: N_3  and  C_4
REMARK    3  A    between atoms: C_4  and  C_5
REMARK    4  A    between atoms: C_8  and  C_9
REMARK    5  A    between atoms: C_9  and  N_10
REMARK    6  A    between atoms: C_11  and  C_13
REMARK                            x       y       z     vdW  Elec       q    Type
REMARK                         _______ _______ _______ _____ _____    ______ ____
ROOT
ATOM      1  C   UNL     1       3.267  -2.232  -2.949  0.00  0.00    +0.000 C 
ATOM      2  C   UNL     1       3.273  -3.716  -2.564  0.00  0.00    +0.000 C 
ATOM      3  C   UNL     1       4.290  -4.522  -3.368  0.00  0.00    +0.000 C 
ATOM      4  C   UNL     1       5.712  -3.944  -3.263  0.00  0.00    +0.000 C 
ATOM      5  C   UNL     1       5.733  -2.437  -3.574  0.00  0.00    +0.000 C 
ATOM      6  C   UNL     1       4.685  -1.661  -2.776  0.00  0.00    +0.000 C 
ENDROOT
BRANCH   1   7
ATOM      7  C   UNL     1       2.743  -2.002  -4.379  0.00  0.00    +0.000 C 
BRANCH   7  10
ATOM      8  O   UNL     1       0.457  -0.420  -3.982  0.00  0.00    +0.000 OA
ATOM      9  C   UNL     1       0.321  -1.584  -4.344  0.00  0.00    +0.000 C 
ATOM     10  N   UNL     1       1.373  -2.444  -4.554  0.00  0.00    +0.000 N 
ATOM     11  H   UNL     1       1.161  -3.404  -4.804  0.00  0.00    +0.000 HD
BRANCH   9  12
ATOM     12  C   UNL     1      -1.040  -2.141  -4.586  0.00  0.00    +0.000 A 
ATOM     13  C   UNL     1      -2.134  -1.306  -4.419  0.00  0.00    +0.000 A 
ATOM     14  N   UNL     1      -3.411  -1.739  -4.594  0.00  0.00    +0.000 NA
ATOM     15  C   UNL     1      -3.530  -3.039  -4.942  0.00  0.00    +0.000 A 
ATOM     16  C   UNL     1      -2.433  -3.872  -5.116  0.00  0.00    +0.000 A 
ATOM     17  N   UNL     1      -1.153  -3.450  -4.945  0.00  0.00    +0.000 NA
ENDBRANCH   9  12
ENDBRANCH   7  10
ENDBRANCH   1   7
BRANCH   4  18
ATOM     18  C   UNL     1       6.698  -4.677  -4.191  0.00  0.00    +0.000 C 
BRANCH  18  19
ATOM     19  N   UNL     1       6.797  -6.089  -3.886  0.00  0.00    +0.000 N 
ATOM     20  C   UNL     1       7.950  -6.801  -4.122  0.00  0.00    +0.000 C 
ATOM     21  O   UNL     1       8.976  -6.279  -4.549  0.00  0.00    +0.000 OA
ATOM     22  H   UNL     1       5.930  -6.615  -3.860  0.00  0.00    +0.000 HD
BRANCH  20  23
ATOM     23  C   UNL     1       7.913  -8.219  -3.751  0.00  0.00    +0.000 A 
ATOM     24  C   UNL     1       9.076  -8.856  -3.345  0.00  0.00    +0.000 A 
ATOM     25  S   UNL     1       8.842 -10.490  -2.914  0.00  0.00    +0.000 S 
ATOM     26  C   UNL     1       7.187 -10.412  -3.300  0.00  0.00    +0.000 A 
ATOM     27  N   UNL     1       6.385 -11.503  -3.180  0.00  0.00    +0.000 NA
ATOM     28  C   UNL     1       5.158 -11.308  -3.538  0.00  0.00    +0.000 A 
ATOM     29  N   UNL     1       4.661 -10.115  -4.001  0.00  0.00    +0.000 N 
ATOM     30  C   UNL     1       5.424  -8.978  -4.103  0.00  0.00    +0.000 A 
ATOM     31  O   UNL     1       4.934  -7.910  -4.457  0.00  0.00    +0.000 OA
ATOM     32  C   UNL     1       6.815  -9.151  -3.732  0.00  0.00    +0.000 A 
ATOM     33  H   UNL     1       3.688 -10.026  -4.249  0.00  0.00    +0.000 HD
ENDBRANCH  20  23
ENDBRANCH  18  19
ENDBRANCH   4  18
TORSDOF 6
