REMARK  Name = 
REMARK  6 active torsions:
REMARK  status: ('A' for Active; 'I' for Inactive)
REMARK    1  A    between atoms: C_1  and  C_2
REMARK    2  A    between atoms: C_6  and  O_7
REMARK    3  A    between atoms: O_7  and  C_8
REMARK    4  A    between atoms: C_11  and  C_12
REMARK    5  A    between atoms: C_12  and  N_13
REMARK    6  A    between atoms: C_14  and  C_16
REMARK                            x       y       z     vdW  Elec       q    Type
REMARK                         _______ _______ _______ _____ _____    ______ ____
ROOT
ATOM      1  C   UNL     1       7.217   2.906  -0.467  0.00  0.00    +0.000 C 
ENDROOT
BRANCH   1   5
ATOM      2  C   UNL     1       2.923   2.505  -0.105  0.00  0.00    +0.000 A 
ATOM      3  C   UNL     1       3.588   1.976  -1.213  0.00  0.00    +0.000 A 
ATOM      4  C   UNL     1       4.977   2.108  -1.341  0.00  0.00    +0.000 A 
ATOM      5  C   UNL     1       5.716   2.802  -0.373  0.00  0.00    +0.000 A 
ATOM      6  C   UNL     1       5.029   3.411   0.688  0.00  0.00    +0.000 A 
ATOM      7  C   UNL     1       3.644   3.259   0.825  0.00  0.00    +0.000 A 
BRANCH   2   8
ATOM      8  O   UNL     1       1.568   2.401   0.110  0.00  0.00    +0.000 OA
BRANCH   8  14
ATOM      9  C   UNL     1      -2.528   0.631  -1.468  0.00  0.00    +0.000 C 
ATOM     10  C   UNL     1      -1.084   0.410  -1.133  0.00  0.00    +0.000 A 
ATOM     11  C   UNL     1      -0.501  -0.831  -1.295  0.00  0.00    +0.000 A 
ATOM     12  C   UNL     1       0.821  -0.930  -0.931  0.00  0.00    +0.000 A 
ATOM     13  N   UNL     1       1.535   0.098  -0.444  0.00  0.00    +0.000 NA
ATOM     14  C   UNL     1       0.894   1.279  -0.361  0.00  0.00    +0.000 A 
ATOM     15  N   UNL     1      -0.399   1.477  -0.668  0.00  0.00    +0.000 NA
ENDBRANCH   8  14
ENDBRANCH   2   8
ENDBRANCH   1   5
BRANCH   1  16
ATOM     16  N   UNL     1       7.630   4.060  -1.222  0.00  0.00    +0.000 N 
ATOM     17  C   UNL     1       8.955   4.339  -1.444  0.00  0.00    +0.000 C 
ATOM     18  O   UNL     1       9.860   3.617  -1.037  0.00  0.00    +0.000 OA
ATOM     19  H   UNL     1       6.947   4.802  -1.328  0.00  0.00    +0.000 HD
BRANCH  17  20
ATOM     20  C   UNL     1       9.228   5.524  -2.270  0.00  0.00    +0.000 A 
ATOM     21  C   UNL     1      10.395   5.602  -3.016  0.00  0.00    +0.000 A 
ATOM     22  S   UNL     1      10.491   7.006  -3.982  0.00  0.00    +0.000 S 
ATOM     23  C   UNL     1       9.008   7.588  -3.383  0.00  0.00    +0.000 A 
ATOM     24  N   UNL     1       8.503   8.782  -3.795  0.00  0.00    +0.000 NA
ATOM     25  C   UNL     1       7.388   9.113  -3.230  0.00  0.00    +0.000 A 
ATOM     26  N   UNL     1       6.733   8.358  -2.294  0.00  0.00    +0.000 N 
ATOM     27  C   UNL     1       7.182   7.129  -1.877  0.00  0.00    +0.000 A 
ATOM     28  O   UNL     1       6.540   6.453  -1.084  0.00  0.00    +0.000 OA
ATOM     29  C   UNL     1       8.441   6.716  -2.471  0.00  0.00    +0.000 A 
ATOM     30  H   UNL     1       5.855   8.665  -1.900  0.00  0.00    +0.000 HD
ENDBRANCH  17  20
ENDBRANCH   1  16
TORSDOF 5
