REMARK  Name = 
REMARK  6 active torsions:
REMARK  status: ('A' for Active; 'I' for Inactive)
REMARK    1  A    between atoms: C_2  and  C_3
REMARK    2  A    between atoms: C_6  and  C_7
REMARK    3  A    between atoms: C_11  and  C_12
REMARK    4  A    between atoms: C_12  and  N_13
REMARK    5  A    between atoms: N_13  and  C_14
REMARK    6  A    between atoms: C_17  and  C_18
REMARK                            x       y       z     vdW  Elec       q    Type
REMARK                         _______ _______ _______ _____ _____    ______ ____
ROOT
ATOM      1  C   UNL     1       6.578  -1.226  -1.764  0.00  0.00    +0.000 C 
ATOM      2  C   UNL     1       7.511  -2.420  -1.647  0.00  0.00    +0.000 C 
ATOM      3  C   UNL     1       8.090  -1.073  -1.914  0.00  0.00    +0.000 C 
ENDROOT
BRANCH   1   8
ATOM      4  C   UNL     1       5.887   0.967   1.130  0.00  0.00    +0.000 A 
ATOM      5  N   UNL     1       5.008   0.306   1.902  0.00  0.00    +0.000 NA
ATOM      6  C   UNL     1       4.584  -0.878   1.434  0.00  0.00    +0.000 A 
ATOM      7  C   UNL     1       5.019  -1.423   0.249  0.00  0.00    +0.000 A 
ATOM      8  C   UNL     1       5.947  -0.694  -0.474  0.00  0.00    +0.000 A 
ATOM      9  N   UNL     1       6.355   0.518  -0.045  0.00  0.00    +0.000 NA
BRANCH   4  13
ATOM     10  C   UNL     1       7.564   4.656   2.570  0.00  0.00    +0.000 A 
ATOM     11  C   UNL     1       6.666   3.938   3.363  0.00  0.00    +0.000 A 
ATOM     12  C   UNL     1       6.107   2.747   2.887  0.00  0.00    +0.000 A 
ATOM     13  C   UNL     1       6.433   2.245   1.616  0.00  0.00    +0.000 A 
ATOM     14  C   UNL     1       7.331   2.998   0.830  0.00  0.00    +0.000 A 
ATOM     15  C   UNL     1       7.891   4.189   1.299  0.00  0.00    +0.000 A 
BRANCH  10  17
ATOM     16  N   UNL     1       8.639   6.833   3.473  0.00  0.00    +0.000 NA
ATOM     17  C   UNL     1       8.154   5.862   3.066  0.00  0.00    +0.000 C 
ENDBRANCH  10  17
ENDBRANCH   4  13
ENDBRANCH   1   8
BRANCH   1  18
ATOM     18  N   UNL     1       5.808  -0.920  -2.994  0.00  0.00    +0.000 N 
ATOM     19  H   UNL     1       5.566   0.067  -3.093  0.00  0.00    +0.000 HD
BRANCH  18  20
ATOM     20  C   UNL     1       4.798  -1.766  -3.488  0.00  0.00    +0.000 A 
ATOM     21  C   UNL     1       4.025  -1.359  -4.582  0.00  0.00    +0.000 A 
ATOM     22  C   UNL     1       3.066  -2.217  -5.124  0.00  0.00    +0.000 A 
ATOM     23  C   UNL     1       2.922  -3.475  -4.557  0.00  0.00    +0.000 A 
ATOM     24  N   UNL     1       3.674  -3.930  -3.521  0.00  0.00    +0.000 NA
ATOM     25  C   UNL     1       4.597  -3.070  -3.040  0.00  0.00    +0.000 A 
BRANCH  23  26
ATOM     26  C   UNL     1       1.892  -4.430  -5.064  0.00  0.00    +0.000 C 
ATOM     27  N   UNL     1       1.854  -5.633  -4.414  0.00  0.00    +0.000 N 
ATOM     28  O   UNL     1       1.131  -4.158  -5.986  0.00  0.00    +0.000 OA
ATOM     29  H   UNL     1       2.512  -5.803  -3.657  0.00  0.00    +0.000 HD
ATOM     30  H   UNL     1       1.183  -6.337  -4.678  0.00  0.00    +0.000 HD
ENDBRANCH  23  26
ENDBRANCH  18  20
ENDBRANCH   1  18
TORSDOF 6
