REMARK  Name = 
REMARK  10 active torsions:
REMARK  status: ('A' for Active; 'I' for Inactive)
REMARK    1  A    between atoms: C_1  and  O_2
REMARK    2  A    between atoms: O_2  and  C_3
REMARK    3  A    between atoms: C_10  and  C_11
REMARK    4  A    between atoms: N_13  and  C_14
REMARK    5  A    between atoms: C_14  and  C_15
REMARK    6  A    between atoms: C_18  and  O_19
REMARK    7  A    between atoms: O_19  and  C_20
REMARK    8  A    between atoms: C_20  and  C_21
REMARK    9  A    between atoms: C_21  and  O_22
REMARK   10  A    between atoms: C_21  and  C_23
REMARK                            x       y       z     vdW  Elec       q    Type
REMARK                         _______ _______ _______ _____ _____    ______ ____
ROOT
ATOM      1  C   UNL     1       2.290  -2.931   1.858  0.00  0.00    +0.000 A 
ATOM      2  C   UNL     1       1.482  -3.942   2.394  0.00  0.00    +0.000 A 
ATOM      3  C   UNL     1       0.547  -3.659   3.397  0.00  0.00    +0.000 A 
ATOM      4  C   UNL     1       0.392  -2.356   3.873  0.00  0.00    +0.000 A 
ATOM      5  C   UNL     1       1.182  -1.340   3.327  0.00  0.00    +0.000 A 
ATOM      6  C   UNL     1       2.121  -1.622   2.326  0.00  0.00    +0.000 A 
ENDROOT
BRANCH   1   7
ATOM      7  C   UNL     1       3.276  -3.250   0.762  0.00  0.00    +0.000 C 
BRANCH   7  10
ATOM      8  C   UNL     1       3.322  -3.422  -1.696  0.00  0.00    +0.000 C 
ATOM      9  O   UNL     1       4.492  -3.796  -1.684  0.00  0.00    +0.000 OA
ATOM     10  N   UNL     1       2.655  -3.141  -0.536  0.00  0.00    +0.000 N 
ATOM     11  H   UNL     1       1.681  -2.877  -0.563  0.00  0.00    +0.000 HD
BRANCH   8  19
ATOM     12  C   UNL     1       0.093  -2.478  -2.446  0.00  0.00    +0.000 A 
ATOM     13  N   UNL     1      -1.061  -2.078  -3.014  0.00  0.00    +0.000 NA
ATOM     14  C   UNL     1      -1.123  -2.029  -4.350  0.00  0.00    +0.000 A 
ATOM     15  N   UNL     1      -0.157  -2.346  -5.206  0.00  0.00    +0.000 NA
ATOM     16  C   UNL     1       0.977  -2.734  -4.599  0.00  0.00    +0.000 A 
ATOM     17  S   UNL     1       2.316  -3.188  -5.542  0.00  0.00    +0.000 S 
ATOM     18  C   UNL     1       3.252  -3.484  -4.155  0.00  0.00    +0.000 A 
ATOM     19  C   UNL     1       2.585  -3.242  -2.961  0.00  0.00    +0.000 A 
ATOM     20  C   UNL     1       1.211  -2.819  -3.231  0.00  0.00    +0.000 A 
BRANCH  12  22
ATOM     21  C   UNL     1      -1.031  -2.125  -0.408  0.00  0.00    +0.000 C 
ATOM     22  O   UNL     1       0.149  -2.572  -1.071  0.00  0.00    +0.000 OA
ENDBRANCH  12  22
ENDBRANCH   8  19
ENDBRANCH   7  10
ENDBRANCH   1   7
BRANCH   4  23
ATOM     23  O   UNL     1      -0.481  -1.963   4.855  0.00  0.00    +0.000 OA
BRANCH  23  24
ATOM     24  C   UNL     1      -1.363  -2.974   5.369  0.00  0.00    +0.000 C 
BRANCH  24  25
ATOM     25  C   UNL     1      -2.362  -2.385   6.389  0.00  0.00    +0.000 C 
BRANCH  25  26
ATOM     26  C   UNL     1      -3.372  -1.434   5.780  0.00  0.00    +0.000 A 
ATOM     27  C   UNL     1      -2.981  -0.214   5.203  0.00  0.00    +0.000 A 
ATOM     28  C   UNL     1      -3.917   0.622   4.590  0.00  0.00    +0.000 A 
ATOM     29  C   UNL     1      -5.260   0.257   4.555  0.00  0.00    +0.000 A 
ATOM     30  C   UNL     1      -5.665  -0.936   5.148  0.00  0.00    +0.000 A 
ATOM     31 CL   UNL     1      -7.325  -1.388   5.109  0.00  0.00    +0.000 Cl
ATOM     32  C   UNL     1      -4.734  -1.776   5.761  0.00  0.00    +0.000 A 
ENDBRANCH  25  26
BRANCH  25  33
ATOM     33  O   UNL     1      -1.688  -1.748   7.473  0.00  0.00    +0.000 OA
ATOM     34  H   UNL     1      -1.083  -1.096   7.078  0.00  0.00    +0.000 HD
ENDBRANCH  25  33
ENDBRANCH  24  25
ENDBRANCH  23  24
ENDBRANCH   4  23
TORSDOF 9
