REMARK  Name = 
REMARK  5 active torsions:
REMARK  status: ('A' for Active; 'I' for Inactive)
REMARK    1  A    between atoms: C_2  and  C_4
REMARK    2  A    between atoms: C_7  and  O_8
REMARK    3  A    between atoms: O_8  and  C_9
REMARK    4  A    between atoms: C_9  and  C_10
REMARK    5  A    between atoms: C_12  and  C_13
REMARK                            x       y       z     vdW  Elec       q    Type
REMARK                         _______ _______ _______ _____ _____    ______ ____
ROOT
ATOM      1  C   UNL     1       4.532   4.319  -4.299  0.00  0.00    +0.000 C 
ENDROOT
BRANCH   1   2
ATOM      2  C   UNL     1       5.243   4.949  -5.475  0.00  0.00    +0.000 A 
ATOM      3  C   UNL     1       5.141   6.316  -5.736  0.00  0.00    +0.000 A 
ATOM      4  C   UNL     1       5.785   6.874  -6.851  0.00  0.00    +0.000 A 
ATOM      5  C   UNL     1       6.488   5.990  -7.680  0.00  0.00    +0.000 A 
ATOM      6  C   UNL     1       6.519   4.640  -7.371  0.00  0.00    +0.000 A 
ATOM      7  N   UNL     1       5.915   4.104  -6.295  0.00  0.00    +0.000 NA
BRANCH   4   8
ATOM      8  C   UNL     1       5.741   8.329  -7.130  0.00  0.00    +0.000 A 
ATOM      9  C   UNL     1       5.670   9.278  -6.089  0.00  0.00    +0.000 A 
ATOM     10  C   UNL     1       5.670  10.655  -6.345  0.00  0.00    +0.000 A 
ATOM     11  C   UNL     1       5.751  11.116  -7.654  0.00  0.00    +0.000 A 
ATOM     12  C   UNL     1       5.812  10.198  -8.691  0.00  0.00    +0.000 A 
ATOM     13  F   UNL     1       5.895  10.635  -9.955  0.00  0.00    +0.000 F 
ATOM     14  C   UNL     1       5.796   8.827  -8.444  0.00  0.00    +0.000 A 
ENDBRANCH   4   8
ENDBRANCH   1   2
BRANCH   1  15
ATOM     15  O   UNL     1       4.403   5.229  -3.200  0.00  0.00    +0.000 OA
BRANCH  15  19
ATOM     16  C   UNL     1       2.445   3.999   0.274  0.00  0.00    +0.000 A 
ATOM     17  C   UNL     1       2.571   3.089  -0.780  0.00  0.00    +0.000 A 
ATOM     18  C   UNL     1       3.222   3.466  -1.959  0.00  0.00    +0.000 A 
ATOM     19  C   UNL     1       3.743   4.753  -2.098  0.00  0.00    +0.000 A 
ATOM     20  C   UNL     1       3.598   5.668  -1.050  0.00  0.00    +0.000 A 
ATOM     21  C   UNL     1       2.945   5.298   0.131  0.00  0.00    +0.000 A 
BRANCH  16  23
ATOM     22  N   UNL     1       1.803   2.300   1.891  0.00  0.00    +0.000 N 
ATOM     23  C   UNL     1       1.767   3.623   1.540  0.00  0.00    +0.000 C 
ATOM     24  O   UNL     1       1.230   4.454   2.258  0.00  0.00    +0.000 OA
ATOM     25  H   UNL     1       1.427   2.066   2.801  0.00  0.00    +0.000 HD
ATOM     26  H   UNL     1       2.442   1.644   1.468  0.00  0.00    +0.000 HD
ENDBRANCH  16  23
ENDBRANCH  15  19
ENDBRANCH   1  15
TORSDOF 5
