REMARK  Name = 
REMARK  9 active torsions:
REMARK  status: ('A' for Active; 'I' for Inactive)
REMARK    1  A    between atoms: C_1  and  O_2
REMARK    2  A    between atoms: O_2  and  C_3
REMARK    3  A    between atoms: C_10  and  C_11
REMARK    4  A    between atoms: N_13  and  C_14
REMARK    5  A    between atoms: C_14  and  C_15
REMARK    6  A    between atoms: C_18  and  N_19
REMARK    7  A    between atoms: N_19  and  C_20
REMARK    8  A    between atoms: C_20  and  C_21
REMARK    9  A    between atoms: N_24  and  C_25
REMARK                            x       y       z     vdW  Elec       q    Type
REMARK                         _______ _______ _______ _____ _____    ______ ____
ROOT
ATOM      1  C   UNL     1       2.800   2.668  -2.026  0.00  0.00    +0.000 C 
ENDROOT
BRANCH   1   2
ATOM      2  C   UNL     1       1.669   1.857  -2.591  0.00  0.00    +0.000 A 
ATOM      3  C   UNL     1       1.807   0.484  -2.820  0.00  0.00    +0.000 A 
ATOM      4  C   UNL     1       0.722  -0.274  -3.275  0.00  0.00    +0.000 A 
ATOM      5  C   UNL     1      -0.526   0.304  -3.510  0.00  0.00    +0.000 A 
ATOM      6  C   UNL     1      -0.625   1.695  -3.365  0.00  0.00    +0.000 A 
ATOM      7  C   UNL     1       0.450   2.467  -2.907  0.00  0.00    +0.000 A 
BRANCH   5   8
ATOM      8  N   UNL     1      -1.646  -0.380  -3.965  0.00  0.00    +0.000 N 
ATOM      9  H   UNL     1      -2.508  -0.018  -3.567  0.00  0.00    +0.000 HD
BRANCH   8  10
ATOM     10  C   UNL     1      -1.687  -1.810  -4.280  0.00  0.00    +0.000 C 
BRANCH  10  11
ATOM     11  C   UNL     1      -2.098  -2.021  -5.748  0.00  0.00    +0.000 C 
ATOM     12  C   UNL     1      -2.200  -3.507  -6.129  0.00  0.00    +0.000 C 
ATOM     13  C   UNL     1      -0.836  -4.210  -6.243  0.00  0.00    +0.000 C 
ATOM     14  N   UNL     1       0.209  -3.461  -6.942  0.00  0.00    +0.000 NA
ATOM     15  C   UNL     1       1.530  -4.041  -6.653  0.00  0.00    +0.000 C 
ATOM     16  C   UNL     1       0.243  -2.014  -6.702  0.00  0.00    +0.000 C 
ATOM     17  C   UNL     1      -1.135  -1.361  -6.740  0.00  0.00    +0.000 C 
ENDBRANCH  10  11
ENDBRANCH   8  10
ENDBRANCH   5   8
ENDBRANCH   1   2
BRANCH   1  20
ATOM     18  C   UNL     1       3.514   4.363  -3.675  0.00  0.00    +0.000 C 
ATOM     19  O   UNL     1       2.622   5.148  -3.350  0.00  0.00    +0.000 OA
ATOM     20  N   UNL     1       3.676   3.160  -3.052  0.00  0.00    +0.000 N 
ATOM     21  H   UNL     1       4.344   2.502  -3.424  0.00  0.00    +0.000 HD
BRANCH  18  29
ATOM     22  C   UNL     1       6.230   2.717  -5.006  0.00  0.00    +0.000 A 
ATOM     23  N   UNL     1       7.317   2.309  -5.689  0.00  0.00    +0.000 NA
ATOM     24  C   UNL     1       7.815   3.127  -6.625  0.00  0.00    +0.000 A 
ATOM     25  N   UNL     1       7.352   4.325  -6.964  0.00  0.00    +0.000 NA
ATOM     26  C   UNL     1       6.264   4.690  -6.266  0.00  0.00    +0.000 A 
ATOM     27  S   UNL     1       5.532   6.189  -6.579  0.00  0.00    +0.000 S 
ATOM     28  C   UNL     1       4.344   5.914  -5.396  0.00  0.00    +0.000 A 
ATOM     29  C   UNL     1       4.477   4.696  -4.739  0.00  0.00    +0.000 A 
ATOM     30  C   UNL     1       5.624   3.959  -5.269  0.00  0.00    +0.000 A 
BRANCH  22  32
ATOM     31  C   UNL     1       6.670   0.951  -3.541  0.00  0.00    +0.000 C 
ATOM     32  O   UNL     1       5.698   1.850  -4.072  0.00  0.00    +0.000 OA
ENDBRANCH  22  32
ENDBRANCH  18  29
ENDBRANCH   1  20
TORSDOF 7
