REMARK  Name = 
REMARK  6 active torsions:
REMARK  status: ('A' for Active; 'I' for Inactive)
REMARK    1  A    between atoms: N_1  and  C_2
REMARK    2  A    between atoms: C_2  and  C_3
REMARK    3  A    between atoms: C_3  and  C_4
REMARK    4  A    between atoms: C_7  and  O_8
REMARK    5  A    between atoms: O_8  and  C_9
REMARK    6  A    between atoms: C_9  and  C_10
REMARK                            x       y       z     vdW  Elec       q    Type
REMARK                         _______ _______ _______ _____ _____    ______ ____
ROOT
ATOM      1  C   UNL     1       4.371  -1.294   0.558  0.00  0.00    +0.000 A 
ATOM      2  C   UNL     1       5.047  -1.980   1.569  0.00  0.00    +0.000 A 
ATOM      3  C   UNL     1       6.445  -2.041   1.581  0.00  0.00    +0.000 A 
ATOM      4  C   UNL     1       7.183  -1.408   0.579  0.00  0.00    +0.000 A 
ATOM      5  C   UNL     1       6.519  -0.709  -0.422  0.00  0.00    +0.000 A 
ATOM      6  C   UNL     1       5.118  -0.651  -0.436  0.00  0.00    +0.000 A 
ENDROOT
BRANCH   1   7
ATOM      7  C   UNL     1       2.854  -1.294   0.554  0.00  0.00    +0.000 C 
BRANCH   7   8
ATOM      8  C   UNL     1       2.229  -0.135   1.339  0.00  0.00    +0.000 C 
BRANCH   8   9
ATOM      9  N   UNL     1       0.765  -0.203   1.316  0.00  0.00    +0.000 NA
ATOM     10  H   UNL     1       0.382   0.572   1.860  0.00  0.00    +0.000 HD
ATOM     11  H   UNL     1       0.450  -1.055   1.784  0.00  0.00    +0.000 HD
ENDBRANCH   8   9
ENDBRANCH   7   8
ENDBRANCH   1   7
BRANCH   4  12
ATOM     12  O   UNL     1       8.551  -1.368   0.526  0.00  0.00    +0.000 OA
BRANCH  12  13
ATOM     13  C   UNL     1       9.207  -2.520   1.056  0.00  0.00    +0.000 C 
BRANCH  13  14
ATOM     14  C   UNL     1      10.729  -2.376   0.882  0.00  0.00    +0.000 C 
ATOM     15  C   UNL     1      11.104  -2.243  -0.601  0.00  0.00    +0.000 C 
ATOM     16  C   UNL     1      10.844  -3.554  -1.341  0.00  0.00    +0.000 C 
ATOM     17  C   UNL     1      11.532  -4.728  -0.643  0.00  0.00    +0.000 C 
ATOM     18  N   UNL     1      11.173  -4.823   0.772  0.00  0.00    +0.000 NA
ATOM     19  C   UNL     1      11.468  -3.580   1.493  0.00  0.00    +0.000 C 
ATOM     20  H   UNL     1      11.693  -5.591   1.200  0.00  0.00    +0.000 HD
ENDBRANCH  13  14
ENDBRANCH  12  13
ENDBRANCH   4  12
TORSDOF 6
