REMARK  Name = 
REMARK  8 active torsions:
REMARK  status: ('A' for Active; 'I' for Inactive)
REMARK    1  A    between atoms: C_1  and  N_2
REMARK    2  A    between atoms: N_2  and  C_3
REMARK    3  A    between atoms: N_2  and  C_4
REMARK    4  A    between atoms: C_4  and  C_5
REMARK    5  A    between atoms: C_5  and  N_6
REMARK    6  A    between atoms: C_7  and  C_9
REMARK    7  A    between atoms: C_13  and  C_14
REMARK    8  A    between atoms: C_14  and  N_15
REMARK                            x       y       z     vdW  Elec       q    Type
REMARK                         _______ _______ _______ _____ _____    ______ ____
ROOT
ATOM      1  C   UNL     1       6.783   3.045  -3.193  0.00  0.00    +0.000 A 
ATOM      2  C   UNL     1       6.088   4.259  -3.243  0.00  0.00    +0.000 A 
ATOM      3  C   UNL     1       6.462   5.243  -4.159  0.00  0.00    +0.000 A 
ATOM      4  C   UNL     1       7.555   5.038  -5.001  0.00  0.00    +0.000 A 
ATOM      5  C   UNL     1       8.309   3.858  -4.921  0.00  0.00    +0.000 A 
ATOM      6  C   UNL     1       7.897   2.853  -4.027  0.00  0.00    +0.000 A 
ENDROOT
BRANCH   1   8
ATOM      7  N   UNL     1       5.121   2.004  -1.733  0.00  0.00    +0.000 N 
ATOM      8  C   UNL     1       6.409   1.970  -2.223  0.00  0.00    +0.000 C 
ATOM      9  O   UNL     1       7.226   1.113  -1.906  0.00  0.00    +0.000 OA
ATOM     10  H   UNL     1       4.410   2.555  -2.199  0.00  0.00    +0.000 HD
BRANCH   7  11
ATOM     11  C   UNL     1       4.625   1.004  -0.807  0.00  0.00    +0.000 C 
BRANCH  11  12
ATOM     12  C   UNL     1       3.410   1.518  -0.011  0.00  0.00    +0.000 C 
BRANCH  12  14
ATOM     13  C   UNL     1       1.674   0.882  -1.602  0.00  0.00    +0.000 C 
ATOM     14  N   UNL     1       2.271   1.984  -0.840  0.00  0.00    +0.000 NA
ATOM     15  C   UNL     1       1.244   2.573   0.032  0.00  0.00    +0.000 C 
ENDBRANCH  12  14
ENDBRANCH  11  12
ENDBRANCH   7  11
ENDBRANCH   1   8
BRANCH   5  16
ATOM     16  C   UNL     1       9.575   3.717  -5.733  0.00  0.00    +0.000 C 
BRANCH  16  17
ATOM     17  N   UNL     1       9.366   3.098  -7.032  0.00  0.00    +0.000 N 
ATOM     18  C   UNL     1       9.528   1.757  -7.297  0.00  0.00    +0.000 A 
ATOM     19  C   UNL     1       9.375   1.570  -8.654  0.00  0.00    +0.000 A 
ATOM     20  C   UNL     1       9.125   2.839  -9.238  0.00  0.00    +0.000 A 
ATOM     21  C   UNL     1       8.898   3.307 -10.542  0.00  0.00    +0.000 A 
ATOM     22  C   UNL     1       8.701   4.677 -10.713  0.00  0.00    +0.000 A 
ATOM     23  C   UNL     1       8.749   5.505  -9.601  0.00  0.00    +0.000 A 
ATOM     24  N   UNL     1       8.968   5.111  -8.325  0.00  0.00    +0.000 NA
ATOM     25  C   UNL     1       9.138   3.777  -8.206  0.00  0.00    +0.000 A 
ENDBRANCH  16  17
ENDBRANCH   5  16
TORSDOF 6
