REMARK  Name = 
REMARK  4 active torsions:
REMARK  status: ('A' for Active; 'I' for Inactive)
REMARK    1  A    between atoms: C_2  and  C_3
REMARK    2  A    between atoms: C_6  and  C_7
REMARK    3  A    between atoms: C_7  and  C_8
REMARK    4  A    between atoms: C_16  and  C_17
REMARK                            x       y       z     vdW  Elec       q    Type
REMARK                         _______ _______ _______ _____ _____    ______ ____
ROOT
ATOM      1  C   UNL     1      -3.968  -1.346   0.449  0.00  0.00    +0.000 A 
ATOM      2  C   UNL     1      -3.701  -2.535  -0.228  0.00  0.00    +0.000 A 
ATOM      3  C   UNL     1      -3.836  -3.735   0.448  0.00  0.00    +0.000 A 
ATOM      4  N   UNL     1      -4.219  -3.841   1.740  0.00  0.00    +0.000 NA
ATOM      5  C   UNL     1      -4.527  -2.706   2.397  0.00  0.00    +0.000 A 
ATOM      6  N   UNL     1      -4.880  -2.757   3.734  0.00  0.00    +0.000 N 
ATOM      7  C   UNL     1      -4.301  -3.776   4.598  0.00  0.00    +0.000 C 
ATOM      8  C   UNL     1      -5.354  -4.777   5.064  0.00  0.00    +0.000 C 
ATOM      9  C   UNL     1      -6.596  -4.080   5.635  0.00  0.00    +0.000 C 
ATOM     10  C   UNL     1      -7.145  -3.082   4.609  0.00  0.00    +0.000 C 
ATOM     11  C   UNL     1      -6.088  -2.069   4.170  0.00  0.00    +0.000 C 
ATOM     12  C   UNL     1      -4.424  -1.463   1.768  0.00  0.00    +0.000 A 
ENDROOT
BRANCH   9  13
ATOM     13  C   UNL     1      -6.328  -3.405   6.978  0.00  0.00    +0.000 C 
ATOM     14  N   UNL     1      -5.887  -4.227   7.972  0.00  0.00    +0.000 N 
ATOM     15  O   UNL     1      -6.517  -2.216   7.210  0.00  0.00    +0.000 OA
ATOM     16  H   UNL     1      -5.938  -5.233   7.906  0.00  0.00    +0.000 HD
ATOM     17  H   UNL     1      -5.786  -3.813   8.891  0.00  0.00    +0.000 HD
ENDBRANCH   9  13
BRANCH   1  18
ATOM     18  C   UNL     1      -3.596   0.014  -0.131  0.00  0.00    +0.000 C 
ATOM     19  C   UNL     1      -4.109   0.399  -1.512  0.00  0.00    +0.000 C 
ATOM     20  C   UNL     1      -4.679   1.070  -0.304  0.00  0.00    +0.000 C 
BRANCH  18  24
ATOM     21  C   UNL     1       0.452   0.862   1.023  0.00  0.00    +0.000 A 
ATOM     22  C   UNL     1      -0.582   1.371   1.802  0.00  0.00    +0.000 A 
ATOM     23  C   UNL     1      -1.903   1.155   1.404  0.00  0.00    +0.000 A 
ATOM     24  C   UNL     1      -2.170   0.436   0.233  0.00  0.00    +0.000 A 
ATOM     25  N   UNL     1      -1.155  -0.029  -0.545  0.00  0.00    +0.000 NA
ATOM     26  C   UNL     1       0.117   0.179  -0.133  0.00  0.00    +0.000 A 
BRANCH  21  28
ATOM     27  N   UNL     1       2.931   1.150   1.705  0.00  0.00    +0.000 NA
ATOM     28  C   UNL     1       1.817   1.021   1.399  0.00  0.00    +0.000 C 
ENDBRANCH  21  28
ENDBRANCH  18  24
ENDBRANCH   1  18
TORSDOF 4
