REMARK  Name = 
REMARK  5 active torsions:
REMARK  status: ('A' for Active; 'I' for Inactive)
REMARK    1  A    between atoms: C_2  and  C_4
REMARK    2  A    between atoms: N_8  and  C_9
REMARK    3  A    between atoms: C_9  and  C_10
REMARK    4  A    between atoms: C_13  and  S_14
REMARK    5  A    between atoms: S_14  and  C_17
REMARK                            x       y       z     vdW  Elec       q    Type
REMARK                         _______ _______ _______ _____ _____    ______ ____
ROOT
ATOM      1  C   UNL     1       5.038  -5.963  -0.900  0.00  0.00    +0.000 C 
ATOM      2  C   UNL     1       5.111  -5.985  -2.426  0.00  0.00    +0.000 C 
ATOM      3  C   UNL     1       3.812  -6.254  -1.752  0.00  0.00    +0.000 C 
ENDROOT
BRANCH   1   8
ATOM      4  C   UNL     1       3.218  -2.518   2.574  0.00  0.00    +0.000 A 
ATOM      5  C   UNL     1       2.514  -3.405   1.766  0.00  0.00    +0.000 A 
ATOM      6  C   UNL     1       3.204  -4.163   0.820  0.00  0.00    +0.000 A 
ATOM      7  C   UNL     1       4.578  -4.015   0.685  0.00  0.00    +0.000 A 
ATOM      8  N   UNL     1       5.324  -4.650  -0.306  0.00  0.00    +0.000 N 
ATOM      9  N   UNL     1       5.271  -3.151   1.460  0.00  0.00    +0.000 NA
ATOM     10  C   UNL     1       4.587  -2.421   2.380  0.00  0.00    +0.000 A 
ATOM     11  H   UNL     1       6.296  -4.410  -0.136  0.00  0.00    +0.000 HD
BRANCH   4  13
ATOM     12  N   UNL     1       1.366  -2.095   4.083  0.00  0.00    +0.000 N 
ATOM     13  C   UNL     1       2.563  -1.661   3.586  0.00  0.00    +0.000 C 
ATOM     14  O   UNL     1       3.077  -0.625   3.977  0.00  0.00    +0.000 OA
ATOM     15  H   UNL     1       0.958  -1.543   4.831  0.00  0.00    +0.000 HD
ATOM     16  H   UNL     1       1.028  -3.040   3.969  0.00  0.00    +0.000 HD
ENDBRANCH   4  13
ENDBRANCH   1   8
BRANCH   1  17
ATOM     17  C   UNL     1       5.697  -7.143  -0.181  0.00  0.00    +0.000 A 
ATOM     18  C   UNL     1       4.937  -8.121   0.488  0.00  0.00    +0.000 A 
ATOM     19  C   UNL     1       5.526  -9.272   1.018  0.00  0.00    +0.000 A 
ATOM     20  C   UNL     1       6.906  -9.449   0.901  0.00  0.00    +0.000 A 
ATOM     21  C   UNL     1       7.702  -8.459   0.325  0.00  0.00    +0.000 A 
ATOM     22  C   UNL     1       7.094  -7.321  -0.213  0.00  0.00    +0.000 A 
BRANCH  20  23
ATOM     23  S   UNL     1       7.663 -10.934   1.538  0.00  0.00    +0.000 S 
ATOM     24  O   UNL     1       9.025 -10.565   1.902  0.00  0.00    +0.000 OA
ATOM     25  O   UNL     1       6.762 -11.433   2.567  0.00  0.00    +0.000 OA
BRANCH  23  26
ATOM     26  C   UNL     1       7.661 -12.047   0.084  0.00  0.00    +0.000 C 
ATOM     27  F   UNL     1       7.050 -11.498  -1.006  0.00  0.00    +0.000 F 
ATOM     28  F   UNL     1       8.920 -12.385  -0.319  0.00  0.00    +0.000 F 
ATOM     29  F   UNL     1       7.011 -13.222   0.328  0.00  0.00    +0.000 F 
ENDBRANCH  23  26
ENDBRANCH  20  23
ENDBRANCH   1  17
TORSDOF 5
