REMARK  Name = 
REMARK  10 active torsions:
REMARK  status: ('A' for Active; 'I' for Inactive)
REMARK    1  A    between atoms: C_1  and  C_2
REMARK    2  A    between atoms: C_2  and  N_3
REMARK    3  A    between atoms: C_2  and  C_19
REMARK    4  A    between atoms: N_3  and  C_4
REMARK    5  A    between atoms: C_4  and  C_5
REMARK    6  A    between atoms: C_8  and  C_9
REMARK    7  A    between atoms: C_9  and  O_10
REMARK    8  A    between atoms: C_9  and  C_11
REMARK    9  A    between atoms: C_11  and  N_12
REMARK   10  A    between atoms: C_19  and  C_21
REMARK                            x       y       z     vdW  Elec       q    Type
REMARK                         _______ _______ _______ _____ _____    ______ ____
ROOT
ATOM      1  N   UNL     1       2.933   1.987  -1.946  0.00  0.00    +0.000 NA
ATOM      2  H   UNL     1       2.614   2.695  -2.605  0.00  0.00    +0.000 HD
ENDROOT
BRANCH   1   4
ATOM      3  C   UNL     1       1.114   0.472  -2.755  0.00  0.00    +0.000 C 
ATOM      4  C   UNL     1       2.614   0.650  -2.500  0.00  0.00    +0.000 C 
BRANCH   4   5
ATOM      5  C   UNL     1       3.194  -0.508  -1.651  0.00  0.00    +0.000 C 
ATOM      6  O   UNL     1       2.445  -1.277  -1.048  0.00  0.00    +0.000 OA
BRANCH   5   7
ATOM      7  C   UNL     1       4.654  -0.676  -1.539  0.00  0.00    +0.000 A 
ATOM      8  C   UNL     1       5.565   0.367  -1.530  0.00  0.00    +0.000 A 
ATOM      9  S   UNL     1       7.152  -0.130  -1.125  0.00  0.00    +0.000 S 
ATOM     10  C   UNL     1       6.670  -1.756  -0.997  0.00  0.00    +0.000 A 
ATOM     11  N   UNL     1       7.538  -2.726  -0.602  0.00  0.00    +0.000 NA
ATOM     12  C   UNL     1       7.016  -3.907  -0.540  0.00  0.00    +0.000 A 
ATOM     13  N   UNL     1       5.722  -4.214  -0.879  0.00  0.00    +0.000 N 
ATOM     14  C   UNL     1       4.858  -3.289  -1.425  0.00  0.00    +0.000 A 
ATOM     15  O   UNL     1       3.840  -3.633  -2.012  0.00  0.00    +0.000 OA
ATOM     16  C   UNL     1       5.344  -1.924  -1.345  0.00  0.00    +0.000 A 
ATOM     17  H   UNL     1       5.416  -5.174  -0.918  0.00  0.00    +0.000 HD
ENDBRANCH   5   7
ENDBRANCH   4   5
ENDBRANCH   1   4
BRANCH   1  18
ATOM     18  C   UNL     1       2.342   2.271  -0.635  0.00  0.00    +0.000 C 
BRANCH  18  19
ATOM     19  C   UNL     1       2.750   3.642  -0.132  0.00  0.00    +0.000 A 
ATOM     20  C   UNL     1       2.419   4.803  -0.844  0.00  0.00    +0.000 A 
ATOM     21  C   UNL     1       2.788   6.067  -0.370  0.00  0.00    +0.000 A 
ATOM     22  C   UNL     1       3.487   6.207   0.837  0.00  0.00    +0.000 A 
ATOM     23  C   UNL     1       3.806   5.046   1.555  0.00  0.00    +0.000 A 
ATOM     24  C   UNL     1       3.442   3.781   1.078  0.00  0.00    +0.000 A 
BRANCH  22  25
ATOM     25  C   UNL     1       3.900   7.588   1.311  0.00  0.00    +0.000 C 
BRANCH  25  26
ATOM     26  O   UNL     1       3.289   7.871   2.576  0.00  0.00    +0.000 OA
ATOM     27  H   UNL     1       3.550   7.165   3.190  0.00  0.00    +0.000 HD
ENDBRANCH  25  26
BRANCH  25  28
ATOM     28  C   UNL     1       5.439   7.781   1.441  0.00  0.00    +0.000 C 
BRANCH  28  29
ATOM     29  N   UNL     1       6.194   7.629   0.191  0.00  0.00    +0.000 NA
ATOM     30  C   UNL     1       5.827   8.611  -0.830  0.00  0.00    +0.000 C 
ATOM     31  C   UNL     1       7.126   8.813  -1.581  0.00  0.00    +0.000 C 
ATOM     32  N   UNL     1       8.121   8.780  -0.506  0.00  0.00    +0.000 NA
ATOM     33  C   UNL     1       7.636   7.729   0.385  0.00  0.00    +0.000 C 
ATOM     34  H   UNL     1       8.058   9.656   0.010  0.00  0.00    +0.000 HD
ENDBRANCH  28  29
ENDBRANCH  25  28
ENDBRANCH  22  25
ENDBRANCH  18  19
ENDBRANCH   1  18
TORSDOF 9
