REMARK  Name = 
REMARK  5 active torsions:
REMARK  status: ('A' for Active; 'I' for Inactive)
REMARK    1  A    between atoms: N_1  and  C_2
REMARK    2  A    between atoms: C_2  and  C_3
REMARK    3  A    between atoms: C_7  and  O_8
REMARK    4  A    between atoms: O_8  and  C_9
REMARK    5  A    between atoms: C_9  and  C_10
REMARK                            x       y       z     vdW  Elec       q    Type
REMARK                         _______ _______ _______ _____ _____    ______ ____
ROOT
ATOM      1  C   UNL     1       2.719  -1.067   0.868  0.00  0.00    +0.000 A 
ATOM      2  C   UNL     1       3.250  -0.904   2.152  0.00  0.00    +0.000 A 
ATOM      3  C   UNL     1       3.532  -2.022   2.941  0.00  0.00    +0.000 A 
ATOM      4  C   UNL     1       3.311  -3.307   2.442  0.00  0.00    +0.000 A 
ATOM      5  C   UNL     1       2.830  -3.479   1.146  0.00  0.00    +0.000 A 
ATOM      6  C   UNL     1       2.518  -2.362   0.376  0.00  0.00    +0.000 A 
ENDROOT
BRANCH   1   7
ATOM      7  C   UNL     1       2.349   0.107   0.002  0.00  0.00    +0.000 C 
BRANCH   7   8
ATOM      8  N   UNL     1       0.946   0.026  -0.394  0.00  0.00    +0.000 NA
ATOM      9  H   UNL     1       0.670   0.901  -0.838  0.00  0.00    +0.000 HD
ATOM     10  H   UNL     1       0.376  -0.066   0.446  0.00  0.00    +0.000 HD
ENDBRANCH   7   8
ENDBRANCH   1   7
BRANCH   5  11
ATOM     11  O   UNL     1       2.691  -4.771   0.715  0.00  0.00    +0.000 OA
BRANCH  11  12
ATOM     12  C   UNL     1       2.680  -4.920  -0.707  0.00  0.00    +0.000 C 
BRANCH  12  13
ATOM     13  C   UNL     1       3.006  -6.331  -1.044  0.00  0.00    +0.000 A 
ATOM     14  C   UNL     1       2.248  -7.087  -1.918  0.00  0.00    +0.000 A 
ATOM     15  N   UNL     1       2.558  -8.347  -2.272  0.00  0.00    +0.000 NA
ATOM     16  C   UNL     1       3.675  -8.845  -1.727  0.00  0.00    +0.000 A 
ATOM     17  N   UNL     1       4.498  -8.211  -0.881  0.00  0.00    +0.000 NA
ATOM     18  C   UNL     1       4.139  -6.955  -0.558  0.00  0.00    +0.000 A 
ENDBRANCH  12  13
ENDBRANCH  11  12
ENDBRANCH   5  11
TORSDOF 5
