REMARK  Name = 
REMARK  6 active torsions:
REMARK  status: ('A' for Active; 'I' for Inactive)
REMARK    1  A    between atoms: C_1  and  O_2
REMARK    2  A    between atoms: O_2  and  C_3
REMARK    3  A    between atoms: N_9  and  C_10
REMARK    4  A    between atoms: C_10  and  C_11
REMARK    5  A    between atoms: C_15  and  C_16
REMARK    6  A    between atoms: C_16  and  N_17
REMARK                            x       y       z     vdW  Elec       q    Type
REMARK                         _______ _______ _______ _____ _____    ______ ____
ROOT
ATOM      1  C   UNL     1       3.040  -0.242   1.301  0.00  0.00    +0.000 A 
ATOM      2  C   UNL     1       2.623  -1.153   2.268  0.00  0.00    +0.000 A 
ATOM      3  C   UNL     1       3.297  -1.247   3.491  0.00  0.00    +0.000 A 
ATOM      4  C   UNL     1       4.397  -0.409   3.752  0.00  0.00    +0.000 A 
ATOM      5  C   UNL     1       5.266  -0.263   4.863  0.00  0.00    +0.000 A 
ATOM      6  C   UNL     1       6.155   0.741   4.566  0.00  0.00    +0.000 A 
ATOM      7  N   UNL     1       5.868   1.211   3.304  0.00  0.00    +0.000 N 
ATOM      8  C   UNL     1       4.805   0.504   2.772  0.00  0.00    +0.000 A 
ATOM      9  C   UNL     1       4.153   0.581   1.528  0.00  0.00    +0.000 A 
ENDROOT
BRANCH   1  11
ATOM     10  C   UNL     1       1.056  -0.392   0.027  0.00  0.00    +0.000 C 
ATOM     11  O   UNL     1       2.448  -0.092   0.072  0.00  0.00    +0.000 OA
ENDBRANCH   1  11
BRANCH   7  12
ATOM     12  C   UNL     1       6.541   2.355   2.698  0.00  0.00    +0.000 C 
BRANCH  12  13
ATOM     13  C   UNL     1       7.798   1.942   1.975  0.00  0.00    +0.000 A 
ATOM     14  C   UNL     1       7.789   1.751   0.588  0.00  0.00    +0.000 A 
ATOM     15  C   UNL     1       8.928   1.284  -0.065  0.00  0.00    +0.000 A 
ATOM     16  C   UNL     1      10.087   1.001   0.659  0.00  0.00    +0.000 A 
ATOM     17  C   UNL     1      10.134   1.208   2.045  0.00  0.00    +0.000 A 
ATOM     18  C   UNL     1       8.981   1.684   2.689  0.00  0.00    +0.000 A 
BRANCH  17  19
ATOM     19  C   UNL     1      11.362   0.804   2.824  0.00  0.00    +0.000 C 
BRANCH  19  20
ATOM     20  N   UNL     1      11.675   1.717   3.920  0.00  0.00    +0.000 NA
ATOM     21  H   UNL     1      11.884   2.634   3.529  0.00  0.00    +0.000 HD
ATOM     22  H   UNL     1      12.528   1.399   4.377  0.00  0.00    +0.000 HD
ENDBRANCH  19  20
ENDBRANCH  17  19
ENDBRANCH  12  13
ENDBRANCH   7  12
TORSDOF 5
