REMARK  Name = 
REMARK  6 active torsions:
REMARK  status: ('A' for Active; 'I' for Inactive)
REMARK    1  A    between atoms: C_2  and  C_4
REMARK    2  A    between atoms: C_7  and  O_8
REMARK    3  A    between atoms: O_8  and  C_9
REMARK    4  A    between atoms: C_9  and  C_10
REMARK    5  A    between atoms: C_14  and  O_15
REMARK    6  A    between atoms: O_15  and  C_16
REMARK                            x       y       z     vdW  Elec       q    Type
REMARK                         _______ _______ _______ _____ _____    ______ ____
ROOT
ATOM      1  C   UNL     1       4.684   5.348  -2.664  0.00  0.00    +0.000 C 
ATOM      2  C   UNL     1       4.847   6.611  -1.832  0.00  0.00    +0.000 C 
ATOM      3  C   UNL     1       3.490   6.211  -2.301  0.00  0.00    +0.000 C 
ENDROOT
BRANCH   1   4
ATOM      4  C   UNL     1       5.178   5.288  -4.096  0.00  0.00    +0.000 A 
ATOM      5  C   UNL     1       6.551   5.271  -4.376  0.00  0.00    +0.000 A 
ATOM      6  C   UNL     1       7.022   4.993  -5.661  0.00  0.00    +0.000 A 
ATOM      7  C   UNL     1       6.128   4.755  -6.707  0.00  0.00    +0.000 A 
ATOM      8  C   UNL     1       4.758   4.849  -6.483  0.00  0.00    +0.000 A 
ATOM      9  C   UNL     1       4.300   5.110  -5.181  0.00  0.00    +0.000 A 
BRANCH   8  10
ATOM     10  O   UNL     1       3.763   4.658  -7.393  0.00  0.00    +0.000 OA
BRANCH  10  11
ATOM     11  C   UNL     1       4.014   4.800  -8.786  0.00  0.00    +0.000 C 
ATOM     12  F   UNL     1       5.168   5.429  -9.076  0.00  0.00    +0.000 F 
ATOM     13  F   UNL     1       4.019   3.578  -9.366  0.00  0.00    +0.000 F 
ATOM     14  F   UNL     1       3.004   5.516  -9.322  0.00  0.00    +0.000 F 
ENDBRANCH  10  11
ENDBRANCH   8  10
ENDBRANCH   1   4
BRANCH   1  15
ATOM     15  O   UNL     1       5.014   4.191  -1.860  0.00  0.00    +0.000 OA
BRANCH  15  19
ATOM     16  C   UNL     1       2.432   0.985  -1.305  0.00  0.00    +0.000 A 
ATOM     17  C   UNL     1       2.098   1.947  -2.265  0.00  0.00    +0.000 A 
ATOM     18  C   UNL     1       2.962   3.015  -2.515  0.00  0.00    +0.000 A 
ATOM     19  C   UNL     1       4.149   3.135  -1.798  0.00  0.00    +0.000 A 
ATOM     20  C   UNL     1       4.510   2.145  -0.883  0.00  0.00    +0.000 A 
ATOM     21  C   UNL     1       3.650   1.079  -0.625  0.00  0.00    +0.000 A 
BRANCH  16  23
ATOM     22  N   UNL     1       0.568  -0.477  -1.868  0.00  0.00    +0.000 N 
ATOM     23  C   UNL     1       1.490  -0.100  -0.934  0.00  0.00    +0.000 C 
ATOM     24  O   UNL     1       1.537  -0.642   0.163  0.00  0.00    +0.000 OA
ATOM     25  H   UNL     1      -0.026  -1.258  -1.623  0.00  0.00    +0.000 HD
ATOM     26  H   UNL     1       0.647  -0.230  -2.844  0.00  0.00    +0.000 HD
ENDBRANCH  16  23
ENDBRANCH  15  19
ENDBRANCH   1  15
TORSDOF 6
