REMARK  Name = 
REMARK  5 active torsions:
REMARK  status: ('A' for Active; 'I' for Inactive)
REMARK    1  A    between atoms: N_1  and  C_2
REMARK    2  A    between atoms: C_2  and  C_3
REMARK    3  A    between atoms: C_6  and  O_7
REMARK    4  A    between atoms: O_7  and  C_8
REMARK    5  A    between atoms: C_8  and  C_9
REMARK                            x       y       z     vdW  Elec       q    Type
REMARK                         _______ _______ _______ _____ _____    ______ ____
ROOT
ATOM      1  C   UNL     1       3.056  -1.712  -1.568  0.00  0.00    +0.000 A 
ATOM      2  C   UNL     1       4.271  -2.208  -2.040  0.00  0.00    +0.000 A 
ATOM      3  C   UNL     1       4.738  -3.436  -1.564  0.00  0.00    +0.000 A 
ATOM      4  C   UNL     1       3.982  -4.134  -0.634  0.00  0.00    +0.000 A 
ATOM      5  C   UNL     1       2.788  -3.561  -0.214  0.00  0.00    +0.000 A 
ATOM      6  N   UNL     1       2.309  -2.375  -0.652  0.00  0.00    +0.000 NA
ENDROOT
BRANCH   1   7
ATOM      7  C   UNL     1       2.484  -0.418  -2.106  0.00  0.00    +0.000 C 
BRANCH   7   8
ATOM      8  N   UNL     1       2.180  -0.492  -3.539  0.00  0.00    +0.000 NA
ATOM      9  H   UNL     1       1.590   0.303  -3.780  0.00  0.00    +0.000 HD
ATOM     10  H   UNL     1       1.600  -1.318  -3.689  0.00  0.00    +0.000 HD
ENDBRANCH   7   8
ENDBRANCH   1   7
BRANCH   4  11
ATOM     11  O   UNL     1       4.242  -5.370  -0.126  0.00  0.00    +0.000 OA
BRANCH  11  12
ATOM     12  C   UNL     1       5.597  -5.811  -0.100  0.00  0.00    +0.000 C 
BRANCH  12  13
ATOM     13  C   UNL     1       5.635  -7.237   0.470  0.00  0.00    +0.000 C 
ATOM     14  C   UNL     1       5.009  -7.319   1.872  0.00  0.00    +0.000 C 
ATOM     15  C   UNL     1       5.032  -8.760   2.377  0.00  0.00    +0.000 C 
ATOM     16  C   UNL     1       4.399  -9.718   1.368  0.00  0.00    +0.000 C 
ATOM     17  N   UNL     1       5.001  -9.591   0.040  0.00  0.00    +0.000 NA
ATOM     18  C   UNL     1       4.905  -8.217  -0.463  0.00  0.00    +0.000 C 
ATOM     19  H   UNL     1       4.515 -10.215  -0.605  0.00  0.00    +0.000 HD
ENDBRANCH  12  13
ENDBRANCH  11  12
ENDBRANCH   4  11
TORSDOF 5
