REMARK  Name = 
REMARK  8 active torsions:
REMARK  status: ('A' for Active; 'I' for Inactive)
REMARK    1  A    between atoms: C_1  and  C_2
REMARK    2  A    between atoms: C_4  and  O_5
REMARK    3  A    between atoms: O_5  and  C_6
REMARK    4  A    between atoms: C_6  and  C_7
REMARK    5  A    between atoms: C_7  and  C_8
REMARK    6  A    between atoms: C_7  and  C_9
REMARK    7  A    between atoms: C_13  and  O_14
REMARK    8  A    between atoms: O_14  and  C_15
REMARK                            x       y       z     vdW  Elec       q    Type
REMARK                         _______ _______ _______ _____ _____    ______ ____
ROOT
ATOM      1  C   UNL     1      -1.679  -6.054   0.035  0.00  0.00    +0.000 A 
ATOM      2  C   UNL     1      -0.302  -6.093   0.282  0.00  0.00    +0.000 A 
ATOM      3  C   UNL     1       0.365  -7.315   0.401  0.00  0.00    +0.000 A 
ATOM      4  C   UNL     1      -0.331  -8.520   0.265  0.00  0.00    +0.000 A 
ATOM      5  C   UNL     1      -1.698  -8.500   0.008  0.00  0.00    +0.000 A 
ATOM      6  C   UNL     1      -2.366  -7.275  -0.093  0.00  0.00    +0.000 A 
ENDROOT
BRANCH   1   7
ATOM      7  C   UNL     1      -2.394  -4.716  -0.107  0.00  0.00    +0.000 C 
ATOM      8  C   UNL     1      -3.438  -4.520   0.998  0.00  0.00    +0.000 C 
BRANCH   7   9
ATOM      9  C   UNL     1      -3.014  -4.579  -1.510  0.00  0.00    +0.000 C 
BRANCH   9  10
ATOM     10  O   UNL     1      -3.572  -3.273  -1.698  0.00  0.00    +0.000 OA
BRANCH  10  14
ATOM     11  C   UNL     1      -5.042  -4.579  -6.260  0.00  0.00    +0.000 C 
ATOM     12  C   UNL     1      -4.928  -3.610  -5.121  0.00  0.00    +0.000 A 
ATOM     13  C   UNL     1      -4.272  -3.973  -3.949  0.00  0.00    +0.000 A 
ATOM     14  C   UNL     1      -4.185  -3.053  -2.906  0.00  0.00    +0.000 A 
ATOM     15  C   UNL     1      -4.757  -1.797  -3.072  0.00  0.00    +0.000 A 
ATOM     16  C   UNL     1      -5.391  -1.516  -4.270  0.00  0.00    +0.000 A 
ATOM     17  N   UNL     1      -5.490  -2.392  -5.294  0.00  0.00    +0.000 NA
ENDBRANCH  10  14
ENDBRANCH   9  10
ENDBRANCH   7   9
ENDBRANCH   1   7
BRANCH   5  18
ATOM     18  O   UNL     1      -2.492  -9.612  -0.134  0.00  0.00    +0.000 OA
BRANCH  18  19
ATOM     19  C   UNL     1      -1.877 -10.882  -0.458  0.00  0.00    +0.000 C 
ATOM     20  C   UNL     1      -1.318 -11.062  -1.886  0.00  0.00    +0.000 C 
ATOM     21  N   UNL     1      -2.049 -12.312  -1.934  0.00  0.00    +0.000 N 
ATOM     22  C   UNL     1      -1.784 -13.438  -2.639  0.00  0.00    +0.000 C 
ATOM     23  N   UNL     1      -2.589 -14.495  -2.360  0.00  0.00    +0.000 N 
ATOM     24  O   UNL     1      -0.883 -13.541  -3.462  0.00  0.00    +0.000 OA
ATOM     25  C   UNL     1      -2.873 -12.019  -0.785  0.00  0.00    +0.000 C 
ATOM     26  H   UNL     1      -3.542 -14.296  -2.099  0.00  0.00    +0.000 HD
ATOM     27  H   UNL     1      -2.460 -15.279  -2.987  0.00  0.00    +0.000 HD
ENDBRANCH  18  19
ENDBRANCH   5  18
TORSDOF 6
