REMARK  Name = 
REMARK  6 active torsions:
REMARK  status: ('A' for Active; 'I' for Inactive)
REMARK    1  A    between atoms: N_1  and  C_2
REMARK    2  A    between atoms: C_2  and  C_3
REMARK    3  A    between atoms: C_3  and  C_4
REMARK    4  A    between atoms: C_7  and  C_8
REMARK    5  A    between atoms: C_8  and  C_9
REMARK    6  A    between atoms: C_15  and  C_16
REMARK                            x       y       z     vdW  Elec       q    Type
REMARK                         _______ _______ _______ _____ _____    ______ ____
ROOT
ATOM      1  C   UNL     1       9.248   2.324  -0.993  0.00  0.00    +0.000 A 
ATOM      2  C   UNL     1       9.491   3.098   0.129  0.00  0.00    +0.000 A 
ATOM      3  S   UNL     1      10.205   4.610  -0.240  0.00  0.00    +0.000 S 
ATOM      4  C   UNL     1      10.206   4.270  -1.905  0.00  0.00    +0.000 A 
ATOM      5  N   UNL     1      10.708   5.150  -2.800  0.00  0.00    +0.000 NA
ATOM      6  C   UNL     1      10.642   4.724  -4.087  0.00  0.00    +0.000 A 
ATOM      7  C   UNL     1      10.121   3.510  -4.516  0.00  0.00    +0.000 A 
ATOM      8  C   UNL     1       9.625   2.640  -3.548  0.00  0.00    +0.000 A 
ATOM      9  C   UNL     1       9.661   3.021  -2.190  0.00  0.00    +0.000 A 
ENDROOT
BRANCH   7  10
ATOM     10  C   UNL     1      10.114   3.191  -5.961  0.00  0.00    +0.000 C 
ATOM     11  N   UNL     1       9.603   1.989  -6.368  0.00  0.00    +0.000 N 
ATOM     12  O   UNL     1      10.555   3.982  -6.784  0.00  0.00    +0.000 OA
ATOM     13  H   UNL     1       9.241   1.266  -5.773  0.00  0.00    +0.000 HD
ATOM     14  H   UNL     1       9.619   1.805  -7.368  0.00  0.00    +0.000 HD
ENDBRANCH   7  10
BRANCH   1  15
ATOM     15  C   UNL     1       8.725   0.915  -0.974  0.00  0.00    +0.000 C 
BRANCH  15  19
ATOM     16  C   UNL     1       4.391   0.984  -0.994  0.00  0.00    +0.000 A 
ATOM     17  C   UNL     1       5.097   0.990  -2.202  0.00  0.00    +0.000 A 
ATOM     18  C   UNL     1       6.496   0.975  -2.207  0.00  0.00    +0.000 A 
ATOM     19  C   UNL     1       7.217   0.972  -1.003  0.00  0.00    +0.000 A 
ATOM     20  C   UNL     1       6.501   0.959   0.202  0.00  0.00    +0.000 A 
ATOM     21  C   UNL     1       5.105   0.942   0.207  0.00  0.00    +0.000 A 
BRANCH  16  22
ATOM     22  C   UNL     1       2.882   1.020  -0.987  0.00  0.00    +0.000 C 
BRANCH  22  23
ATOM     23  C   UNL     1       2.270  -0.379  -1.075  0.00  0.00    +0.000 C 
BRANCH  23  24
ATOM     24  N   UNL     1       0.809  -0.308  -1.088  0.00  0.00    +0.000 NA
ATOM     25  H   UNL     1       0.427  -1.247  -1.198  0.00  0.00    +0.000 HD
ATOM     26  H   UNL     1       0.498   0.223  -1.900  0.00  0.00    +0.000 HD
ENDBRANCH  23  24
ENDBRANCH  22  23
ENDBRANCH  16  22
ENDBRANCH  15  19
ENDBRANCH   1  15
TORSDOF 6
