REMARK  Name = 
REMARK  4 active torsions:
REMARK  status: ('A' for Active; 'I' for Inactive)
REMARK    1  A    between atoms: C_2  and  C_4
REMARK    2  A    between atoms: N_8  and  C_9
REMARK    3  A    between atoms: C_9  and  C_10
REMARK    4  A    between atoms: C_14  and  C_15
REMARK                            x       y       z     vdW  Elec       q    Type
REMARK                         _______ _______ _______ _____ _____    ______ ____
ROOT
ATOM      1  C   UNL     1       5.410  -3.879   4.204  0.00  0.00    +0.000 C 
ATOM      2  C   UNL     1       5.282  -5.281   3.620  0.00  0.00    +0.000 C 
ATOM      3  C   UNL     1       4.111  -4.657   4.302  0.00  0.00    +0.000 C 
ENDROOT
BRANCH   1   8
ATOM      4  C   UNL     1       3.923   0.968   3.011  0.00  0.00    +0.000 A 
ATOM      5  C   UNL     1       3.167  -0.069   3.549  0.00  0.00    +0.000 A 
ATOM      6  C   UNL     1       3.734  -1.340   3.669  0.00  0.00    +0.000 A 
ATOM      7  C   UNL     1       5.039  -1.550   3.246  0.00  0.00    +0.000 A 
ATOM      8  N   UNL     1       5.630  -2.816   3.204  0.00  0.00    +0.000 N 
ATOM      9  N   UNL     1       5.787  -0.548   2.732  0.00  0.00    +0.000 NA
ATOM     10  C   UNL     1       5.219   0.679   2.617  0.00  0.00    +0.000 A 
ATOM     11  H   UNL     1       6.600  -2.644   2.944  0.00  0.00    +0.000 HD
BRANCH   4  13
ATOM     12  N   UNL     1       2.337   2.713   3.591  0.00  0.00    +0.000 N 
ATOM     13  C   UNL     1       3.377   2.323   2.793  0.00  0.00    +0.000 C 
ATOM     14  O   UNL     1       3.844   3.073   1.947  0.00  0.00    +0.000 OA
ATOM     15  H   UNL     1       2.006   3.663   3.477  0.00  0.00    +0.000 HD
ATOM     16  H   UNL     1       2.087   2.230   4.443  0.00  0.00    +0.000 HD
ENDBRANCH   4  13
ENDBRANCH   1   8
BRANCH   1  17
ATOM     17  C   UNL     1       6.282  -3.708   5.445  0.00  0.00    +0.000 A 
ATOM     18  C   UNL     1       7.681  -3.790   5.340  0.00  0.00    +0.000 A 
ATOM     19  C   UNL     1       8.508  -3.498   6.420  0.00  0.00    +0.000 A 
ATOM     20  C   UNL     1       7.944  -3.121   7.636  0.00  0.00    +0.000 A 
ATOM     21  C   UNL     1       6.552  -3.017   7.797  0.00  0.00    +0.000 A 
ATOM     22  C   UNL     1       5.742  -3.352   6.697  0.00  0.00    +0.000 A 
BRANCH  21  23
ATOM     23  C   UNL     1       5.974  -2.498   9.059  0.00  0.00    +0.000 A 
ATOM     24  C   UNL     1       6.613  -1.450   9.741  0.00  0.00    +0.000 A 
ATOM     25  C   UNL     1       6.059  -0.956  10.914  0.00  0.00    +0.000 A 
ATOM     26  N   UNL     1       4.910  -1.415  11.446  0.00  0.00    +0.000 NA
ATOM     27  C   UNL     1       4.297  -2.414  10.779  0.00  0.00    +0.000 A 
ATOM     28  C   UNL     1       4.782  -2.976   9.606  0.00  0.00    +0.000 A 
ENDBRANCH  21  23
ENDBRANCH   1  17
TORSDOF 4
