REMARK  Name = 
REMARK  8 active torsions:
REMARK  status: ('A' for Active; 'I' for Inactive)
REMARK    1  A    between atoms: C_1  and  C_2
REMARK    2  A    between atoms: C_5  and  C_6
REMARK    3  A    between atoms: N_8  and  C_9
REMARK    4  A    between atoms: C_9  and  C_10
REMARK    5  A    between atoms: C_9  and  C_11
REMARK    6  A    between atoms: C_14  and  C_15
REMARK    7  A    between atoms: C_15  and  N_16
REMARK    8  A    between atoms: C_17  and  C_19
REMARK                            x       y       z     vdW  Elec       q    Type
REMARK                         _______ _______ _______ _____ _____    ______ ____
ROOT
ATOM      1  C   UNL     1      -6.266   1.318   0.119  0.00  0.00    +0.000 A 
ATOM      2  C   UNL     1      -6.257  -0.083   0.043  0.00  0.00    +0.000 A 
ATOM      3  C   UNL     1      -7.450  -0.819   0.134  0.00  0.00    +0.000 A 
ATOM      4  C   UNL     1      -8.684  -0.173   0.290  0.00  0.00    +0.000 A 
ATOM      5  C   UNL     1      -8.692   1.224   0.392  0.00  0.00    +0.000 A 
ATOM      6  C   UNL     1      -7.503   1.958   0.302  0.00  0.00    +0.000 A 
ENDROOT
BRANCH   1   7
ATOM      7  C   UNL     1      -4.967   2.119   0.032  0.00  0.00    +0.000 C 
ATOM      8  C   UNL     1      -4.696   2.833   1.363  0.00  0.00    +0.000 C 
BRANCH   7  11
ATOM      9  C   UNL     1      -3.944   3.818  -1.486  0.00  0.00    +0.000 C 
ATOM     10  O   UNL     1      -2.853   3.777  -0.930  0.00  0.00    +0.000 OA
ATOM     11  N   UNL     1      -5.019   3.055  -1.085  0.00  0.00    +0.000 N 
ATOM     12  H   UNL     1      -5.831   3.025  -1.680  0.00  0.00    +0.000 HD
BRANCH   9  17
ATOM     13  C   UNL     1      -2.858   7.274  -4.873  0.00  0.00    +0.000 C 
ATOM     14  C   UNL     1      -3.696   6.275  -4.165  0.00  0.00    +0.000 A 
ATOM     15  C   UNL     1      -4.992   5.866  -4.391  0.00  0.00    +0.000 A 
ATOM     16  C   UNL     1      -5.306   4.881  -3.423  0.00  0.00    +0.000 A 
ATOM     17  C   UNL     1      -4.194   4.691  -2.619  0.00  0.00    +0.000 A 
ATOM     18  N   UNL     1      -3.228   5.562  -3.088  0.00  0.00    +0.000 N 
ATOM     19  H   UNL     1      -2.307   5.647  -2.673  0.00  0.00    +0.000 HD
ENDBRANCH   9  17
ENDBRANCH   7  11
ENDBRANCH   1   7
BRANCH   4  20
ATOM     20  C   UNL     1      -9.977  -0.952   0.366  0.00  0.00    +0.000 C 
BRANCH  20  21
ATOM     21  N   UNL     1     -10.309  -1.312   1.723  0.00  0.00    +0.000 N 
ATOM     22  C   UNL     1     -11.413  -2.077   2.012  0.00  0.00    +0.000 C 
ATOM     23  O   UNL     1     -12.148  -2.519   1.135  0.00  0.00    +0.000 OA
ATOM     24  H   UNL     1      -9.881  -0.762   2.460  0.00  0.00    +0.000 HD
BRANCH  22  25
ATOM     25  C   UNL     1     -11.634  -2.396   3.430  0.00  0.00    +0.000 A 
ATOM     26  C   UNL     1     -12.356  -3.529   3.781  0.00  0.00    +0.000 A 
ATOM     27  S   UNL     1     -12.471  -3.773   5.467  0.00  0.00    +0.000 S 
ATOM     28  C   UNL     1     -11.606  -2.344   5.788  0.00  0.00    +0.000 A 
ATOM     29  N   UNL     1     -11.371  -1.939   7.065  0.00  0.00    +0.000 NA
ATOM     30  C   UNL     1     -10.729  -0.822   7.161  0.00  0.00    +0.000 A 
ATOM     31  N   UNL     1     -10.294  -0.078   6.095  0.00  0.00    +0.000 N 
ATOM     32  C   UNL     1     -10.481  -0.464   4.789  0.00  0.00    +0.000 A 
ATOM     33  O   UNL     1     -10.036   0.201   3.858  0.00  0.00    +0.000 OA
ATOM     34  C   UNL     1     -11.213  -1.704   4.625  0.00  0.00    +0.000 A 
ATOM     35  H   UNL     1      -9.786   0.783   6.235  0.00  0.00    +0.000 HD
ENDBRANCH  22  25
ENDBRANCH  20  21
ENDBRANCH   4  20
TORSDOF 6
