REMARK  Name = 
REMARK  6 active torsions:
REMARK  status: ('A' for Active; 'I' for Inactive)
REMARK    1  A    between atoms: N_1  and  C_2
REMARK    2  A    between atoms: C_2  and  C_3
REMARK    3  A    between atoms: C_6  and  O_7
REMARK    4  A    between atoms: O_7  and  C_8
REMARK    5  A    between atoms: C_8  and  C_9
REMARK    6  A    between atoms: C_9  and  N_10
REMARK                            x       y       z     vdW  Elec       q    Type
REMARK                         _______ _______ _______ _____ _____    ______ ____
ROOT
ATOM      1  O   UNL     1       4.273   0.047   5.288  0.00  0.00    +0.000 OA
ENDROOT
BRANCH   1   5
ATOM      2  C   UNL     1       3.068   0.567   1.377  0.00  0.00    +0.000 A 
ATOM      3  C   UNL     1       3.237  -0.720   1.896  0.00  0.00    +0.000 A 
ATOM      4  C   UNL     1       3.635  -0.886   3.220  0.00  0.00    +0.000 A 
ATOM      5  C   UNL     1       3.861   0.247   3.986  0.00  0.00    +0.000 A 
ATOM      6  N   UNL     1       3.701   1.504   3.520  0.00  0.00    +0.000 NA
ATOM      7  C   UNL     1       3.312   1.633   2.234  0.00  0.00    +0.000 A 
BRANCH   2   8
ATOM      8  C   UNL     1       2.683   0.806  -0.054  0.00  0.00    +0.000 C 
BRANCH   8   9
ATOM      9  N   UNL     1       1.411   0.177  -0.391  0.00  0.00    +0.000 NA
ATOM     10  H   UNL     1       1.152   0.439  -1.340  0.00  0.00    +0.000 HD
ATOM     11  H   UNL     1       0.684   0.551   0.217  0.00  0.00    +0.000 HD
ENDBRANCH   8   9
ENDBRANCH   2   8
ENDBRANCH   1   5
BRANCH   1  12
ATOM     12  C   UNL     1       4.499   1.282   5.993  0.00  0.00    +0.000 C 
BRANCH  12  13
ATOM     13  C   UNL     1       4.957   0.986   7.450  0.00  0.00    +0.000 C 
ATOM     14  C   UNL     1       3.936   0.098   8.198  0.00  0.00    +0.000 C 
ATOM     15  C   UNL     1       2.631   0.852   8.460  0.00  0.00    +0.000 C 
ATOM     16  C   UNL     1       2.888   2.179   9.174  0.00  0.00    +0.000 C 
ATOM     17  N   UNL     1       3.850   3.017   8.458  0.00  0.00    +0.000 NA
ATOM     18  C   UNL     1       5.122   2.317   8.234  0.00  0.00    +0.000 C 
ATOM     19  H   UNL     1       4.028   3.865   8.999  0.00  0.00    +0.000 HD
BRANCH  13  20
ATOM     20  N   UNL     1       6.258   0.274   7.408  0.00  0.00    +0.000 NA
ATOM     21  H   UNL     1       6.135  -0.576   6.854  0.00  0.00    +0.000 HD
ATOM     22  H   UNL     1       6.524  -0.024   8.344  0.00  0.00    +0.000 HD
ENDBRANCH  13  20
ENDBRANCH  12  13
ENDBRANCH   1  12
TORSDOF 6
