REMARK  Name = 
REMARK  12 active torsions:
REMARK  status: ('A' for Active; 'I' for Inactive)
REMARK    1  A    between atoms: C_1  and  C_2
REMARK    2  A    between atoms: C_2  and  N_3
REMARK    3  A    between atoms: N_3  and  C_4
REMARK    4  A    between atoms: N_3  and  C_5
REMARK    5  A    between atoms: C_5  and  C_6
REMARK    6  A    between atoms: C_9  and  C_10
REMARK    7  A    between atoms: C_10  and  C_11
REMARK    8  A    between atoms: C_10  and  C_12
REMARK    9  A    between atoms: C_10  and  C_13
REMARK   10  A    between atoms: C_13  and  N_14
REMARK   11  A    between atoms: N_14  and  C_15
REMARK   12  A    between atoms: C_18  and  C_19
REMARK                            x       y       z     vdW  Elec       q    Type
REMARK                         _______ _______ _______ _____ _____    ______ ____
ROOT
ATOM      1  C   UNL     1       6.280  -6.797  -0.492  0.00  0.00    +0.000 C 
ATOM      2  C   UNL     1       6.824  -7.004  -1.923  0.00  0.00    +0.000 C 
ATOM      3  C   UNL     1       7.410  -7.084   0.523  0.00  0.00    +0.000 C 
ENDROOT
BRANCH   1   7
ATOM      4  C   UNL     1       4.970  -2.791  -0.075  0.00  0.00    +0.000 A 
ATOM      5  C   UNL     1       4.121  -3.861   0.168  0.00  0.00    +0.000 A 
ATOM      6  N   UNL     1       4.529  -5.142   0.078  0.00  0.00    +0.000 NA
ATOM      7  C   UNL     1       5.815  -5.356  -0.292  0.00  0.00    +0.000 A 
ATOM      8  C   UNL     1       6.672  -4.274  -0.484  0.00  0.00    +0.000 A 
ATOM      9  N   UNL     1       6.277  -2.985  -0.385  0.00  0.00    +0.000 NA
BRANCH   4  10
ATOM     10  C   UNL     1       4.453  -1.373  -0.014  0.00  0.00    +0.000 C 
BRANCH  10  11
ATOM     11  N   UNL     1       3.822  -0.999   1.273  0.00  0.00    +0.000 NA
ATOM     12  C   UNL     1       3.242   0.343   1.148  0.00  0.00    +0.000 C 
BRANCH  11  14
ATOM     13  C   UNL     1       4.209  -0.760   3.735  0.00  0.00    +0.000 C 
ATOM     14  C   UNL     1       4.812  -1.057   2.368  0.00  0.00    +0.000 C 
ENDBRANCH  11  14
ENDBRANCH  10  11
ENDBRANCH   4  10
ENDBRANCH   1   7
BRANCH   1  15
ATOM     15  C   UNL     1       5.130  -7.818  -0.224  0.00  0.00    +0.000 C 
BRANCH  15  16
ATOM     16  N   UNL     1       4.022  -7.714  -1.177  0.00  0.00    +0.000 N 
ATOM     17  H   UNL     1       4.251  -7.424  -2.120  0.00  0.00    +0.000 HD
BRANCH  16  18
ATOM     18  C   UNL     1       2.873  -8.467  -1.041  0.00  0.00    +0.000 A 
ATOM     19  C   UNL     1       2.408  -9.001   0.148  0.00  0.00    +0.000 A 
ATOM     20  N   UNL     1       1.275  -9.730   0.282  0.00  0.00    +0.000 NA
ATOM     21  C   UNL     1       0.574  -9.906  -0.861  0.00  0.00    +0.000 A 
ATOM     22  N   UNL     1       0.895  -9.426  -2.073  0.00  0.00    +0.000 NA
ATOM     23  C   UNL     1       2.032  -8.706  -2.120  0.00  0.00    +0.000 A 
BRANCH  21  24
ATOM     24  C   UNL     1      -0.690 -10.722  -0.733  0.00  0.00    +0.000 C 
ATOM     25  N   UNL     1      -0.989 -11.152   0.539  0.00  0.00    +0.000 N 
ATOM     26  O   UNL     1      -1.421 -11.001  -1.671  0.00  0.00    +0.000 OA
ATOM     27  H   UNL     1      -0.381 -10.901   1.311  0.00  0.00    +0.000 HD
ATOM     28  H   UNL     1      -1.830 -11.684   0.690  0.00  0.00    +0.000 HD
ENDBRANCH  21  24
ENDBRANCH  16  18
ENDBRANCH  15  16
ENDBRANCH   1  15
TORSDOF 8
