REMARK  Name = 
REMARK  5 active torsions:
REMARK  status: ('A' for Active; 'I' for Inactive)
REMARK    1  A    between atoms: C_2  and  C_4
REMARK    2  A    between atoms: C_7  and  N_8
REMARK    3  A    between atoms: N_8  and  C_9
REMARK    4  A    between atoms: C_9  and  C_10
REMARK    5  A    between atoms: C_13  and  C_14
REMARK                            x       y       z     vdW  Elec       q    Type
REMARK                         _______ _______ _______ _____ _____    ______ ____
ROOT
ATOM      1  N   UNL     1       5.351   3.302   3.613  0.00  0.00    +0.000 N 
ATOM      2  H   UNL     1       5.917   4.000   3.140  0.00  0.00    +0.000 HD
ENDROOT
BRANCH   1   6
ATOM      3  C   UNL     1       3.473   0.432   1.242  0.00  0.00    +0.000 A 
ATOM      4  C   UNL     1       2.846   0.820   2.413  0.00  0.00    +0.000 A 
ATOM      5  C   UNL     1       3.446   1.808   3.195  0.00  0.00    +0.000 A 
ATOM      6  C   UNL     1       4.646   2.412   2.802  0.00  0.00    +0.000 A 
ATOM      7  C   UNL     1       5.190   1.935   1.603  0.00  0.00    +0.000 A 
ATOM      8  N   UNL     1       4.645   0.971   0.810  0.00  0.00    +0.000 NA
BRANCH   3  10
ATOM      9  N   UNL     1       3.546  -1.019  -0.728  0.00  0.00    +0.000 N 
ATOM     10  C   UNL     1       2.871  -0.649   0.403  0.00  0.00    +0.000 C 
ATOM     11  O   UNL     1       1.823  -1.216   0.718  0.00  0.00    +0.000 OA
ATOM     12  H   UNL     1       3.185  -1.805  -1.249  0.00  0.00    +0.000 HD
ATOM     13  H   UNL     1       4.508  -0.721  -0.865  0.00  0.00    +0.000 HD
ENDBRANCH   3  10
ENDBRANCH   1   6
BRANCH   1  14
ATOM     14  C   UNL     1       4.816   3.676   4.912  0.00  0.00    +0.000 C 
BRANCH  14  15
ATOM     15  C   UNL     1       5.702   4.660   5.633  0.00  0.00    +0.000 A 
ATOM     16  C   UNL     1       5.508   6.039   5.471  0.00  0.00    +0.000 A 
ATOM     17  C   UNL     1       6.272   6.955   6.199  0.00  0.00    +0.000 A 
ATOM     18  C   UNL     1       7.258   6.506   7.081  0.00  0.00    +0.000 A 
ATOM     19  C   UNL     1       7.454   5.130   7.248  0.00  0.00    +0.000 A 
ATOM     20  C   UNL     1       6.693   4.213   6.518  0.00  0.00    +0.000 A 
BRANCH  18  21
ATOM     21  C   UNL     1       8.095   7.461   7.818  0.00  0.00    +0.000 C 
ATOM     22  C   UNL     1       7.694   7.958   8.994  0.00  0.00    +0.000 C 
ATOM     23  C   UNL     1       8.573   8.835   9.839  0.00  0.00    +0.000 C 
ATOM     24  O   UNL     1       9.937   8.813   9.408  0.00  0.00    +0.000 OA
ATOM     25  C   UNL     1      10.055   9.005   7.997  0.00  0.00    +0.000 C 
ATOM     26  C   UNL     1       9.439   7.824   7.242  0.00  0.00    +0.000 C 
ENDBRANCH  18  21
ENDBRANCH  14  15
ENDBRANCH   1  14
TORSDOF 5
