REMARK  Name = 
REMARK  8 active torsions:
REMARK  status: ('A' for Active; 'I' for Inactive)
REMARK    1  A    between atoms: C_1  and  O_2
REMARK    2  A    between atoms: O_2  and  C_3
REMARK    3  A    between atoms: C_5  and  C_6
REMARK    4  A    between atoms: C_6  and  N_7
REMARK    5  A    between atoms: C_8  and  C_10
REMARK    6  A    between atoms: C_22  and  C_23
REMARK    7  A    between atoms: C_23  and  N_24
REMARK    8  A    between atoms: C_25  and  C_27
REMARK                            x       y       z     vdW  Elec       q    Type
REMARK                         _______ _______ _______ _____ _____    ______ ____
ROOT
ATOM      1  C   UNL     1       3.182  -0.761  -0.767  0.00  0.00    +0.000 A 
ATOM      2  C   UNL     1       2.854  -0.612  -2.130  0.00  0.00    +0.000 A 
ATOM      3  C   UNL     1       3.548  -1.309  -3.132  0.00  0.00    +0.000 A 
ATOM      4  C   UNL     1       4.608  -2.133  -2.750  0.00  0.00    +0.000 A 
ATOM      5  C   UNL     1       4.918  -2.312  -1.399  0.00  0.00    +0.000 A 
ATOM      6  C   UNL     1       4.191  -1.663  -0.384  0.00  0.00    +0.000 A 
ENDROOT
BRANCH   1   8
ATOM      7  C   UNL     1       3.006   0.593   1.182  0.00  0.00    +0.000 C 
ATOM      8  O   UNL     1       2.367  -0.060   0.087  0.00  0.00    +0.000 OA
ENDBRANCH   1   8
BRANCH   3   9
ATOM      9  C   UNL     1       3.196  -1.166  -4.593  0.00  0.00    +0.000 C 
BRANCH   9  10
ATOM     10  N   UNL     1       3.952  -0.105  -5.208  0.00  0.00    +0.000 N 
ATOM     11  C   UNL     1       3.760   0.253  -6.519  0.00  0.00    +0.000 C 
ATOM     12  O   UNL     1       2.911  -0.285  -7.225  0.00  0.00    +0.000 OA
ATOM     13  H   UNL     1       4.811   0.170  -4.743  0.00  0.00    +0.000 HD
BRANCH  11  14
ATOM     14  C   UNL     1       4.583   1.363  -7.019  0.00  0.00    +0.000 A 
ATOM     15  C   UNL     1       4.152   2.107  -8.109  0.00  0.00    +0.000 A 
ATOM     16  S   UNL     1       5.189   3.401  -8.509  0.00  0.00    +0.000 S 
ATOM     17  C   UNL     1       6.281   2.979  -7.275  0.00  0.00    +0.000 A 
ATOM     18  N   UNL     1       7.425   3.689  -7.079  0.00  0.00    +0.000 NA
ATOM     19  C   UNL     1       8.173   3.244  -6.125  0.00  0.00    +0.000 A 
ATOM     20  N   UNL     1       7.880   2.155  -5.346  0.00  0.00    +0.000 N 
ATOM     21  C   UNL     1       6.729   1.419  -5.496  0.00  0.00    +0.000 A 
ATOM     22  O   UNL     1       6.485   0.464  -4.765  0.00  0.00    +0.000 OA
ATOM     23  C   UNL     1       5.853   1.876  -6.558  0.00  0.00    +0.000 A 
ATOM     24  H   UNL     1       8.506   1.860  -4.612  0.00  0.00    +0.000 HD
ENDBRANCH  11  14
ENDBRANCH   9  10
ENDBRANCH   3   9
BRANCH   6  25
ATOM     25  C   UNL     1       4.504  -2.039   1.046  0.00  0.00    +0.000 C 
BRANCH  25  26
ATOM     26  N   UNL     1       3.338  -2.582   1.712  0.00  0.00    +0.000 N 
ATOM     27  C   UNL     1       3.345  -2.849   3.065  0.00  0.00    +0.000 C 
ATOM     28  O   UNL     1       4.321  -2.686   3.783  0.00  0.00    +0.000 OA
ATOM     29  H   UNL     1       2.453  -2.447   1.237  0.00  0.00    +0.000 HD
BRANCH  27  30
ATOM     30  C   UNL     1       2.067  -3.314   3.635  0.00  0.00    +0.000 A 
ATOM     31  C   UNL     1       1.121  -4.006   2.908  0.00  0.00    +0.000 A 
ATOM     32  N   UNL     1      -0.059  -4.429   3.415  0.00  0.00    +0.000 NA
ATOM     33  C   UNL     1      -0.268  -4.148   4.711  0.00  0.00    +0.000 A 
ATOM     34  N   UNL     1       0.583  -3.497   5.522  0.00  0.00    +0.000 NA
ATOM     35  C   UNL     1       1.749  -3.099   4.960  0.00  0.00    +0.000 A 
ENDBRANCH  27  30
ENDBRANCH  25  26
ENDBRANCH   6  25
TORSDOF 7
