REMARK  Name = 
REMARK  6 active torsions:
REMARK  status: ('A' for Active; 'I' for Inactive)
REMARK    1  A    between atoms: C_2  and  C_4
REMARK    2  A    between atoms: C_7  and  N_8
REMARK    3  A    between atoms: N_8  and  C_9
REMARK    4  A    between atoms: C_9  and  C_10
REMARK    5  A    between atoms: C_10  and  C_13
REMARK    6  A    between atoms: C_15  and  C_16
REMARK                            x       y       z     vdW  Elec       q    Type
REMARK                         _______ _______ _______ _____ _____    ______ ____
ROOT
ATOM      1  C   UNL     1       5.909  -4.276  -5.930  0.00  0.00    +0.000 C 
ATOM      2  F   UNL     1       7.234  -3.965  -5.815  0.00  0.00    +0.000 F 
ATOM      3  F   UNL     1       5.768  -5.476  -5.274  0.00  0.00    +0.000 F 
ENDROOT
BRANCH   1   4
ATOM      4  C   UNL     1       5.473  -4.370  -7.388  0.00  0.00    +0.000 A 
ATOM      5  C   UNL     1       5.622  -5.579  -8.067  0.00  0.00    +0.000 A 
ATOM      6  C   UNL     1       5.223  -5.695  -9.408  0.00  0.00    +0.000 A 
ATOM      7  C   UNL     1       4.701  -4.546 -10.018  0.00  0.00    +0.000 A 
ATOM      8  C   UNL     1       4.604  -3.374  -9.289  0.00  0.00    +0.000 A 
ATOM      9  N   UNL     1       4.970  -3.263  -7.999  0.00  0.00    +0.000 NA
BRANCH   6  10
ATOM     10  C   UNL     1       5.354  -6.974 -10.139  0.00  0.00    +0.000 A 
ATOM     11  C   UNL     1       5.216  -8.217  -9.502  0.00  0.00    +0.000 A 
ATOM     12  C   UNL     1       5.366  -9.406 -10.216  0.00  0.00    +0.000 A 
ATOM     13  C   UNL     1       5.639  -9.329 -11.569  0.00  0.00    +0.000 A 
ATOM     14  N   UNL     1       5.771  -8.166 -12.235  0.00  0.00    +0.000 NA
ATOM     15  C   UNL     1       5.633  -7.029 -11.508  0.00  0.00    +0.000 A 
ENDBRANCH   6  10
ENDBRANCH   1   4
BRANCH   1  16
ATOM     16  C   UNL     1       5.061  -3.229  -5.173  0.00  0.00    +0.000 C 
BRANCH  16  17
ATOM     17  N   UNL     1       5.405  -3.110  -3.744  0.00  0.00    +0.000 N 
ATOM     18  H   UNL     1       5.679  -3.982  -3.294  0.00  0.00    +0.000 HD
BRANCH  17  22
ATOM     19  C   UNL     1       3.517  -0.329  -1.203  0.00  0.00    +0.000 A 
ATOM     20  C   UNL     1       3.108  -0.429  -2.534  0.00  0.00    +0.000 A 
ATOM     21  C   UNL     1       3.714  -1.361  -3.382  0.00  0.00    +0.000 A 
ATOM     22  C   UNL     1       4.711  -2.230  -2.920  0.00  0.00    +0.000 A 
ATOM     23  C   UNL     1       5.124  -2.098  -1.588  0.00  0.00    +0.000 A 
ATOM     24  C   UNL     1       4.539  -1.156  -0.734  0.00  0.00    +0.000 A 
BRANCH  19  26
ATOM     25  N   UNL     1       1.626   1.038  -0.518  0.00  0.00    +0.000 N 
ATOM     26  C   UNL     1       2.918   0.664  -0.277  0.00  0.00    +0.000 C 
ATOM     27  O   UNL     1       3.534   1.105   0.684  0.00  0.00    +0.000 OA
ATOM     28  H   UNL     1       1.195   1.629   0.182  0.00  0.00    +0.000 HD
ATOM     29  H   UNL     1       1.017   0.517  -1.133  0.00  0.00    +0.000 HD
ENDBRANCH  19  26
ENDBRANCH  17  22
ENDBRANCH  16  17
ENDBRANCH   1  16
TORSDOF 6
