REMARK  Name = 
REMARK  5 active torsions:
REMARK  status: ('A' for Active; 'I' for Inactive)
REMARK    1  A    between atoms: C_2  and  C_4
REMARK    2  A    between atoms: C_7  and  N_8
REMARK    3  A    between atoms: N_8  and  C_9
REMARK    4  A    between atoms: C_9  and  C_10
REMARK    5  A    between atoms: C_14  and  C_15
REMARK                            x       y       z     vdW  Elec       q    Type
REMARK                         _______ _______ _______ _____ _____    ______ ____
ROOT
ATOM      1  C   UNL     1       5.063  -4.048  -4.481  0.00  0.00    +0.000 C 
ATOM      2  C   UNL     1       4.977  -3.214  -5.750  0.00  0.00    +0.000 C 
ATOM      3  C   UNL     1       3.731  -3.783  -5.165  0.00  0.00    +0.000 C 
ENDROOT
BRANCH   1   4
ATOM      4  C   UNL     1       5.549  -5.492  -4.542  0.00  0.00    +0.000 A 
ATOM      5  C   UNL     1       4.810  -6.547  -3.997  0.00  0.00    +0.000 A 
ATOM      6  C   UNL     1       5.285  -7.843  -4.118  0.00  0.00    +0.000 A 
ATOM      7  N   UNL     1       6.447  -8.165  -4.724  0.00  0.00    +0.000 NA
ATOM      8  C   UNL     1       7.194  -7.150  -5.220  0.00  0.00    +0.000 A 
ATOM      9  C   UNL     1       6.762  -5.826  -5.153  0.00  0.00    +0.000 A 
BRANCH   8  10
ATOM     10  C   UNL     1       8.472  -7.521  -5.858  0.00  0.00    +0.000 A 
ATOM     11  C   UNL     1       8.620  -8.749  -6.532  0.00  0.00    +0.000 A 
ATOM     12  C   UNL     1       9.815  -9.091  -7.174  0.00  0.00    +0.000 A 
ATOM     13  C   UNL     1      10.892  -8.209  -7.150  0.00  0.00    +0.000 A 
ATOM     14  C   UNL     1      10.766  -7.004  -6.475  0.00  0.00    +0.000 A 
ATOM     15  F   UNL     1      11.799  -6.150  -6.447  0.00  0.00    +0.000 F 
ATOM     16  C   UNL     1       9.581  -6.661  -5.831  0.00  0.00    +0.000 A 
ENDBRANCH   8  10
ENDBRANCH   1   4
BRANCH   1  17
ATOM     17  N   UNL     1       5.369  -3.374  -3.208  0.00  0.00    +0.000 N 
ATOM     18  H   UNL     1       4.602  -3.155  -2.582  0.00  0.00    +0.000 HD
BRANCH  17  22
ATOM     19  C   UNL     1       8.908  -1.204  -2.347  0.00  0.00    +0.000 A 
ATOM     20  C   UNL     1       8.706  -1.717  -3.628  0.00  0.00    +0.000 A 
ATOM     21  C   UNL     1       7.546  -2.441  -3.917  0.00  0.00    +0.000 A 
ATOM     22  C   UNL     1       6.548  -2.643  -2.955  0.00  0.00    +0.000 A 
ATOM     23  C   UNL     1       6.796  -2.179  -1.655  0.00  0.00    +0.000 A 
ATOM     24  C   UNL     1       7.964  -1.467  -1.348  0.00  0.00    +0.000 A 
BRANCH  19  26
ATOM     25  N   UNL     1      10.694   0.300  -3.031  0.00  0.00    +0.000 N 
ATOM     26  C   UNL     1      10.112  -0.403  -2.010  0.00  0.00    +0.000 C 
ATOM     27  O   UNL     1      10.547  -0.336  -0.867  0.00  0.00    +0.000 OA
ATOM     28  H   UNL     1      11.442   0.929  -2.769  0.00  0.00    +0.000 HD
ATOM     29  H   UNL     1      10.225   0.476  -3.908  0.00  0.00    +0.000 HD
ENDBRANCH  19  26
ENDBRANCH  17  22
ENDBRANCH   1  17
TORSDOF 5
