REMARK  Name = 
REMARK  4 active torsions:
REMARK  status: ('A' for Active; 'I' for Inactive)
REMARK    1  A    between atoms: C_2  and  C_4
REMARK    2  A    between atoms: N_8  and  C_9
REMARK    3  A    between atoms: C_9  and  C_10
REMARK    4  A    between atoms: C_14  and  C_15
REMARK                            x       y       z     vdW  Elec       q    Type
REMARK                         _______ _______ _______ _____ _____    ______ ____
ROOT
ATOM      1  C   UNL     1       5.244  -5.251  -2.973  0.00  0.00    +0.000 C 
ENDROOT
BRANCH   1   6
ATOM      2  C   UNL     1       2.130  -1.750  -5.028  0.00  0.00    +0.000 A 
ATOM      3  C   UNL     1       2.432  -2.044  -3.704  0.00  0.00    +0.000 A 
ATOM      4  C   UNL     1       3.307  -3.093  -3.426  0.00  0.00    +0.000 A 
ATOM      5  C   UNL     1       3.867  -3.831  -4.466  0.00  0.00    +0.000 A 
ATOM      6  N   UNL     1       4.734  -4.870  -4.264  0.00  0.00    +0.000 N 
ATOM      7  N   UNL     1       3.564  -3.564  -5.752  0.00  0.00    +0.000 NA
ATOM      8  C   UNL     1       2.701  -2.545  -6.009  0.00  0.00    +0.000 A 
ATOM      9  H   UNL     1       5.093  -5.300  -5.107  0.00  0.00    +0.000 HD
BRANCH   2  11
ATOM     10  N   UNL     1       1.127   0.409  -4.553  0.00  0.00    +0.000 N 
ATOM     11  C   UNL     1       1.223  -0.652  -5.412  0.00  0.00    +0.000 C 
ATOM     12  O   UNL     1       0.607  -0.670  -6.471  0.00  0.00    +0.000 OA
ATOM     13  H   UNL     1       0.588   1.201  -4.876  0.00  0.00    +0.000 HD
ATOM     14  H   UNL     1       1.795   0.573  -3.813  0.00  0.00    +0.000 HD
ENDBRANCH   2  11
ENDBRANCH   1   6
BRANCH   1  15
ATOM     15  C   UNL     1       6.236  -6.379  -3.096  0.00  0.00    +0.000 A 
ATOM     16  C   UNL     1       7.601  -6.118  -3.256  0.00  0.00    +0.000 A 
ATOM     17  C   UNL     1       8.512  -7.170  -3.305  0.00  0.00    +0.000 A 
ATOM     18  C   UNL     1       8.065  -8.489  -3.186  0.00  0.00    +0.000 A 
ATOM     19  C   UNL     1       6.700  -8.790  -3.030  0.00  0.00    +0.000 A 
ATOM     20  C   UNL     1       5.798  -7.711  -3.012  0.00  0.00    +0.000 A 
BRANCH  19  21
ATOM     21  C   UNL     1       6.245 -10.180  -2.825  0.00  0.00    +0.000 A 
ATOM     22  C   UNL     1       4.997 -10.641  -3.255  0.00  0.00    +0.000 A 
ATOM     23  C   UNL     1       4.606 -11.946  -2.952  0.00  0.00    +0.000 A 
ATOM     24  C   UNL     1       5.470 -12.752  -2.233  0.00  0.00    +0.000 A 
ATOM     25  F   UNL     1       5.122 -14.005  -1.916  0.00  0.00    +0.000 F 
ATOM     26  C   UNL     1       6.695 -12.241  -1.851  0.00  0.00    +0.000 A 
ATOM     27  N   UNL     1       7.101 -10.980  -2.133  0.00  0.00    +0.000 NA
ENDBRANCH  19  21
ENDBRANCH   1  15
TORSDOF 4
