REMARK  Name = 
REMARK  5 active torsions:
REMARK  status: ('A' for Active; 'I' for Inactive)
REMARK    1  A    between atoms: C_2  and  C_4
REMARK    2  A    between atoms: C_7  and  O_8
REMARK    3  A    between atoms: O_8  and  C_9
REMARK    4  A    between atoms: C_9  and  C_10
REMARK    5  A    between atoms: C_12  and  C_13
REMARK                            x       y       z     vdW  Elec       q    Type
REMARK                         _______ _______ _______ _____ _____    ______ ____
ROOT
ATOM      1  C   UNL     1       5.182  -2.746   5.120  0.00  0.00    +0.000 C 
ENDROOT
BRANCH   1   2
ATOM      2  C   UNL     1       6.211  -2.919   6.215  0.00  0.00    +0.000 A 
ATOM      3  C   UNL     1       6.789  -1.818   6.821  0.00  0.00    +0.000 A 
ATOM      4  C   UNL     1       7.682  -2.050   7.852  0.00  0.00    +0.000 A 
ATOM      5  N   UNL     1       7.987  -3.301   8.256  0.00  0.00    +0.000 NA
ATOM      6  C   UNL     1       7.362  -4.304   7.623  0.00  0.00    +0.000 A 
ATOM      7  N   UNL     1       6.481  -4.178   6.621  0.00  0.00    +0.000 NA
BRANCH   4   8
ATOM      8  C   UNL     1       8.347  -0.951   8.578  0.00  0.00    +0.000 A 
ATOM      9  C   UNL     1       9.646  -1.106   9.100  0.00  0.00    +0.000 A 
ATOM     10  C   UNL     1      10.289  -0.068   9.786  0.00  0.00    +0.000 A 
ATOM     11  C   UNL     1       9.639   1.149   9.966  0.00  0.00    +0.000 A 
ATOM     12  C   UNL     1       8.358   1.316   9.464  0.00  0.00    +0.000 A 
ATOM     13  F   UNL     1       7.725   2.483   9.636  0.00  0.00    +0.000 F 
ATOM     14  C   UNL     1       7.713   0.288   8.781  0.00  0.00    +0.000 A 
ENDBRANCH   4   8
ENDBRANCH   1   2
BRANCH   1  15
ATOM     15  O   UNL     1       5.462  -1.568   4.349  0.00  0.00    +0.000 OA
BRANCH  15  19
ATOM     16  C   UNL     1       2.658  -0.840   1.429  0.00  0.00    +0.000 A 
ATOM     17  C   UNL     1       3.724   0.048   1.599  0.00  0.00    +0.000 A 
ATOM     18  C   UNL     1       4.668  -0.210   2.595  0.00  0.00    +0.000 A 
ATOM     19  C   UNL     1       4.509  -1.343   3.380  0.00  0.00    +0.000 A 
ATOM     20  N   UNL     1       3.486  -2.209   3.243  0.00  0.00    +0.000 NA
ATOM     21  C   UNL     1       2.579  -1.936   2.277  0.00  0.00    +0.000 A 
BRANCH  16  23
ATOM     22  N   UNL     1       1.920   0.036  -0.715  0.00  0.00    +0.000 N 
ATOM     23  C   UNL     1       1.601  -0.664   0.414  0.00  0.00    +0.000 C 
ATOM     24  O   UNL     1       0.492  -1.161   0.558  0.00  0.00    +0.000 OA
ATOM     25  H   UNL     1       1.217   0.041  -1.444  0.00  0.00    +0.000 HD
ATOM     26  H   UNL     1       2.873   0.226  -0.987  0.00  0.00    +0.000 HD
ENDBRANCH  16  23
ENDBRANCH  15  19
ENDBRANCH   1  15
TORSDOF 5
