REMARK  Name = 
REMARK  6 active torsions:
REMARK  status: ('A' for Active; 'I' for Inactive)
REMARK    1  A    between atoms: C_2  and  C_19
REMARK    2  A    between atoms: N_3  and  C_4
REMARK    3  A    between atoms: C_4  and  C_5
REMARK    4  A    between atoms: C_8  and  C_9
REMARK    5  A    between atoms: C_9  and  C_10
REMARK    6  A    between atoms: C_14  and  O_15
REMARK                            x       y       z     vdW  Elec       q    Type
REMARK                         _______ _______ _______ _____ _____    ______ ____
ROOT
ATOM      1  C   UNL     1       2.402  -2.205  -0.787  0.00  0.00    +0.000 C 
ENDROOT
BRANCH   1   2
ATOM      2  C   UNL     1       3.344  -3.311  -1.183  0.00  0.00    +0.000 A 
ATOM      3  C   UNL     1       4.624  -3.009  -1.661  0.00  0.00    +0.000 A 
ATOM      4  C   UNL     1       5.516  -4.030  -1.997  0.00  0.00    +0.000 A 
ATOM      5  C   UNL     1       5.140  -5.375  -1.880  0.00  0.00    +0.000 A 
ATOM      6  C   UNL     1       3.846  -5.676  -1.435  0.00  0.00    +0.000 A 
ATOM      7  C   UNL     1       2.953  -4.654  -1.100  0.00  0.00    +0.000 A 
BRANCH   5   8
ATOM      8  C   UNL     1       6.108  -6.479  -2.237  0.00  0.00    +0.000 C 
BRANCH   8   9
ATOM      9  C   UNL     1       6.981  -6.956  -1.098  0.00  0.00    +0.000 A 
ATOM     10  C   UNL     1       8.232  -6.368  -0.859  0.00  0.00    +0.000 A 
ATOM     11  C   UNL     1       9.065  -6.851   0.155  0.00  0.00    +0.000 A 
ATOM     12  C   UNL     1       8.650  -7.914   0.956  0.00  0.00    +0.000 A 
ATOM     13  C   UNL     1       7.396  -8.477   0.743  0.00  0.00    +0.000 A 
ATOM     14  C   UNL     1       6.565  -8.011  -0.273  0.00  0.00    +0.000 A 
BRANCH  13  15
ATOM     15  O   UNL     1       6.941  -9.505   1.516  0.00  0.00    +0.000 OA
ATOM     16  H   UNL     1       7.567  -9.638   2.246  0.00  0.00    +0.000 HD
ENDBRANCH  13  15
ENDBRANCH   8   9
ENDBRANCH   5   8
ENDBRANCH   1   2
BRANCH   1  19
ATOM     17  O   UNL     1       2.794  -0.015  -2.521  0.00  0.00    +0.000 OA
ATOM     18  C   UNL     1       1.845  -0.770  -2.715  0.00  0.00    +0.000 C 
ATOM     19  N   UNL     1       1.554  -1.819  -1.885  0.00  0.00    +0.000 N 
ATOM     20  H   UNL     1       0.876  -2.512  -2.181  0.00  0.00    +0.000 HD
BRANCH  18  21
ATOM     21  C   UNL     1       0.916  -0.560  -3.833  0.00  0.00    +0.000 A 
ATOM     22  C   UNL     1       0.811   0.696  -4.417  0.00  0.00    +0.000 A 
ATOM     23  S   UNL     1      -0.319   0.763  -5.693  0.00  0.00    +0.000 S 
ATOM     24  C   UNL     1      -0.676  -0.894  -5.538  0.00  0.00    +0.000 A 
ATOM     25  N   UNL     1      -1.565  -1.499  -6.371  0.00  0.00    +0.000 NA
ATOM     26  C   UNL     1      -1.707  -2.764  -6.168  0.00  0.00    +0.000 A 
ATOM     27  N   UNL     1      -1.058  -3.478  -5.196  0.00  0.00    +0.000 N 
ATOM     28  C   UNL     1      -0.216  -2.895  -4.282  0.00  0.00    +0.000 A 
ATOM     29  O   UNL     1       0.231  -3.537  -3.337  0.00  0.00    +0.000 OA
ATOM     30  C   UNL     1       0.030  -1.483  -4.503  0.00  0.00    +0.000 A 
ATOM     31  H   UNL     1      -1.243  -4.463  -5.066  0.00  0.00    +0.000 HD
ENDBRANCH  18  21
ENDBRANCH   1  19
TORSDOF 6
