REMARK  Name = 
REMARK  10 active torsions:
REMARK  status: ('A' for Active; 'I' for Inactive)
REMARK    1  A    between atoms: C_1  and  C_2
REMARK    2  A    between atoms: N_5  and  C_6
REMARK    3  A    between atoms: C_6  and  C_7
REMARK    4  A    between atoms: C_6  and  N_8
REMARK    5  A    between atoms: N_8  and  C_9
REMARK    6  A    between atoms: C_9  and  C_10
REMARK    7  A    between atoms: C_9  and  C_11
REMARK    8  A    between atoms: C_14  and  C_15
REMARK    9  A    between atoms: C_15  and  N_16
REMARK   10  A    between atoms: C_17  and  C_19
REMARK                            x       y       z     vdW  Elec       q    Type
REMARK                         _______ _______ _______ _____ _____    ______ ____
ROOT
ATOM      1  C   UNL     1       5.937  -5.355   0.021  0.00  0.00    +0.000 A 
ATOM      2  C   UNL     1       6.839  -6.374  -0.318  0.00  0.00    +0.000 A 
ATOM      3  C   UNL     1       6.446  -7.713  -0.287  0.00  0.00    +0.000 A 
ATOM      4  C   UNL     1       5.130  -8.056   0.049  0.00  0.00    +0.000 A 
ATOM      5  C   UNL     1       4.246  -7.043   0.444  0.00  0.00    +0.000 A 
ATOM      6  C   UNL     1       4.644  -5.708   0.432  0.00  0.00    +0.000 A 
ENDROOT
BRANCH   1   7
ATOM      7  C   UNL     1       6.382  -3.906  -0.043  0.00  0.00    +0.000 C 
ATOM      8  C   UNL     1       5.484  -3.118  -1.009  0.00  0.00    +0.000 C 
BRANCH   7   9
ATOM      9  N   UNL     1       6.406  -3.259   1.284  0.00  0.00    +0.000 NA
ATOM     10  H   UNL     1       6.780  -2.314   1.148  0.00  0.00    +0.000 HD
BRANCH   9  11
ATOM     11  C   UNL     1       7.341  -3.912   2.242  0.00  0.00    +0.000 C 
ATOM     12  C   UNL     1       7.265  -3.220   3.602  0.00  0.00    +0.000 C 
BRANCH  11  17
ATOM     13  C   UNL     1      10.942  -2.038  -0.347  0.00  0.00    +0.000 C 
ATOM     14  C   UNL     1      10.268  -3.031   0.519  0.00  0.00    +0.000 A 
ATOM     15  C   UNL     1      10.561  -4.405   0.676  0.00  0.00    +0.000 A 
ATOM     16  C   UNL     1       9.549  -4.896   1.468  0.00  0.00    +0.000 A 
ATOM     17  N   UNL     1       8.711  -3.840   1.709  0.00  0.00    +0.000 N 
ATOM     18  N   UNL     1       9.180  -2.673   1.209  0.00  0.00    +0.000 NA
ENDBRANCH  11  17
ENDBRANCH   9  11
ENDBRANCH   7   9
ENDBRANCH   1   7
BRANCH   4  19
ATOM     19  C   UNL     1       4.674  -9.488   0.022  0.00  0.00    +0.000 C 
BRANCH  19  20
ATOM     20  N   UNL     1       4.781 -10.079   1.327  0.00  0.00    +0.000 N 
ATOM     21  C   UNL     1       4.393 -11.367   1.574  0.00  0.00    +0.000 C 
ATOM     22  O   UNL     1       3.831 -12.061   0.732  0.00  0.00    +0.000 OA
ATOM     23  H   UNL     1       5.364  -9.591   1.998  0.00  0.00    +0.000 HD
BRANCH  21  24
ATOM     24  C   UNL     1       4.676 -11.870   2.921  0.00  0.00    +0.000 A 
ATOM     25  C   UNL     1       3.897 -12.874   3.479  0.00  0.00    +0.000 A 
ATOM     26  S   UNL     1       4.441 -13.377   5.016  0.00  0.00    +0.000 S 
ATOM     27  C   UNL     1       5.778 -12.324   4.956  0.00  0.00    +0.000 A 
ATOM     28  N   UNL     1       6.746 -12.348   5.906  0.00  0.00    +0.000 NA
ATOM     29  C   UNL     1       7.695 -11.493   5.717  0.00  0.00    +0.000 A 
ATOM     30  N   UNL     1       7.750 -10.589   4.695  0.00  0.00    +0.000 N 
ATOM     31  C   UNL     1       6.768 -10.501   3.734  0.00  0.00    +0.000 A 
ATOM     32  O   UNL     1       6.797  -9.608   2.890  0.00  0.00    +0.000 OA
ATOM     33  C   UNL     1       5.734 -11.509   3.833  0.00  0.00    +0.000 A 
ATOM     34  H   UNL     1       8.477  -9.895   4.648  0.00  0.00    +0.000 HD
ENDBRANCH  21  24
ENDBRANCH  19  20
ENDBRANCH   4  19
TORSDOF 7
