REMARK  Name = 
REMARK  6 active torsions:
REMARK  status: ('A' for Active; 'I' for Inactive)
REMARK    1  A    between atoms: C_1  and  C_2
REMARK    2  A    between atoms: C_4  and  C_5
REMARK    3  A    between atoms: C_10  and  N_11
REMARK    4  A    between atoms: N_11  and  C_12
REMARK    5  A    between atoms: C_12  and  C_13
REMARK    6  A    between atoms: C_17  and  C_18
REMARK                            x       y       z     vdW  Elec       q    Type
REMARK                         _______ _______ _______ _____ _____    ______ ____
ROOT
ATOM      1  N   UNL     1       0.937  -2.432  -0.156  0.00  0.00    +0.000 N 
ATOM      2  H   UNL     1       0.362  -3.138   0.293  0.00  0.00    +0.000 HD
ENDROOT
BRANCH   1   9
ATOM      3  C   UNL     1      -1.987  -2.034  -0.083  0.00  0.00    +0.000 C 
ATOM      4  C   UNL     1      -0.985  -0.911  -0.031  0.00  0.00    +0.000 A 
ATOM      5  C   UNL     1      -1.483   0.410   0.008  0.00  0.00    +0.000 A 
ATOM      6  C   UNL     1      -0.629   1.521   0.044  0.00  0.00    +0.000 A 
ATOM      7  C   UNL     1       0.745   1.302   0.026  0.00  0.00    +0.000 A 
ATOM      8  C   UNL     1       1.244  -0.004  -0.025  0.00  0.00    +0.000 A 
ATOM      9  C   UNL     1       0.410  -1.134  -0.025  0.00  0.00    +0.000 A 
BRANCH   6  10
ATOM     10  C   UNL     1      -1.229   2.882   0.080  0.00  0.00    +0.000 C 
ATOM     11  N   UNL     1      -0.399   3.967   0.122  0.00  0.00    +0.000 N 
ATOM     12  O   UNL     1      -2.446   3.045   0.077  0.00  0.00    +0.000 OA
ATOM     13  H   UNL     1       0.607   3.936   0.135  0.00  0.00    +0.000 HD
ATOM     14  H   UNL     1      -0.844   4.876   0.146  0.00  0.00    +0.000 HD
ENDBRANCH   6  10
ENDBRANCH   1   9
BRANCH   1  15
ATOM     15  C   UNL     1       2.373  -2.623   0.042  0.00  0.00    +0.000 C 
BRANCH  15  16
ATOM     16  C   UNL     1       2.764  -4.072   0.022  0.00  0.00    +0.000 A 
ATOM     17  C   UNL     1       3.550  -4.613   1.031  0.00  0.00    +0.000 A 
ATOM     18  N   UNL     1       4.014  -5.879   1.027  0.00  0.00    +0.000 NA
ATOM     19  C   UNL     1       3.680  -6.645  -0.041  0.00  0.00    +0.000 A 
ATOM     20  C   UNL     1       2.894  -6.229  -1.118  0.00  0.00    +0.000 A 
ATOM     21  C   UNL     1       2.444  -4.902  -1.059  0.00  0.00    +0.000 A 
BRANCH  20  22
ATOM     22  C   UNL     1       2.544  -7.120  -2.243  0.00  0.00    +0.000 A 
ATOM     23  C   UNL     1       2.354  -8.497  -2.057  0.00  0.00    +0.000 A 
ATOM     24  C   UNL     1       1.990  -9.288  -3.137  0.00  0.00    +0.000 A 
ATOM     25  N   UNL     1       1.798  -8.815  -4.383  0.00  0.00    +0.000 NA
ATOM     26  C   UNL     1       1.984  -7.492  -4.558  0.00  0.00    +0.000 A 
ATOM     27  C   UNL     1       2.358  -6.625  -3.542  0.00  0.00    +0.000 A 
ENDBRANCH  20  22
ENDBRANCH  15  16
ENDBRANCH   1  15
TORSDOF 5
