REMARK  Name = 
REMARK  10 active torsions:
REMARK  status: ('A' for Active; 'I' for Inactive)
REMARK    1  A    between atoms: C_1  and  C_2
REMARK    2  A    between atoms: C_4  and  O_5
REMARK    3  A    between atoms: O_5  and  C_6
REMARK    4  A    between atoms: C_6  and  C_7
REMARK    5  A    between atoms: C_7  and  C_8
REMARK    6  A    between atoms: C_7  and  C_9
REMARK    7  A    between atoms: C_7  and  C_10
REMARK    8  A    between atoms: C_12  and  O_13
REMARK    9  A    between atoms: O_13  and  C_14
REMARK   10  A    between atoms: C_23  and  C_24
REMARK                            x       y       z     vdW  Elec       q    Type
REMARK                         _______ _______ _______ _____ _____    ______ ____
ROOT
ATOM      1  C   UNL     1      -1.113   3.571   0.001  0.00  0.00    +0.000 C 
ENDROOT
BRANCH   1   2
ATOM      2  C   UNL     1      -2.061   4.801   0.032  0.00  0.00    +0.000 C 
ATOM      3  C   UNL     1      -2.958   4.759  -1.226  0.00  0.00    +0.000 C 
ATOM      4  C   UNL     1      -2.981   4.699   1.269  0.00  0.00    +0.000 C 
BRANCH   2   5
ATOM      5  C   UNL     1      -1.251   6.101   0.116  0.00  0.00    +0.000 A 
ATOM      6  C   UNL     1      -0.378   6.312   1.183  0.00  0.00    +0.000 A 
ATOM      7  C   UNL     1       0.354   7.489   1.251  0.00  0.00    +0.000 A 
ATOM      8  C   UNL     1       0.232   8.426   0.237  0.00  0.00    +0.000 A 
ATOM      9  C   UNL     1      -0.658   8.155  -0.785  0.00  0.00    +0.000 A 
ATOM     10  N   UNL     1      -1.407   7.031  -0.858  0.00  0.00    +0.000 NA
BRANCH   7  11
ATOM     11  O   UNL     1       1.241   7.767   2.264  0.00  0.00    +0.000 OA
BRANCH  11  12
ATOM     12  C   UNL     1       0.914   7.274   3.582  0.00  0.00    +0.000 C 
ATOM     13  C   UNL     1       1.918   7.614   4.693  0.00  0.00    +0.000 C 
ATOM     14  C   UNL     1       1.755   6.150   5.084  0.00  0.00    +0.000 C 
ATOM     15  O   UNL     1       1.165   5.850   3.795  0.00  0.00    +0.000 OA
ENDBRANCH  11  12
ENDBRANCH   7  11
ENDBRANCH   2   5
ENDBRANCH   1   2
BRANCH   1  16
ATOM     16  O   UNL     1      -0.301   3.611  -1.178  0.00  0.00    +0.000 OA
BRANCH  16  20
ATOM     17  C   UNL     1       1.036  -1.105  -0.518  0.00  0.00    +0.000 C 
ATOM     18  C   UNL     1       0.816   0.073  -1.428  0.00  0.00    +0.000 A 
ATOM     19  C   UNL     1       0.382   1.286  -0.852  0.00  0.00    +0.000 A 
ATOM     20  C   UNL     1       0.148   2.408  -1.641  0.00  0.00    +0.000 A 
ATOM     21  C   UNL     1       0.389   2.352  -3.011  0.00  0.00    +0.000 A 
ATOM     22  C   UNL     1       0.816   1.161  -3.602  0.00  0.00    +0.000 A 
ATOM     23  C   UNL     1       1.032   0.014  -2.821  0.00  0.00    +0.000 A 
BRANCH  23  24
ATOM     24  C   UNL     1       1.457  -1.256  -3.488  0.00  0.00    +0.000 C 
ATOM     25  N   UNL     1       2.187  -1.148  -4.640  0.00  0.00    +0.000 N 
ATOM     26  O   UNL     1       1.188  -2.362  -3.042  0.00  0.00    +0.000 OA
ATOM     27  H   UNL     1       2.586  -0.282  -4.972  0.00  0.00    +0.000 HD
ATOM     28  H   UNL     1       2.531  -2.014  -5.037  0.00  0.00    +0.000 HD
ENDBRANCH  23  24
ENDBRANCH  16  20
ENDBRANCH   1  16
TORSDOF 7
