REMARK  Name = 
REMARK  13 active torsions:
REMARK  status: ('A' for Active; 'I' for Inactive)
REMARK    1  A    between atoms: C_1  and  O_2
REMARK    2  A    between atoms: O_2  and  C_3
REMARK    3  A    between atoms: C_5  and  C_6
REMARK    4  A    between atoms: C_11  and  C_12
REMARK    5  A    between atoms: N_14  and  C_15
REMARK    6  A    between atoms: C_15  and  C_16
REMARK    7  A    between atoms: C_19  and  C_20
REMARK    8  A    between atoms: C_20  and  C_21
REMARK    9  A    between atoms: C_21  and  N_22
REMARK   10  A    between atoms: N_22  and  C_23
REMARK   11  A    between atoms: N_26  and  C_27
REMARK   12  A    between atoms: C_27  and  C_28
REMARK   13  A    between atoms: C_28  and  O_29
REMARK                            x       y       z     vdW  Elec       q    Type
REMARK                         _______ _______ _______ _____ _____    ______ ____
ROOT
ATOM      1  C   UNL     1       5.800   4.836  -2.916  0.00  0.00    +0.000 A 
ATOM      2  C   UNL     1       7.085   4.598  -3.413  0.00  0.00    +0.000 A 
ATOM      3  C   UNL     1       7.913   5.668  -3.765  0.00  0.00    +0.000 A 
ATOM      4  C   UNL     1       7.470   6.987  -3.650  0.00  0.00    +0.000 A 
ATOM      5  C   UNL     1       6.204   7.218  -3.101  0.00  0.00    +0.000 A 
ATOM      6  C   UNL     1       5.371   6.155  -2.736  0.00  0.00    +0.000 A 
ENDROOT
BRANCH   1   7
ATOM      7  C   UNL     1       4.914   3.679  -2.536  0.00  0.00    +0.000 C 
BRANCH   7  10
ATOM      8  C   UNL     1       4.366   2.316  -0.585  0.00  0.00    +0.000 C 
ATOM      9  O   UNL     1       3.516   1.687  -1.208  0.00  0.00    +0.000 OA
ATOM     10  N   UNL     1       5.057   3.357  -1.142  0.00  0.00    +0.000 N 
ATOM     11  H   UNL     1       5.824   3.782  -0.637  0.00  0.00    +0.000 HD
BRANCH   8  20
ATOM     12  C   UNL     1       7.183   2.656   1.252  0.00  0.00    +0.000 A 
ATOM     13  N   UNL     1       8.154   2.681   2.185  0.00  0.00    +0.000 NA
ATOM     14  C   UNL     1       7.873   2.236   3.419  0.00  0.00    +0.000 A 
ATOM     15  C   UNL     1       8.970   2.299   4.437  0.00  0.00    +0.000 C 
ATOM     16  N   UNL     1       6.695   1.756   3.830  0.00  0.00    +0.000 NA
ATOM     17  C   UNL     1       5.754   1.754   2.872  0.00  0.00    +0.000 A 
ATOM     18  S   UNL     1       4.193   1.174   3.216  0.00  0.00    +0.000 S 
ATOM     19  C   UNL     1       3.677   1.465   1.621  0.00  0.00    +0.000 A 
ATOM     20  C   UNL     1       4.661   2.023   0.818  0.00  0.00    +0.000 A 
ATOM     21  C   UNL     1       5.898   2.190   1.563  0.00  0.00    +0.000 A 
BRANCH  12  23
ATOM     22  C   UNL     1       8.847   3.177  -0.310  0.00  0.00    +0.000 C 
ATOM     23  O   UNL     1       7.456   3.160  -0.002  0.00  0.00    +0.000 OA
ENDBRANCH  12  23
ENDBRANCH   8  20
ENDBRANCH   7  10
ENDBRANCH   1   7
BRANCH   4  24
ATOM     24  C   UNL     1       8.327   8.170  -4.055  0.00  0.00    +0.000 C 
BRANCH  24  25
ATOM     25  C   UNL     1       9.391   7.917  -5.143  0.00  0.00    +0.000 C 
BRANCH  25  26
ATOM     26  N   UNL     1       8.848   7.383  -6.402  0.00  0.00    +0.000 NA
ATOM     27  H   UNL     1       8.119   8.018  -6.735  0.00  0.00    +0.000 HD
BRANCH  26  28
ATOM     28  C   UNL     1       9.870   7.221  -7.453  0.00  0.00    +0.000 C 
ATOM     29  C   UNL     1       9.222   6.779  -8.771  0.00  0.00    +0.000 C 
ATOM     30  C   UNL     1       8.791   5.309  -8.764  0.00  0.00    +0.000 C 
ATOM     31  N   UNL     1       9.915   4.402  -8.473  0.00  0.00    +0.000 NA
ATOM     32  C   UNL     1      10.528   4.759  -7.175  0.00  0.00    +0.000 C 
ATOM     33  C   UNL     1      10.986   6.218  -7.118  0.00  0.00    +0.000 C 
BRANCH  31  34
ATOM     34  C   UNL     1       9.464   2.986  -8.415  0.00  0.00    +0.000 C 
BRANCH  34  35
ATOM     35  C   UNL     1       8.905   2.438  -9.740  0.00  0.00    +0.000 C 
BRANCH  35  36
ATOM     36  O   UNL     1       9.867   2.547 -10.784  0.00  0.00    +0.000 OA
ATOM     37  H   UNL     1      10.210   3.459 -10.724  0.00  0.00    +0.000 HD
ENDBRANCH  35  36
ENDBRANCH  34  35
ENDBRANCH  31  34
ENDBRANCH  26  28
ENDBRANCH  25  26
ENDBRANCH  24  25
ENDBRANCH   4  24
TORSDOF 11
