REMARK  Name = 
REMARK  7 active torsions:
REMARK  status: ('A' for Active; 'I' for Inactive)
REMARK    1  A    between atoms: C_2  and  C_19
REMARK    2  A    between atoms: N_3  and  C_4
REMARK    3  A    between atoms: C_4  and  C_5
REMARK    4  A    between atoms: C_8  and  C_9
REMARK    5  A    between atoms: C_9  and  N_10
REMARK    6  A    between atoms: N_10  and  C_11
REMARK    7  A    between atoms: C_11  and  C_12
REMARK                            x       y       z     vdW  Elec       q    Type
REMARK                         _______ _______ _______ _____ _____    ______ ____
ROOT
ATOM      1  C   UNL     1       2.261   1.507   1.858  0.00  0.00    +0.000 C 
ENDROOT
BRANCH   1   2
ATOM      2  C   UNL     1       3.179   2.265   2.781  0.00  0.00    +0.000 A 
ATOM      3  C   UNL     1       3.150   3.664   2.798  0.00  0.00    +0.000 A 
ATOM      4  C   UNL     1       3.934   4.384   3.703  0.00  0.00    +0.000 A 
ATOM      5  C   UNL     1       4.763   3.724   4.623  0.00  0.00    +0.000 A 
ATOM      6  C   UNL     1       4.822   2.323   4.574  0.00  0.00    +0.000 A 
ATOM      7  C   UNL     1       4.044   1.601   3.660  0.00  0.00    +0.000 A 
BRANCH   5   8
ATOM      8  C   UNL     1       5.627   4.480   5.615  0.00  0.00    +0.000 C 
BRANCH   8   9
ATOM      9  N   UNL     1       5.006   5.736   6.024  0.00  0.00    +0.000 NA
ATOM     10  H   UNL     1       4.095   5.535   6.434  0.00  0.00    +0.000 HD
BRANCH   9  11
ATOM     11  C   UNL     1       5.819   6.496   6.973  0.00  0.00    +0.000 C 
BRANCH  11  12
ATOM     12  C   UNL     1       5.086   7.803   7.330  0.00  0.00    +0.000 C 
ATOM     13  C   UNL     1       4.823   8.707   6.132  0.00  0.00    +0.000 C 
ATOM     14  C   UNL     1       4.485  10.025   6.799  0.00  0.00    +0.000 C 
ATOM     15  C   UNL     1       5.323  10.027   8.071  0.00  0.00    +0.000 C 
ATOM     16  N   UNL     1       5.863   8.672   8.223  0.00  0.00    +0.000 NA
ATOM     17  H   UNL     1       5.786   8.358   9.189  0.00  0.00    +0.000 HD
ENDBRANCH  11  12
ENDBRANCH   9  11
ENDBRANCH   8   9
ENDBRANCH   5   8
ENDBRANCH   1   2
BRANCH   1  20
ATOM     18  O   UNL     1       1.918   3.211  -0.331  0.00  0.00    +0.000 OA
ATOM     19  C   UNL     1       2.602   2.202  -0.469  0.00  0.00    +0.000 C 
ATOM     20  N   UNL     1       2.810   1.302   0.548  0.00  0.00    +0.000 N 
ATOM     21  H   UNL     1       3.545   0.604   0.463  0.00  0.00    +0.000 HD
BRANCH  19  22
ATOM     22  C   UNL     1       3.220   1.878  -1.749  0.00  0.00    +0.000 A 
ATOM     23  C   UNL     1       2.646   2.295  -2.945  0.00  0.00    +0.000 A 
ATOM     24  S   UNL     1       3.569   1.867  -4.318  0.00  0.00    +0.000 S 
ATOM     25  C   UNL     1       4.763   1.129  -3.351  0.00  0.00    +0.000 A 
ATOM     26  N   UNL     1       5.877   0.578  -3.901  0.00  0.00    +0.000 NA
ATOM     27  C   UNL     1       6.704   0.083  -3.045  0.00  0.00    +0.000 A 
ATOM     28  N   UNL     1       6.512   0.076  -1.682  0.00  0.00    +0.000 N 
ATOM     29  C   UNL     1       5.377   0.545  -1.090  0.00  0.00    +0.000 A 
ATOM     30  O   UNL     1       5.175   0.372   0.106  0.00  0.00    +0.000 OA
ATOM     31  C   UNL     1       4.442   1.172  -2.008  0.00  0.00    +0.000 A 
ATOM     32  H   UNL     1       7.177  -0.375  -1.068  0.00  0.00    +0.000 HD
ENDBRANCH  19  22
ENDBRANCH   1  20
TORSDOF 7
