REMARK  Name = 
REMARK  6 active torsions:
REMARK  status: ('A' for Active; 'I' for Inactive)
REMARK    1  A    between atoms: C_2  and  C_4
REMARK    2  A    between atoms: N_8  and  C_9
REMARK    3  A    between atoms: C_9  and  C_10
REMARK    4  A    between atoms: C_14  and  C_15
REMARK    5  A    between atoms: C_19  and  O_20
REMARK    6  A    between atoms: O_20  and  C_21
REMARK                            x       y       z     vdW  Elec       q    Type
REMARK                         _______ _______ _______ _____ _____    ______ ____
ROOT
ATOM      1  C   UNL     1       6.380  -2.330  -4.478  0.00  0.00    +0.000 C 
ATOM      2  C   UNL     1       6.211  -1.371  -3.303  0.00  0.00    +0.000 C 
ATOM      3  C   UNL     1       5.013  -1.788  -4.089  0.00  0.00    +0.000 C 
ENDROOT
BRANCH   1   8
ATOM      4  C   UNL     1       5.044  -7.147  -5.502  0.00  0.00    +0.000 A 
ATOM      5  C   UNL     1       4.508  -5.916  -5.777  0.00  0.00    +0.000 A 
ATOM      6  N   UNL     1       5.045  -4.755  -5.343  0.00  0.00    +0.000 NA
ATOM      7  C   UNL     1       6.168  -4.833  -4.609  0.00  0.00    +0.000 A 
ATOM      8  N   UNL     1       6.783  -3.686  -4.122  0.00  0.00    +0.000 N 
ATOM      9  N   UNL     1       6.757  -5.996  -4.280  0.00  0.00    +0.000 NA
ATOM     10  C   UNL     1       6.171  -7.135  -4.717  0.00  0.00    +0.000 A 
ATOM     11  H   UNL     1       7.720  -3.903  -3.812  0.00  0.00    +0.000 HD
BRANCH   4  13
ATOM     12  N   UNL     1       3.759  -8.384  -7.146  0.00  0.00    +0.000 N 
ATOM     13  C   UNL     1       4.468  -8.414  -5.978  0.00  0.00    +0.000 C 
ATOM     14  O   UNL     1       4.652  -9.457  -5.367  0.00  0.00    +0.000 OA
ATOM     15  H   UNL     1       3.459  -9.284  -7.504  0.00  0.00    +0.000 HD
ATOM     16  H   UNL     1       3.807  -7.622  -7.806  0.00  0.00    +0.000 HD
ENDBRANCH   4  13
ENDBRANCH   1   8
BRANCH   1  17
ATOM     17  C   UNL     1       6.962  -1.788  -5.781  0.00  0.00    +0.000 A 
ATOM     18  C   UNL     1       6.356  -2.071  -7.016  0.00  0.00    +0.000 A 
ATOM     19  C   UNL     1       6.796  -1.475  -8.195  0.00  0.00    +0.000 A 
ATOM     20  C   UNL     1       7.853  -0.566  -8.162  0.00  0.00    +0.000 A 
ATOM     21  C   UNL     1       8.503  -0.252  -6.957  0.00  0.00    +0.000 A 
ATOM     22  C   UNL     1       8.060  -0.906  -5.791  0.00  0.00    +0.000 A 
BRANCH  21  23
ATOM     23  C   UNL     1       9.549   0.790  -6.892  0.00  0.00    +0.000 A 
ATOM     24  C   UNL     1       9.453   1.967  -7.642  0.00  0.00    +0.000 A 
ATOM     25  N   UNL     1      10.346   2.982  -7.617  0.00  0.00    +0.000 NA
ATOM     26  C   UNL     1      11.394   2.836  -6.779  0.00  0.00    +0.000 A 
ATOM     27  C   UNL     1      11.587   1.735  -5.956  0.00  0.00    +0.000 A 
ATOM     28  C   UNL     1      10.665   0.690  -6.042  0.00  0.00    +0.000 A 
BRANCH  27  29
ATOM     29  O   UNL     1      12.687   1.770  -5.152  0.00  0.00    +0.000 OA
BRANCH  29  30
ATOM     30  C   UNL     1      12.576   1.045  -3.939  0.00  0.00    +0.000 C 
ATOM     31  F   UNL     1      12.901  -0.249  -4.174  0.00  0.00    +0.000 F 
ATOM     32  F   UNL     1      13.513   1.537  -3.089  0.00  0.00    +0.000 F 
ENDBRANCH  29  30
ENDBRANCH  27  29
ENDBRANCH  21  23
ENDBRANCH   1  17
TORSDOF 6
