REMARK  Name = 
REMARK  5 active torsions:
REMARK  status: ('A' for Active; 'I' for Inactive)
REMARK    1  A    between atoms: N_1  and  C_2
REMARK    2  A    between atoms: C_2  and  C_3
REMARK    3  A    between atoms: N_7  and  C_8
REMARK    4  A    between atoms: C_8  and  C_9
REMARK    5  A    between atoms: C_14  and  O_15
REMARK                            x       y       z     vdW  Elec       q    Type
REMARK                         _______ _______ _______ _____ _____    ______ ____
ROOT
ATOM      1  C   UNL     1      10.121   8.045  -6.081  0.00  0.00    +0.000 A 
ATOM      2  C   UNL     1       9.785   7.236  -4.997  0.00  0.00    +0.000 A 
ATOM      3  C   UNL     1       8.457   6.874  -4.785  0.00  0.00    +0.000 A 
ATOM      4  C   UNL     1       7.481   7.308  -5.670  0.00  0.00    +0.000 A 
ATOM      5  N   UNL     1       6.140   7.095  -5.516  0.00  0.00    +0.000 N 
ATOM      6  N   UNL     1       7.791   8.071  -6.737  0.00  0.00    +0.000 NA
ATOM      7  C   UNL     1       9.084   8.432  -6.914  0.00  0.00    +0.000 A 
ATOM      8  H   UNL     1       5.691   7.263  -6.409  0.00  0.00    +0.000 HD
ENDROOT
BRANCH   1   9
ATOM      9  C   UNL     1      11.534   8.483  -6.319  0.00  0.00    +0.000 C 
BRANCH   9  10
ATOM     10  N   UNL     1      12.411   7.341  -6.540  0.00  0.00    +0.000 NA
ATOM     11  H   UNL     1      13.345   7.672  -6.774  0.00  0.00    +0.000 HD
ATOM     12  H   UNL     1      12.079   6.818  -7.350  0.00  0.00    +0.000 HD
ENDBRANCH   9  10
ENDBRANCH   1   9
BRANCH   5  13
ATOM     13  C   UNL     1       5.521   6.196  -4.573  0.00  0.00    +0.000 C 
BRANCH  13  14
ATOM     14  C   UNL     1       4.097   6.648  -4.190  0.00  0.00    +0.000 C 
ATOM     15  C   UNL     1       3.087   6.567  -5.346  0.00  0.00    +0.000 C 
ATOM     16  C   UNL     1       3.026   7.822  -6.215  0.00  0.00    +0.000 C 
ATOM     17  O   UNL     1       2.889   9.003  -5.433  0.00  0.00    +0.000 OA
ATOM     18  C   UNL     1       3.974   9.179  -4.526  0.00  0.00    +0.000 C 
ATOM     19  C   UNL     1       4.022   8.029  -3.511  0.00  0.00    +0.000 C 
BRANCH  19  20
ATOM     20  O   UNL     1       5.070   8.204  -2.563  0.00  0.00    +0.000 OA
ATOM     21  H   UNL     1       5.874   8.441  -3.061  0.00  0.00    +0.000 HD
ENDBRANCH  19  20
ENDBRANCH  13  14
ENDBRANCH   5  13
TORSDOF 5
