REMARK  Name = 
REMARK  4 active torsions:
REMARK  status: ('A' for Active; 'I' for Inactive)
REMARK    1  A    between atoms: C_2  and  C_4
REMARK    2  A    between atoms: N_8  and  C_9
REMARK    3  A    between atoms: C_9  and  C_10
REMARK    4  A    between atoms: C_14  and  C_15
REMARK                            x       y       z     vdW  Elec       q    Type
REMARK                         _______ _______ _______ _____ _____    ______ ____
ROOT
ATOM      1  C   UNL     1       2.344  -1.152   2.513  0.00  0.00    +0.000 A 
ATOM      2  C   UNL     1       2.098  -2.426   3.013  0.00  0.00    +0.000 A 
ATOM      3  C   UNL     1       3.153  -3.335   3.104  0.00  0.00    +0.000 A 
ATOM      4  C   UNL     1       4.424  -2.968   2.674  0.00  0.00    +0.000 A 
ATOM      5  N   UNL     1       5.535  -3.768   2.824  0.00  0.00    +0.000 N 
ATOM      6  N   UNL     1       4.667  -1.743   2.170  0.00  0.00    +0.000 NA
ATOM      7  C   UNL     1       3.632  -0.864   2.092  0.00  0.00    +0.000 A 
ATOM      8  H   UNL     1       6.315  -3.318   2.348  0.00  0.00    +0.000 HD
ENDROOT
BRANCH   1  10
ATOM      9  N   UNL     1       0.239  -0.203   3.266  0.00  0.00    +0.000 N 
ATOM     10  C   UNL     1       1.299  -0.113   2.406  0.00  0.00    +0.000 C 
ATOM     11  O   UNL     1       1.393   0.808   1.608  0.00  0.00    +0.000 OA
ATOM     12  H   UNL     1      -0.417   0.568   3.251  0.00  0.00    +0.000 HD
ATOM     13  H   UNL     1       0.253  -0.782   4.093  0.00  0.00    +0.000 HD
ENDBRANCH   1  10
BRANCH   5  14
ATOM     14  C   UNL     1       5.477  -5.207   2.651  0.00  0.00    +0.000 C 
BRANCH  14  15
ATOM     15  C   UNL     1       6.597  -5.871   3.421  0.00  0.00    +0.000 A 
ATOM     16  C   UNL     1       7.099  -5.324   4.606  0.00  0.00    +0.000 A 
ATOM     17  C   UNL     1       8.091  -6.003   5.285  0.00  0.00    +0.000 A 
ATOM     18  N   UNL     1       8.609  -7.181   4.879  0.00  0.00    +0.000 NA
ATOM     19  C   UNL     1       8.121  -7.732   3.733  0.00  0.00    +0.000 A 
ATOM     20  C   UNL     1       7.108  -7.105   3.000  0.00  0.00    +0.000 A 
BRANCH  19  21
ATOM     21  C   UNL     1       8.747  -9.004   3.294  0.00  0.00    +0.000 A 
ATOM     22  C   UNL     1       9.799  -9.593   4.002  0.00  0.00    +0.000 A 
ATOM     23  C   UNL     1      10.397 -10.752   3.513  0.00  0.00    +0.000 A 
ATOM     24  C   UNL     1       9.930 -11.309   2.332  0.00  0.00    +0.000 A 
ATOM     25  C   UNL     1       8.873 -10.685   1.692  0.00  0.00    +0.000 A 
ATOM     26  N   UNL     1       8.275  -9.559   2.141  0.00  0.00    +0.000 NA
ENDBRANCH  19  21
ENDBRANCH  14  15
ENDBRANCH   5  14
TORSDOF 4
