REMARK  Name = 
REMARK  7 active torsions:
REMARK  status: ('A' for Active; 'I' for Inactive)
REMARK    1  A    between atoms: N_1  and  C_2
REMARK    2  A    between atoms: C_2  and  C_3
REMARK    3  A    between atoms: C_3  and  C_4
REMARK    4  A    between atoms: C_8  and  O_9
REMARK    5  A    between atoms: O_9  and  C_10
REMARK    6  A    between atoms: C_10  and  C_11
REMARK    7  A    between atoms: C_11  and  C_12
REMARK                            x       y       z     vdW  Elec       q    Type
REMARK                         _______ _______ _______ _____ _____    ______ ____
ROOT
ATOM      1  C   UNL     1       4.547   1.405   0.207  0.00  0.00    +0.000 A 
ATOM      2  C   UNL     1       5.204   2.596   0.544  0.00  0.00    +0.000 A 
ATOM      3  C   UNL     1       6.594   2.629   0.652  0.00  0.00    +0.000 A 
ATOM      4  C   UNL     1       7.341   1.467   0.456  0.00  0.00    +0.000 A 
ATOM      5  C   UNL     1       6.696   0.263   0.173  0.00  0.00    +0.000 A 
ATOM      6  C   UNL     1       5.308   0.243   0.012  0.00  0.00    +0.000 A 
ENDROOT
BRANCH   1   7
ATOM      7  C   UNL     1       3.041   1.374   0.094  0.00  0.00    +0.000 C 
BRANCH   7   8
ATOM      8  C   UNL     1       2.370   1.013   1.425  0.00  0.00    +0.000 C 
BRANCH   8   9
ATOM      9  N   UNL     1       0.913   1.021   1.300  0.00  0.00    +0.000 NA
ATOM     10  H   UNL     1       0.497   0.755   2.192  0.00  0.00    +0.000 HD
ATOM     11  H   UNL     1       0.622   0.311   0.628  0.00  0.00    +0.000 HD
ENDBRANCH   8   9
ENDBRANCH   7   8
ENDBRANCH   1   7
BRANCH   5  12
ATOM     12  O   UNL     1       7.329  -0.944   0.034  0.00  0.00    +0.000 OA
BRANCH  12  13
ATOM     13  C   UNL     1       8.534  -1.084   0.799  0.00  0.00    +0.000 C 
BRANCH  13  14
ATOM     14  C   UNL     1       8.729  -2.562   1.136  0.00  0.00    +0.000 C 
BRANCH  14  15
ATOM     15  C   UNL     1       9.964  -2.786   1.964  0.00  0.00    +0.000 A 
ATOM     16  C   UNL     1       9.933  -2.726   3.359  0.00  0.00    +0.000 A 
ATOM     17  C   UNL     1      11.106  -2.910   4.083  0.00  0.00    +0.000 A 
ATOM     18  C   UNL     1      12.280  -3.143   3.386  0.00  0.00    +0.000 A 
ATOM     19  N   UNL     1      12.351  -3.201   2.041  0.00  0.00    +0.000 NA
ATOM     20  C   UNL     1      11.195  -3.025   1.360  0.00  0.00    +0.000 A 
ENDBRANCH  14  15
ENDBRANCH  13  14
ENDBRANCH  12  13
ENDBRANCH   5  12
TORSDOF 7
