REMARK  Name = 
REMARK  6 active torsions:
REMARK  status: ('A' for Active; 'I' for Inactive)
REMARK    1  A    between atoms: C_2  and  O_3
REMARK    2  A    between atoms: C_2  and  C_4
REMARK    3  A    between atoms: N_8  and  C_9
REMARK    4  A    between atoms: C_9  and  C_10
REMARK    5  A    between atoms: C_14  and  C_15
REMARK    6  A    between atoms: C_19  and  C_20
REMARK                            x       y       z     vdW  Elec       q    Type
REMARK                         _______ _______ _______ _____ _____    ______ ____
ROOT
ATOM      1  C   UNL     1       5.664   7.027  -1.092  0.00  0.00    +0.000 A 
ATOM      2  C   UNL     1       6.896   6.763  -1.675  0.00  0.00    +0.000 A 
ATOM      3  N   UNL     1       7.735   7.719  -2.121  0.00  0.00    +0.000 NA
ATOM      4  C   UNL     1       7.321   9.004  -1.987  0.00  0.00    +0.000 A 
ATOM      5  C   UNL     1       6.105   9.407  -1.431  0.00  0.00    +0.000 A 
ATOM      6  C   UNL     1       5.269   8.369  -0.990  0.00  0.00    +0.000 A 
ENDROOT
BRANCH   5   7
ATOM      7  C   UNL     1       5.726  10.833  -1.321  0.00  0.00    +0.000 A 
ATOM      8  C   UNL     1       6.681  11.827  -1.041  0.00  0.00    +0.000 A 
ATOM      9  C   UNL     1       6.333  13.179  -0.980  0.00  0.00    +0.000 A 
ATOM     10  C   UNL     1       5.015  13.572  -1.194  0.00  0.00    +0.000 A 
ATOM     11  C   UNL     1       4.032  12.614  -1.466  0.00  0.00    +0.000 A 
ATOM     12  C   UNL     1       4.398  11.255  -1.516  0.00  0.00    +0.000 A 
BRANCH  11  13
ATOM     13  C   UNL     1       2.601  13.013  -1.726  0.00  0.00    +0.000 C 
ATOM     14  F   UNL     1       2.401  14.360  -1.735  0.00  0.00    +0.000 F 
ATOM     15  F   UNL     1       2.148  12.561  -2.928  0.00  0.00    +0.000 F 
ATOM     16  F   UNL     1       1.744  12.514  -0.793  0.00  0.00    +0.000 F 
ENDBRANCH  11  13
ENDBRANCH   5   7
BRANCH   1  17
ATOM     17  C   UNL     1       4.812   5.917  -0.548  0.00  0.00    +0.000 C 
BRANCH  17  22
ATOM     18  C   UNL     1       1.206   2.304  -0.969  0.00  0.00    +0.000 A 
ATOM     19  C   UNL     1       1.960   2.728   0.119  0.00  0.00    +0.000 A 
ATOM     20  C   UNL     1       2.885   3.758  -0.055  0.00  0.00    +0.000 A 
ATOM     21  C   UNL     1       3.037   4.358  -1.304  0.00  0.00    +0.000 A 
ATOM     22  N   UNL     1       3.924   5.375  -1.545  0.00  0.00    +0.000 N 
ATOM     23  N   UNL     1       2.298   3.958  -2.359  0.00  0.00    +0.000 NA
ATOM     24  C   UNL     1       1.395   2.959  -2.173  0.00  0.00    +0.000 A 
ATOM     25  H   UNL     1       3.916   5.738  -2.490  0.00  0.00    +0.000 HD
BRANCH  18  27
ATOM     26  O   UNL     1      -0.424   1.099   0.245  0.00  0.00    +0.000 OA
ATOM     27  C   UNL     1       0.211   1.233  -0.787  0.00  0.00    +0.000 C 
BRANCH  27  28
ATOM     28  O   UNL     1       0.104   0.393  -1.836  0.00  0.00    +0.000 OA
ATOM     29  H   UNL     1       0.800   0.467  -2.516  0.00  0.00    +0.000 HD
ENDBRANCH  27  28
ENDBRANCH  18  27
ENDBRANCH  17  22
ENDBRANCH   1  17
TORSDOF 6
