REMARK  Name = 
REMARK  7 active torsions:
REMARK  status: ('A' for Active; 'I' for Inactive)
REMARK    1  A    between atoms: C_2  and  C_3
REMARK    2  A    between atoms: C_8  and  C_9
REMARK    3  A    between atoms: N_11  and  C_12
REMARK    4  A    between atoms: C_12  and  C_13
REMARK    5  A    between atoms: C_16  and  C_17
REMARK    6  A    between atoms: C_17  and  N_18
REMARK    7  A    between atoms: C_19  and  C_21
REMARK                            x       y       z     vdW  Elec       q    Type
REMARK                         _______ _______ _______ _____ _____    ______ ____
ROOT
ATOM      1  C   UNL     1      -4.189   3.617  -0.236  0.00  0.00    +0.000 C 
ATOM      2  C   UNL     1      -4.927   4.744   0.498  0.00  0.00    +0.000 C 
ATOM      3  C   UNL     1      -6.438   4.522   0.543  0.00  0.00    +0.000 C 
ATOM      4  C   UNL     1      -6.795   3.174   1.187  0.00  0.00    +0.000 C 
ATOM      5  C   UNL     1      -6.069   2.035   0.454  0.00  0.00    +0.000 C 
ATOM      6  C   UNL     1      -4.558   2.254   0.374  0.00  0.00    +0.000 C 
ENDROOT
BRANCH   1   7
ATOM      7  C   UNL     1      -2.663   3.826  -0.191  0.00  0.00    +0.000 C 
BRANCH   7  10
ATOM      8  C   UNL     1      -1.951   5.131  -2.172  0.00  0.00    +0.000 C 
ATOM      9  O   UNL     1      -2.032   4.157  -2.914  0.00  0.00    +0.000 OA
ATOM     10  N   UNL     1      -2.233   5.065  -0.824  0.00  0.00    +0.000 N 
ATOM     11  H   UNL     1      -2.125   5.866  -0.218  0.00  0.00    +0.000 HD
BRANCH   8  17
ATOM     12  C   UNL     1      -1.892   7.701  -2.341  0.00  0.00    +0.000 A 
ATOM     13  C   UNL     1      -1.365   8.845  -2.976  0.00  0.00    +0.000 A 
ATOM     14  C   UNL     1      -0.441   8.726  -4.013  0.00  0.00    +0.000 A 
ATOM     15  C   UNL     1      -0.033   7.463  -4.429  0.00  0.00    +0.000 A 
ATOM     16  C   UNL     1      -0.542   6.325  -3.800  0.00  0.00    +0.000 A 
ATOM     17  C   UNL     1      -1.466   6.427  -2.742  0.00  0.00    +0.000 A 
BRANCH  12  19
ATOM     18  N   UNL     1      -3.623   8.121  -0.463  0.00  0.00    +0.000 NA
ATOM     19  C   UNL     1      -2.871   7.918  -1.323  0.00  0.00    +0.000 C 
ENDBRANCH  12  19
ENDBRANCH   8  17
ENDBRANCH   7  10
ENDBRANCH   1   7
BRANCH   4  20
ATOM     20  C   UNL     1      -8.315   2.919   1.174  0.00  0.00    +0.000 C 
BRANCH  20  21
ATOM     21  N   UNL     1      -9.072   3.912   1.909  0.00  0.00    +0.000 N 
ATOM     22  C   UNL     1      -9.222   3.863   3.272  0.00  0.00    +0.000 C 
ATOM     23  O   UNL     1      -8.709   2.978   3.951  0.00  0.00    +0.000 OA
ATOM     24  H   UNL     1      -9.597   4.595   1.370  0.00  0.00    +0.000 HD
BRANCH  22  25
ATOM     25  C   UNL     1      -9.988   4.951   3.896  0.00  0.00    +0.000 A 
ATOM     26  C   UNL     1      -9.795   5.227   5.243  0.00  0.00    +0.000 A 
ATOM     27  S   UNL     1     -10.749   6.513   5.826  0.00  0.00    +0.000 S 
ATOM     28  C   UNL     1     -11.489   6.722   4.309  0.00  0.00    +0.000 A 
ATOM     29  N   UNL     1     -12.457   7.661   4.131  0.00  0.00    +0.000 NA
ATOM     30  C   UNL     1     -12.955   7.693   2.941  0.00  0.00    +0.000 A 
ATOM     31  N   UNL     1     -12.568   6.878   1.911  0.00  0.00    +0.000 N 
ATOM     32  C   UNL     1     -11.557   5.953   2.027  0.00  0.00    +0.000 A 
ATOM     33  O   UNL     1     -11.168   5.306   1.061  0.00  0.00    +0.000 OA
ATOM     34  C   UNL     1     -10.989   5.846   3.360  0.00  0.00    +0.000 A 
ATOM     35  H   UNL     1     -12.983   6.973   0.995  0.00  0.00    +0.000 HD
ENDBRANCH  22  25
ENDBRANCH  20  21
ENDBRANCH   4  20
TORSDOF 7
