REMARK  Name = 
REMARK  6 active torsions:
REMARK  status: ('A' for Active; 'I' for Inactive)
REMARK    1  A    between atoms: C_1  and  C_2
REMARK    2  A    between atoms: C_2  and  C_3
REMARK    3  A    between atoms: C_2  and  C_14
REMARK    4  A    between atoms: C_3  and  N_4
REMARK    5  A    between atoms: N_4  and  C_5
REMARK    6  A    between atoms: C_9  and  C_10
REMARK                            x       y       z     vdW  Elec       q    Type
REMARK                         _______ _______ _______ _____ _____    ______ ____
ROOT
ATOM      1  N   UNL     1       2.420  -2.470  -0.275  0.00  0.00    +0.000 N 
ATOM      2  H   UNL     1       2.124  -2.356   0.690  0.00  0.00    +0.000 HD
ENDROOT
BRANCH   1   3
ATOM      3  C   UNL     1       2.911  -3.750  -0.542  0.00  0.00    +0.000 A 
ATOM      4  C   UNL     1       3.954  -4.016  -1.437  0.00  0.00    +0.000 A 
ATOM      5  C   UNL     1       4.357  -5.325  -1.711  0.00  0.00    +0.000 A 
ATOM      6  C   UNL     1       3.697  -6.397  -1.116  0.00  0.00    +0.000 A 
ATOM      7  C   UNL     1       2.626  -6.168  -0.243  0.00  0.00    +0.000 A 
ATOM      8  C   UNL     1       2.239  -4.847   0.026  0.00  0.00    +0.000 A 
BRANCH   7   9
ATOM      9  C   UNL     1       1.950  -7.360   0.348  0.00  0.00    +0.000 C 
ATOM     10  N   UNL     1       0.915  -7.163   1.220  0.00  0.00    +0.000 N 
ATOM     11  O   UNL     1       2.305  -8.502   0.073  0.00  0.00    +0.000 OA
ATOM     12  H   UNL     1       0.555  -6.271   1.506  0.00  0.00    +0.000 HD
ATOM     13  H   UNL     1       0.485  -7.994   1.604  0.00  0.00    +0.000 HD
ENDBRANCH   7   9
ENDBRANCH   1   3
BRANCH   1  14
ATOM     14  C   UNL     1       3.071  -1.291  -0.824  0.00  0.00    +0.000 C 
BRANCH  14  16
ATOM     15  C   UNL     1       0.878   0.066  -0.639  0.00  0.00    +0.000 C 
ATOM     16  C   UNL     1       2.344  -0.066  -0.349  0.00  0.00    +0.000 C 
BRANCH  16  17
ATOM     17  C   UNL     1       3.119   1.146  -0.015  0.00  0.00    +0.000 A 
ATOM     18  C   UNL     1       4.220   1.080   0.850  0.00  0.00    +0.000 A 
ATOM     19  C   UNL     1       4.943   2.232   1.176  0.00  0.00    +0.000 A 
ATOM     20  C   UNL     1       4.579   3.464   0.638  0.00  0.00    +0.000 A 
ATOM     21  C   UNL     1       3.493   3.544  -0.228  0.00  0.00    +0.000 A 
ATOM     22  C   UNL     1       2.767   2.394  -0.548  0.00  0.00    +0.000 A 
ENDBRANCH  16  17
ENDBRANCH  14  16
ENDBRANCH   1  14
TORSDOF 5
