REMARK  Name = 
REMARK  6 active torsions:
REMARK  status: ('A' for Active; 'I' for Inactive)
REMARK    1  A    between atoms: C_2  and  C_4
REMARK    2  A    between atoms: N_8  and  C_9
REMARK    3  A    between atoms: C_9  and  C_10
REMARK    4  A    between atoms: C_10  and  C_13
REMARK    5  A    between atoms: C_18  and  O_19
REMARK    6  A    between atoms: O_19  and  C_20
REMARK                            x       y       z     vdW  Elec       q    Type
REMARK                         _______ _______ _______ _____ _____    ______ ____
ROOT
ATOM      1  C   UNL     1       6.186  -0.462   7.135  0.00  0.00    +0.000 C 
ATOM      2  F   UNL     1       7.421  -0.714   6.601  0.00  0.00    +0.000 F 
ATOM      3  F   UNL     1       6.210   0.859   7.483  0.00  0.00    +0.000 F 
ENDROOT
BRANCH   1   4
ATOM      4  C   UNL     1       5.901  -1.342   8.339  0.00  0.00    +0.000 A 
ATOM      5  C   UNL     1       6.435  -2.638   8.409  0.00  0.00    +0.000 A 
ATOM      6  C   UNL     1       6.176  -3.432   9.519  0.00  0.00    +0.000 A 
ATOM      7  F   UNL     1       6.685  -4.670   9.573  0.00  0.00    +0.000 F 
ATOM      8  C   UNL     1       5.401  -2.965  10.572  0.00  0.00    +0.000 A 
ATOM      9  C   UNL     1       4.875  -1.674  10.529  0.00  0.00    +0.000 A 
ATOM     10  C   UNL     1       5.108  -0.869   9.410  0.00  0.00    +0.000 A 
BRANCH   9  11
ATOM     11  O   UNL     1       4.126  -1.320  11.624  0.00  0.00    +0.000 OA
BRANCH  11  12
ATOM     12  C   UNL     1       3.938   0.078  11.940  0.00  0.00    +0.000 C 
ATOM     13  C   UNL     1       5.156   0.891  12.434  0.00  0.00    +0.000 C 
ATOM     14  N   UNL     1       4.302   1.512  13.472  0.00  0.00    +0.000 NA
ATOM     15  C   UNL     1       3.378   0.362  13.357  0.00  0.00    +0.000 C 
ATOM     16  H   UNL     1       3.885   2.399  13.186  0.00  0.00    +0.000 HD
ENDBRANCH  11  12
ENDBRANCH   9  11
ENDBRANCH   1   4
BRANCH   1  17
ATOM     17  C   UNL     1       5.130  -0.667   6.015  0.00  0.00    +0.000 C 
BRANCH  17  22
ATOM     18  C   UNL     1       2.942   0.257   1.485  0.00  0.00    +0.000 A 
ATOM     19  C   UNL     1       2.366  -0.156   2.681  0.00  0.00    +0.000 A 
ATOM     20  C   UNL     1       3.145  -0.187   3.838  0.00  0.00    +0.000 A 
ATOM     21  C   UNL     1       4.485   0.185   3.781  0.00  0.00    +0.000 A 
ATOM     22  N   UNL     1       5.284   0.284   4.904  0.00  0.00    +0.000 N 
ATOM     23  N   UNL     1       5.064   0.554   2.623  0.00  0.00    +0.000 NA
ATOM     24  C   UNL     1       4.293   0.572   1.499  0.00  0.00    +0.000 A 
ATOM     25  H   UNL     1       6.241   0.466   4.607  0.00  0.00    +0.000 HD
BRANCH  18  27
ATOM     26  N   UNL     1       0.841   0.626   0.333  0.00  0.00    +0.000 N 
ATOM     27  C   UNL     1       2.181   0.366   0.226  0.00  0.00    +0.000 C 
ATOM     28  O   UNL     1       2.727   0.268  -0.864  0.00  0.00    +0.000 OA
ATOM     29  H   UNL     1       0.351   0.813  -0.535  0.00  0.00    +0.000 HD
ATOM     30  H   UNL     1       0.420   0.964   1.183  0.00  0.00    +0.000 HD
ENDBRANCH  18  27
ENDBRANCH  17  22
ENDBRANCH   1  17
TORSDOF 6
