REMARK  Name = 
REMARK  8 active torsions:
REMARK  status: ('A' for Active; 'I' for Inactive)
REMARK    1  A    between atoms: C_1  and  C_2
REMARK    2  A    between atoms: C_2  and  C_3
REMARK    3  A    between atoms: C_7  and  C_8
REMARK    4  A    between atoms: C_8  and  C_9
REMARK    5  A    between atoms: C_9  and  N_10
REMARK    6  A    between atoms: N_10  and  C_11
REMARK    7  A    between atoms: C_14  and  C_15
REMARK    8  A    between atoms: C_23  and  C_24
REMARK                            x       y       z     vdW  Elec       q    Type
REMARK                         _______ _______ _______ _____ _____    ______ ____
ROOT
ATOM      1  C   UNL     1       2.852   0.121   1.497  0.00  0.00    +0.000 A 
ATOM      2  C   UNL     1       2.610   1.215   2.338  0.00  0.00    +0.000 A 
ATOM      3  C   UNL     1       3.025   1.195   3.672  0.00  0.00    +0.000 A 
ATOM      4  C   UNL     1       3.674   0.076   4.199  0.00  0.00    +0.000 A 
ATOM      5  C   UNL     1       3.920  -1.041   3.395  0.00  0.00    +0.000 A 
ATOM      6  C   UNL     1       3.520  -0.984   2.047  0.00  0.00    +0.000 A 
ENDROOT
BRANCH   1   8
ATOM      7  C   UNL     1       0.840   0.162  -0.013  0.00  0.00    +0.000 C 
ATOM      8  C   UNL     1       2.371   0.091   0.044  0.00  0.00    +0.000 C 
ATOM      9  C   UNL     1       3.020   1.164  -0.785  0.00  0.00    +0.000 C 
ATOM     10  C   UNL     1       3.728   0.667  -1.798  0.00  0.00    +0.000 C 
ATOM     11  C   UNL     1       3.534  -0.779  -1.657  0.00  0.00    +0.000 C 
ATOM     12  N   UNL     1       2.767  -1.164  -0.665  0.00  0.00    +0.000 NA
BRANCH  11  13
ATOM     13  C   UNL     1       4.203  -1.732  -2.633  0.00  0.00    +0.000 C 
ATOM     14  F   UNL     1       4.952  -1.083  -3.569  0.00  0.00    +0.000 F 
ATOM     15  F   UNL     1       5.045  -2.602  -2.008  0.00  0.00    +0.000 F 
ATOM     16  F   UNL     1       3.305  -2.487  -3.322  0.00  0.00    +0.000 F 
ENDBRANCH  11  13
ENDBRANCH   1   8
BRANCH   5  17
ATOM     17  C   UNL     1       4.564  -2.281   3.998  0.00  0.00    +0.000 C 
BRANCH  17  18
ATOM     18  C   UNL     1       4.775  -3.407   2.978  0.00  0.00    +0.000 C 
BRANCH  18  19
ATOM     19  N   UNL     1       5.352  -4.627   3.548  0.00  0.00    +0.000 N 
ATOM     20  H   UNL     1       4.837  -4.948   4.366  0.00  0.00    +0.000 HD
BRANCH  19  21
ATOM     21  C   UNL     1       5.532  -5.676   2.616  0.00  0.00    +0.000 A 
ATOM     22  C   UNL     1       5.836  -5.458   1.265  0.00  0.00    +0.000 A 
ATOM     23  C   UNL     1       6.079  -6.524   0.402  0.00  0.00    +0.000 A 
ATOM     24  C   UNL     1       6.046  -7.805   0.925  0.00  0.00    +0.000 A 
ATOM     25  N   UNL     1       5.790  -8.084   2.232  0.00  0.00    +0.000 NA
ATOM     26  C   UNL     1       5.558  -7.011   3.034  0.00  0.00    +0.000 A 
BRANCH  24  27
ATOM     27  C   UNL     1       6.342  -8.966   0.029  0.00  0.00    +0.000 C 
ATOM     28  N   UNL     1       6.308 -10.194   0.630  0.00  0.00    +0.000 N 
ATOM     29  O   UNL     1       6.606  -8.842  -1.161  0.00  0.00    +0.000 OA
ATOM     30  H   UNL     1       6.119 -10.256   1.625  0.00  0.00    +0.000 HD
ATOM     31  H   UNL     1       6.543 -11.018   0.094  0.00  0.00    +0.000 HD
ENDBRANCH  24  27
ENDBRANCH  19  21
ENDBRANCH  18  19
ENDBRANCH  17  18
ENDBRANCH   5  17
TORSDOF 7
