REMARK  Name = 
REMARK  5 active torsions:
REMARK  status: ('A' for Active; 'I' for Inactive)
REMARK    1  A    between atoms: C_1  and  C_2
REMARK    2  A    between atoms: N_6  and  C_7
REMARK    3  A    between atoms: C_7  and  C_8
REMARK    4  A    between atoms: C_12  and  C_13
REMARK    5  A    between atoms: C_17  and  C_18
REMARK                            x       y       z     vdW  Elec       q    Type
REMARK                         _______ _______ _______ _____ _____    ______ ____
ROOT
ATOM      1  C   UNL     1       5.368  -0.993  -0.034  0.00  0.00    +0.000 A 
ATOM      2  C   UNL     1       5.876   0.304  -0.054  0.00  0.00    +0.000 A 
ATOM      3  C   UNL     1       7.254   0.492  -0.087  0.00  0.00    +0.000 A 
ATOM      4  C   UNL     1       8.093  -0.613  -0.093  0.00  0.00    +0.000 A 
ATOM      5  C   UNL     1       7.533  -1.890  -0.072  0.00  0.00    +0.000 A 
ATOM      6  N   UNL     1       6.185  -2.082  -0.038  0.00  0.00    +0.000 NA
ENDROOT
BRANCH   5   7
ATOM      7  C   UNL     1       8.364  -3.101  -0.089  0.00  0.00    +0.000 A 
ATOM      8  C   UNL     1       7.945  -4.284   0.519  0.00  0.00    +0.000 A 
ATOM      9  N   UNL     1       8.659  -5.440   0.535  0.00  0.00    +0.000 NA
ATOM     10  C   UNL     1       9.854  -5.427  -0.103  0.00  0.00    +0.000 A 
ATOM     11  C   UNL     1      10.385  -4.315  -0.731  0.00  0.00    +0.000 A 
ATOM     12  C   UNL     1       9.623  -3.142  -0.711  0.00  0.00    +0.000 A 
BRANCH  11  13
ATOM     13  C   UNL     1      11.694  -4.300  -1.434  0.00  0.00    +0.000 C 
ATOM     14  N   UNL     1      12.431  -5.451  -1.484  0.00  0.00    +0.000 N 
ATOM     15  O   UNL     1      12.115  -3.279  -1.959  0.00  0.00    +0.000 OA
ATOM     16  H   UNL     1      12.178  -6.339  -1.084  0.00  0.00    +0.000 HD
ATOM     17  H   UNL     1      13.317  -5.396  -1.974  0.00  0.00    +0.000 HD
ENDBRANCH  11  13
ENDBRANCH   5   7
BRANCH   1  18
ATOM     18  C   UNL     1       3.863  -1.234  -0.030  0.00  0.00    +0.000 C 
BRANCH  18  24
ATOM     19  C   UNL     1       1.185   2.930   4.183  0.00  0.00    +0.000 C 
ATOM     20  C   UNL     1       1.788   1.825   3.389  0.00  0.00    +0.000 A 
ATOM     21  C   UNL     1       1.812   1.806   2.013  0.00  0.00    +0.000 A 
ATOM     22  N   UNL     1       2.338   0.799   1.282  0.00  0.00    +0.000 NA
ATOM     23  C   UNL     1       2.847  -0.243   1.961  0.00  0.00    +0.000 A 
ATOM     24  N   UNL     1       3.300  -1.359   1.298  0.00  0.00    +0.000 N 
ATOM     25  N   UNL     1       2.887  -0.308   3.295  0.00  0.00    +0.000 NA
ATOM     26  C   UNL     1       2.359   0.722   3.982  0.00  0.00    +0.000 A 
ATOM     27  H   UNL     1       3.791  -1.958   1.947  0.00  0.00    +0.000 HD
ENDBRANCH  18  24
ENDBRANCH   1  18
TORSDOF 4
