REMARK  Name = 
REMARK  5 active torsions:
REMARK  status: ('A' for Active; 'I' for Inactive)
REMARK    1  A    between atoms: N_1  and  C_2
REMARK    2  A    between atoms: C_2  and  C_3
REMARK    3  A    between atoms: C_6  and  C_7
REMARK    4  A    between atoms: C_7  and  N_8
REMARK    5  A    between atoms: C_13  and  C_14
REMARK                            x       y       z     vdW  Elec       q    Type
REMARK                         _______ _______ _______ _____ _____    ______ ____
ROOT
ATOM      1  N   UNL     1       5.231  -4.920  -1.222  0.00  0.00    +0.000 N 
ATOM      2  C   UNL     1       4.353  -5.472  -0.318  0.00  0.00    +0.000 A 
ATOM      3  C   UNL     1       4.542  -6.835  -0.316  0.00  0.00    +0.000 A 
ATOM      4  C   UNL     1       5.506  -7.130  -1.311  0.00  0.00    +0.000 A 
ATOM      5  C   UNL     1       6.075  -8.312  -1.804  0.00  0.00    +0.000 A 
ATOM      6  C   UNL     1       6.979  -8.200  -2.859  0.00  0.00    +0.000 A 
ATOM      7  C   UNL     1       7.325  -6.930  -3.319  0.00  0.00    +0.000 A 
ATOM      8  N   UNL     1       6.827  -5.754  -2.854  0.00  0.00    +0.000 NA
ATOM      9  C   UNL     1       5.918  -5.919  -1.869  0.00  0.00    +0.000 A 
ENDROOT
BRANCH   6  10
ATOM     10  C   UNL     1       7.565  -9.392  -3.507  0.00  0.00    +0.000 C 
ATOM     11  N   UNL     1       6.835 -10.550  -3.462  0.00  0.00    +0.000 N 
ATOM     12  O   UNL     1       8.635  -9.342  -4.089  0.00  0.00    +0.000 OA
ATOM     13  H   UNL     1       5.871 -10.591  -3.163  0.00  0.00    +0.000 HD
ATOM     14  H   UNL     1       7.199 -11.336  -3.989  0.00  0.00    +0.000 HD
ENDBRANCH   6  10
BRANCH   1  15
ATOM     15  C   UNL     1       5.467  -3.495  -1.368  0.00  0.00    +0.000 C 
BRANCH  15  19
ATOM     16  C   UNL     1       3.042  -0.562  -1.176  0.00  0.00    +0.000 C 
ATOM     17  C   UNL     1       2.614  -2.036  -1.052  0.00  0.00    +0.000 C 
ATOM     18  C   UNL     1       3.102  -2.895  -2.222  0.00  0.00    +0.000 C 
ATOM     19  C   UNL     1       4.622  -2.798  -2.455  0.00  0.00    +0.000 C 
ATOM     20  C   UNL     1       5.036  -1.317  -2.571  0.00  0.00    +0.000 C 
ATOM     21  C   UNL     1       4.567  -0.486  -1.375  0.00  0.00    +0.000 C 
BRANCH  16  22
ATOM     22  C   UNL     1       2.239   0.148  -2.288  0.00  0.00    +0.000 C 
BRANCH  22  23
ATOM     23  N   UNL     1       2.604   1.553  -2.425  0.00  0.00    +0.000 NA
ATOM     24  H   UNL     1       2.041   1.974  -3.164  0.00  0.00    +0.000 HD
ATOM     25  H   UNL     1       3.568   1.627  -2.745  0.00  0.00    +0.000 HD
ENDBRANCH  22  23
ENDBRANCH  16  22
ENDBRANCH  15  19
ENDBRANCH   1  15
TORSDOF 5
