REMARK  Name = 
REMARK  6 active torsions:
REMARK  status: ('A' for Active; 'I' for Inactive)
REMARK    1  A    between atoms: C_2  and  C_4
REMARK    2  A    between atoms: N_8  and  C_9
REMARK    3  A    between atoms: C_9  and  C_10
REMARK    4  A    between atoms: C_10  and  C_13
REMARK    5  A    between atoms: C_15  and  O_16
REMARK    6  A    between atoms: O_16  and  C_17
REMARK                            x       y       z     vdW  Elec       q    Type
REMARK                         _______ _______ _______ _____ _____    ______ ____
ROOT
ATOM      1  C   UNL     1       5.113  -2.236   5.647  0.00  0.00    +0.000 C 
ENDROOT
BRANCH   1   6
ATOM      2  C   UNL     1       2.972  -0.214   1.418  0.00  0.00    +0.000 A 
ATOM      3  C   UNL     1       2.656  -1.356   2.145  0.00  0.00    +0.000 A 
ATOM      4  C   UNL     1       3.421  -1.679   3.268  0.00  0.00    +0.000 A 
ATOM      5  C   UNL     1       4.484  -0.862   3.644  0.00  0.00    +0.000 A 
ATOM      6  N   UNL     1       5.268  -1.102   4.737  0.00  0.00    +0.000 N 
ATOM      7  N   UNL     1       4.805   0.237   2.935  0.00  0.00    +0.000 NA
ATOM      8  C   UNL     1       4.059   0.534   1.839  0.00  0.00    +0.000 A 
ATOM      9  H   UNL     1       6.010  -0.426   4.886  0.00  0.00    +0.000 HD
BRANCH   2  11
ATOM     10  N   UNL     1       0.899  -0.152   0.156  0.00  0.00    +0.000 N 
ATOM     11  C   UNL     1       2.215   0.212   0.224  0.00  0.00    +0.000 C 
ATOM     12  O   UNL     1       2.731   0.895  -0.650  0.00  0.00    +0.000 OA
ATOM     13  H   UNL     1       0.366   0.239  -0.611  0.00  0.00    +0.000 HD
ATOM     14  H   UNL     1       0.383  -0.480   0.961  0.00  0.00    +0.000 HD
ENDBRANCH   2  11
ENDBRANCH   1   6
BRANCH   1  15
ATOM     15  C   UNL     1       6.149  -2.263   6.796  0.00  0.00    +0.000 C 
ATOM     16  F   UNL     1       7.405  -2.276   6.247  0.00  0.00    +0.000 F 
ATOM     17  F   UNL     1       6.077  -1.077   7.478  0.00  0.00    +0.000 F 
BRANCH  15  18
ATOM     18  C   UNL     1       5.943  -3.458   7.725  0.00  0.00    +0.000 A 
ATOM     19  C   UNL     1       6.824  -3.634   8.794  0.00  0.00    +0.000 A 
ATOM     20  C   UNL     1       6.663  -4.744   9.615  0.00  0.00    +0.000 A 
ATOM     21  C   UNL     1       5.615  -5.627   9.384  0.00  0.00    +0.000 A 
ATOM     22  C   UNL     1       4.776  -5.379   8.312  0.00  0.00    +0.000 A 
ATOM     23  N   UNL     1       4.920  -4.324   7.481  0.00  0.00    +0.000 NA
BRANCH  20  24
ATOM     24  O   UNL     1       7.466  -5.043  10.688  0.00  0.00    +0.000 OA
BRANCH  24  25
ATOM     25  C   UNL     1       8.832  -4.570  10.685  0.00  0.00    +0.000 C 
ATOM     26  C   UNL     1       9.781  -5.168   9.618  0.00  0.00    +0.000 C 
ATOM     27  C   UNL     1      10.832  -5.400  10.710  0.00  0.00    +0.000 C 
ATOM     28  C   UNL     1       9.734  -5.216  11.765  0.00  0.00    +0.000 C 
ENDBRANCH  24  25
ENDBRANCH  20  24
ENDBRANCH  15  18
ENDBRANCH   1  15
TORSDOF 6
