REMARK  Name = 
REMARK  3 active torsions:
REMARK  status: ('A' for Active; 'I' for Inactive)
REMARK    1  A    between atoms: C_2  and  C_4
REMARK    2  A    between atoms: N_8  and  C_9
REMARK    3  A    between atoms: C_9  and  C_10
REMARK                            x       y       z     vdW  Elec       q    Type
REMARK                         _______ _______ _______ _____ _____    ______ ____
ROOT
ATOM      1  C   UNL     1       3.269   1.044  -0.555  0.00  0.00    +0.000 A 
ATOM      2  C   UNL     1       3.292   2.382  -0.248  0.00  0.00    +0.000 A 
ATOM      3  N   UNL     1       4.015   3.295  -0.938  0.00  0.00    +0.000 NA
ATOM      4  C   UNL     1       4.753   2.844  -1.963  0.00  0.00    +0.000 A 
ATOM      5  N   UNL     1       5.376   3.804  -2.725  0.00  0.00    +0.000 N 
ATOM      6  N   UNL     1       4.843   1.550  -2.301  0.00  0.00    +0.000 NA
ATOM      7  C   UNL     1       4.095   0.674  -1.590  0.00  0.00    +0.000 A 
ATOM      8  H   UNL     1       5.398   4.684  -2.219  0.00  0.00    +0.000 HD
ENDROOT
BRANCH   1  10
ATOM      9  N   UNL     1       1.307   0.467   0.761  0.00  0.00    +0.000 N 
ATOM     10  C   UNL     1       2.457   0.045   0.149  0.00  0.00    +0.000 C 
ATOM     11  O   UNL     1       2.773  -1.137   0.152  0.00  0.00    +0.000 OA
ATOM     12  H   UNL     1       0.713  -0.263   1.140  0.00  0.00    +0.000 HD
ATOM     13  H   UNL     1       0.869   1.356   0.566  0.00  0.00    +0.000 HD
ENDBRANCH   1  10
BRANCH   5  14
ATOM     14  C   UNL     1       6.661   3.442  -3.308  0.00  0.00    +0.000 C 
BRANCH  14  15
ATOM     15  C   UNL     1       7.294   4.644  -4.003  0.00  0.00    +0.000 A 
ATOM     16  N   UNL     1       7.073   5.870  -3.468  0.00  0.00    +0.000 NA
ATOM     17  C   UNL     1       7.606   6.918  -4.123  0.00  0.00    +0.000 A 
ATOM     18  C   UNL     1       8.366   6.795  -5.261  0.00  0.00    +0.000 A 
ATOM     19  C   UNL     1       8.565   5.509  -5.704  0.00  0.00    +0.000 A 
ATOM     20  N   UNL     1       8.051   4.422  -5.099  0.00  0.00    +0.000 NA
ENDBRANCH  14  15
ENDBRANCH   5  14
TORSDOF 3
