REMARK  Name = 
REMARK  8 active torsions:
REMARK  status: ('A' for Active; 'I' for Inactive)
REMARK    1  A    between atoms: C_1  and  O_2
REMARK    2  A    between atoms: O_2  and  C_3
REMARK    3  A    between atoms: C_5  and  C_6
REMARK    4  A    between atoms: C_6  and  N_7
REMARK    5  A    between atoms: C_8  and  C_10
REMARK    6  A    between atoms: C_17  and  C_18
REMARK    7  A    between atoms: C_18  and  N_19
REMARK    8  A    between atoms: C_20  and  C_22
REMARK                            x       y       z     vdW  Elec       q    Type
REMARK                         _______ _______ _______ _____ _____    ______ ____
ROOT
ATOM      1  C   UNL     1       2.997   0.440  -1.126  0.00  0.00    +0.000 A 
ATOM      2  C   UNL     1       2.658   1.633  -1.792  0.00  0.00    +0.000 A 
ATOM      3  C   UNL     1       3.393   2.083  -2.899  0.00  0.00    +0.000 A 
ATOM      4  C   UNL     1       4.463   1.307  -3.354  0.00  0.00    +0.000 A 
ATOM      5  C   UNL     1       4.809   0.123  -2.699  0.00  0.00    +0.000 A 
ATOM      6  C   UNL     1       4.096  -0.317  -1.570  0.00  0.00    +0.000 A 
ENDROOT
BRANCH   1   8
ATOM      7  C   UNL     1       1.007   0.454   0.178  0.00  0.00    +0.000 C 
ATOM      8  O   UNL     1       2.334  -0.026  -0.020  0.00  0.00    +0.000 OA
ENDBRANCH   1   8
BRANCH   3   9
ATOM      9  C   UNL     1       3.016   3.363  -3.599  0.00  0.00    +0.000 C 
BRANCH   9  10
ATOM     10  N   UNL     1       2.098   3.115  -4.682  0.00  0.00    +0.000 N 
ATOM     11  C   UNL     1       1.541   4.135  -5.431  0.00  0.00    +0.000 C 
ATOM     12  O   UNL     1       1.803   5.312  -5.208  0.00  0.00    +0.000 OA
ATOM     13  H   UNL     1       1.899   2.161  -4.954  0.00  0.00    +0.000 HD
BRANCH  11  14
ATOM     14  C   UNL     1       0.633   3.702  -6.493  0.00  0.00    +0.000 A 
ATOM     15  C   UNL     1       0.003   4.504  -7.430  0.00  0.00    +0.000 A 
ATOM     16  C   UNL     1      -0.835   3.760  -8.316  0.00  0.00    +0.000 A 
ATOM     17  C   UNL     1      -0.822   2.415  -8.030  0.00  0.00    +0.000 A 
ATOM     18  S   UNL     1       0.201   2.053  -6.707  0.00  0.00    +0.000 S 
ENDBRANCH  11  14
ENDBRANCH   9  10
ENDBRANCH   3   9
BRANCH   6  19
ATOM     19  C   UNL     1       4.505  -1.624  -0.929  0.00  0.00    +0.000 C 
BRANCH  19  20
ATOM     20  N   UNL     1       3.843  -2.735  -1.576  0.00  0.00    +0.000 N 
ATOM     21  C   UNL     1       4.403  -3.980  -1.684  0.00  0.00    +0.000 C 
ATOM     22  O   UNL     1       5.568  -4.215  -1.379  0.00  0.00    +0.000 OA
ATOM     23  H   UNL     1       2.837  -2.640  -1.660  0.00  0.00    +0.000 HD
BRANCH  21  24
ATOM     24  C   UNL     1       3.531  -5.040  -2.211  0.00  0.00    +0.000 A 
ATOM     25  C   UNL     1       4.067  -6.128  -2.884  0.00  0.00    +0.000 A 
ATOM     26  S   UNL     1       2.904  -7.292  -3.338  0.00  0.00    +0.000 S 
ATOM     27  C   UNL     1       1.660  -6.425  -2.566  0.00  0.00    +0.000 A 
ATOM     28  N   UNL     1       0.409  -6.945  -2.444  0.00  0.00    +0.000 NA
ATOM     29  C   UNL     1      -0.429  -6.178  -1.829  0.00  0.00    +0.000 A 
ATOM     30  N   UNL     1      -0.144  -4.917  -1.373  0.00  0.00    +0.000 N 
ATOM     31  C   UNL     1       1.095  -4.339  -1.503  0.00  0.00    +0.000 A 
ATOM     32  O   UNL     1       1.291  -3.177  -1.165  0.00  0.00    +0.000 OA
ATOM     33  C   UNL     1       2.099  -5.200  -2.097  0.00  0.00    +0.000 A 
ATOM     34  H   UNL     1      -0.860  -4.341  -0.959  0.00  0.00    +0.000 HD
ENDBRANCH  21  24
ENDBRANCH  19  20
ENDBRANCH   6  19
TORSDOF 7
