REMARK  Name = 
REMARK  6 active torsions:
REMARK  status: ('A' for Active; 'I' for Inactive)
REMARK    1  A    between atoms: C_2  and  C_20
REMARK    2  A    between atoms: N_3  and  C_4
REMARK    3  A    between atoms: C_4  and  C_5
REMARK    4  A    between atoms: C_8  and  C_9
REMARK    5  A    between atoms: C_9  and  N_10
REMARK    6  A    between atoms: C_11  and  C_13
REMARK                            x       y       z     vdW  Elec       q    Type
REMARK                         _______ _______ _______ _____ _____    ______ ____
ROOT
ATOM      1  C   UNL     1       2.259  -0.431   2.389  0.00  0.00    +0.000 C 
ENDROOT
BRANCH   1   2
ATOM      2  C   UNL     1       3.191  -0.525   3.572  0.00  0.00    +0.000 A 
ATOM      3  C   UNL     1       3.717   0.634   4.159  0.00  0.00    +0.000 A 
ATOM      4  C   UNL     1       4.553   0.552   5.283  0.00  0.00    +0.000 A 
ATOM      5  C   UNL     1       4.900  -0.691   5.833  0.00  0.00    +0.000 A 
ATOM      6  C   UNL     1       4.383  -1.849   5.235  0.00  0.00    +0.000 A 
ATOM      7  C   UNL     1       3.548  -1.768   4.112  0.00  0.00    +0.000 A 
BRANCH   5   8
ATOM      8  C   UNL     1       5.832  -0.784   7.017  0.00  0.00    +0.000 C 
BRANCH   8   9
ATOM      9  N   UNL     1       5.139  -0.793   8.290  0.00  0.00    +0.000 N 
ATOM     10  C   UNL     1       5.850  -0.965   9.464  0.00  0.00    +0.000 C 
ATOM     11  O   UNL     1       7.059  -1.176   9.475  0.00  0.00    +0.000 OA
ATOM     12  H   UNL     1       4.186  -0.455   8.315  0.00  0.00    +0.000 HD
BRANCH  10  13
ATOM     13  C   UNL     1       5.031  -0.791  10.745  0.00  0.00    +0.000 C 
ATOM     14  C   UNL     1       5.866  -0.902  12.027  0.00  0.00    +0.000 C 
ATOM     15  C   UNL     1       6.019  -2.372  12.379  0.00  0.00    +0.000 C 
ATOM     16  S   UNL     1       4.419  -3.112  11.982  0.00  0.00    +0.000 S 
ATOM     17  C   UNL     1       3.885  -1.790  10.859  0.00  0.00    +0.000 C 
ENDBRANCH  10  13
ENDBRANCH   8   9
ENDBRANCH   5   8
ENDBRANCH   1   2
BRANCH   1  20
ATOM     18  O   UNL     1       1.030  -0.503  -0.082  0.00  0.00    +0.000 OA
ATOM     19  C   UNL     1       2.255  -0.415  -0.055  0.00  0.00    +0.000 C 
ATOM     20  N   UNL     1       2.956  -0.441   1.127  0.00  0.00    +0.000 N 
ATOM     21  H   UNL     1       3.933  -0.160   1.133  0.00  0.00    +0.000 HD
BRANCH  19  22
ATOM     22  C   UNL     1       3.035  -0.310  -1.294  0.00  0.00    +0.000 A 
ATOM     23  C   UNL     1       2.498  -0.766  -2.490  0.00  0.00    +0.000 A 
ATOM     24  S   UNL     1       3.540  -0.576  -3.828  0.00  0.00    +0.000 S 
ATOM     25  C   UNL     1       4.727   0.170  -2.863  0.00  0.00    +0.000 A 
ATOM     26  N   UNL     1       5.887   0.625  -3.412  0.00  0.00    +0.000 NA
ATOM     27  C   UNL     1       6.683   1.201  -2.574  0.00  0.00    +0.000 A 
ATOM     28  N   UNL     1       6.420   1.364  -1.238  0.00  0.00    +0.000 N 
ATOM     29  C   UNL     1       5.278   0.888  -0.634  0.00  0.00    +0.000 A 
ATOM     30  O   UNL     1       5.103   1.002   0.574  0.00  0.00    +0.000 OA
ATOM     31  C   UNL     1       4.344   0.248  -1.538  0.00  0.00    +0.000 A 
ATOM     32  H   UNL     1       7.091   1.812  -0.633  0.00  0.00    +0.000 HD
ENDBRANCH  19  22
ENDBRANCH   1  20
TORSDOF 6
