REMARK  Name = 
REMARK  7 active torsions:
REMARK  status: ('A' for Active; 'I' for Inactive)
REMARK    1  A    between atoms: N_1  and  C_2
REMARK    2  A    between atoms: C_2  and  C_3
REMARK    3  A    between atoms: C_3  and  C_4
REMARK    4  A    between atoms: C_4  and  O_5
REMARK    5  A    between atoms: C_8  and  C_9
REMARK    6  A    between atoms: C_9  and  N_10
REMARK    7  A    between atoms: C_15  and  C_16
REMARK                            x       y       z     vdW  Elec       q    Type
REMARK                         _______ _______ _______ _____ _____    ______ ____
ROOT
ATOM      1  C   UNL     1       4.721   5.258  -0.584  0.00  0.00    +0.000 C 
ENDROOT
BRANCH   1   2
ATOM      2  N   UNL     1       6.086   5.577  -0.217  0.00  0.00    +0.000 N 
ATOM      3  C   UNL     1       7.214   5.163  -0.878  0.00  0.00    +0.000 A 
ATOM      4  N   UNL     1       8.305   5.716  -0.393  0.00  0.00    +0.000 NA
ATOM      5  C   UNL     1       7.860   6.553   0.598  0.00  0.00    +0.000 A 
ATOM      6  C   UNL     1       8.561   7.449   1.415  0.00  0.00    +0.000 A 
ATOM      7  C   UNL     1       7.808   8.213   2.313  0.00  0.00    +0.000 A 
ATOM      8  C   UNL     1       6.423   8.013   2.368  0.00  0.00    +0.000 A 
ATOM      9  N   UNL     1       5.699   7.148   1.603  0.00  0.00    +0.000 NA
ATOM     10  C   UNL     1       6.478   6.469   0.740  0.00  0.00    +0.000 A 
BRANCH   7  11
ATOM     11  C   UNL     1       8.394   9.249   3.196  0.00  0.00    +0.000 C 
ATOM     12  N   UNL     1       9.733   9.509   3.110  0.00  0.00    +0.000 N 
ATOM     13  O   UNL     1       7.695   9.881   3.980  0.00  0.00    +0.000 OA
ATOM     14  H   UNL     1      10.374   9.073   2.466  0.00  0.00    +0.000 HD
ATOM     15  H   UNL     1      10.089  10.254   3.696  0.00  0.00    +0.000 HD
ENDBRANCH   7  11
ENDBRANCH   1   2
BRANCH   1  19
ATOM     16  C   UNL     1       2.934   1.222  -0.517  0.00  0.00    +0.000 C 
ATOM     17  C   UNL     1       4.377   1.409   0.004  0.00  0.00    +0.000 C 
ATOM     18  C   UNL     1       5.004   2.742  -0.384  0.00  0.00    +0.000 C 
ATOM     19  C   UNL     1       4.160   3.956   0.025  0.00  0.00    +0.000 C 
ATOM     20  C   UNL     1       2.688   3.792  -0.400  0.00  0.00    +0.000 C 
ATOM     21  C   UNL     1       2.089   2.431  -0.034  0.00  0.00    +0.000 C 
BRANCH  16  22
ATOM     22  C   UNL     1       2.319  -0.068   0.100  0.00  0.00    +0.000 C 
BRANCH  22  23
ATOM     23  N   UNL     1       3.032  -1.292  -0.273  0.00  0.00    +0.000 NA
ATOM     24  H   UNL     1       2.591  -2.088   0.191  0.00  0.00    +0.000 HD
ATOM     25  H   UNL     1       3.982  -1.262   0.100  0.00  0.00    +0.000 HD
ENDBRANCH  22  23
ENDBRANCH  16  22
BRANCH  16  26
ATOM     26  C   UNL     1       2.929   1.131  -2.066  0.00  0.00    +0.000 C 
BRANCH  26  27
ATOM     27  O   UNL     1       1.625   0.885  -2.581  0.00  0.00    +0.000 OA
ATOM     28  H   UNL     1       1.477  -0.075  -2.493  0.00  0.00    +0.000 HD
ENDBRANCH  26  27
ENDBRANCH  16  26
ENDBRANCH   1  19
TORSDOF 7
