REMARK  Name = 
REMARK  10 active torsions:
REMARK  status: ('A' for Active; 'I' for Inactive)
REMARK    1  A    between atoms: C_1  and  O_2
REMARK    2  A    between atoms: O_2  and  C_3
REMARK    3  A    between atoms: C_5  and  C_6
REMARK    4  A    between atoms: C_6  and  N_7
REMARK    5  A    between atoms: N_7  and  C_8
REMARK    6  A    between atoms: C_9  and  C_11
REMARK    7  A    between atoms: C_23  and  C_24
REMARK    8  A    between atoms: C_24  and  N_25
REMARK    9  A    between atoms: N_25  and  C_26
REMARK   10  A    between atoms: C_26  and  C_27
REMARK                            x       y       z     vdW  Elec       q    Type
REMARK                         _______ _______ _______ _____ _____    ______ ____
ROOT
ATOM      1  C   UNL     1       2.950  -0.895   0.967  0.00  0.00    +0.000 A 
ATOM      2  C   UNL     1       2.527  -2.228   0.847  0.00  0.00    +0.000 A 
ATOM      3  C   UNL     1       3.393  -3.293   1.116  0.00  0.00    +0.000 A 
ATOM      4  C   UNL     1       4.682  -2.996   1.580  0.00  0.00    +0.000 A 
ATOM      5  C   UNL     1       5.074  -1.668   1.805  0.00  0.00    +0.000 A 
ATOM      6  C   UNL     1       4.207  -0.597   1.518  0.00  0.00    +0.000 A 
ENDROOT
BRANCH   1   8
ATOM      7  C   UNL     1       1.443  -0.137  -0.658  0.00  0.00    +0.000 C 
ATOM      8  O   UNL     1       2.169   0.152   0.540  0.00  0.00    +0.000 OA
ENDBRANCH   1   8
BRANCH   3   9
ATOM      9  C   UNL     1       2.969  -4.706   0.760  0.00  0.00    +0.000 C 
BRANCH   9  10
ATOM     10  N   UNL     1       1.900  -5.286   1.586  0.00  0.00    +0.000 N 
ATOM     11  C   UNL     1       2.251  -5.519   2.981  0.00  0.00    +0.000 C 
ATOM     12  C   UNL     1       0.773  -5.811   0.917  0.00  0.00    +0.000 C 
ATOM     13  O   UNL     1       0.671  -5.707  -0.304  0.00  0.00    +0.000 OA
BRANCH  12  14
ATOM     14  C   UNL     1      -0.334  -6.441   1.668  0.00  0.00    +0.000 A 
ATOM     15  C   UNL     1      -0.796  -6.004   2.900  0.00  0.00    +0.000 A 
ATOM     16  S   UNL     1      -2.121  -6.897   3.499  0.00  0.00    +0.000 S 
ATOM     17  C   UNL     1      -2.262  -7.764   2.044  0.00  0.00    +0.000 A 
ATOM     18  N   UNL     1      -3.313  -8.602   1.834  0.00  0.00    +0.000 NA
ATOM     19  C   UNL     1      -3.345  -9.125   0.654  0.00  0.00    +0.000 A 
ATOM     20  N   UNL     1      -2.392  -8.926  -0.312  0.00  0.00    +0.000 N 
ATOM     21  C   UNL     1      -1.233  -8.210  -0.088  0.00  0.00    +0.000 A 
ATOM     22  O   UNL     1      -0.299  -8.270  -0.881  0.00  0.00    +0.000 OA
ATOM     23  C   UNL     1      -1.227  -7.478   1.171  0.00  0.00    +0.000 A 
ATOM     24  H   UNL     1      -2.444  -9.418  -1.192  0.00  0.00    +0.000 HD
ENDBRANCH  12  14
ENDBRANCH   9  10
ENDBRANCH   3   9
BRANCH   6  25
ATOM     25  C   UNL     1       4.611   0.821   1.880  0.00  0.00    +0.000 C 
BRANCH  25  26
ATOM     26  N   UNL     1       4.110   1.139   3.217  0.00  0.00    +0.000 NA
ATOM     27  H   UNL     1       4.487   0.472   3.886  0.00  0.00    +0.000 HD
BRANCH  26  28
ATOM     28  C   UNL     1       4.415   2.497   3.650  0.00  0.00    +0.000 C 
BRANCH  28  29
ATOM     29  C   UNL     1       3.875   2.729   5.047  0.00  0.00    +0.000 A 
ATOM     30  C   UNL     1       4.722   3.055   6.109  0.00  0.00    +0.000 A 
ATOM     31  C   UNL     1       4.170   3.237   7.370  0.00  0.00    +0.000 A 
ATOM     32  N   UNL     1       2.849   3.118   7.640  0.00  0.00    +0.000 NA
ATOM     33  C   UNL     1       2.049   2.803   6.608  0.00  0.00    +0.000 A 
ATOM     34  C   UNL     1       2.504   2.607   5.320  0.00  0.00    +0.000 A 
ENDBRANCH  28  29
ENDBRANCH  26  28
ENDBRANCH  25  26
ENDBRANCH   6  25
TORSDOF 8
