REMARK  Name = 
REMARK  6 active torsions:
REMARK  status: ('A' for Active; 'I' for Inactive)
REMARK    1  A    between atoms: C_2  and  C_4
REMARK    2  A    between atoms: C_7  and  N_8
REMARK    3  A    between atoms: N_8  and  C_9
REMARK    4  A    between atoms: C_9  and  C_10
REMARK    5  A    between atoms: C_14  and  N_15
REMARK    6  A    between atoms: C_18  and  O_19
REMARK                            x       y       z     vdW  Elec       q    Type
REMARK                         _______ _______ _______ _____ _____    ______ ____
ROOT
ATOM      1  C   UNL     1       4.945   4.846   3.826  0.00  0.00    +0.000 C 
ENDROOT
BRANCH   1   2
ATOM      2  C   UNL     1       5.812   6.033   4.179  0.00  0.00    +0.000 A 
ATOM      3  C   UNL     1       7.105   5.818   4.629  0.00  0.00    +0.000 A 
ATOM      4  N   UNL     1       7.943   6.818   4.949  0.00  0.00    +0.000 NA
ATOM      5  C   UNL     1       7.418   8.059   4.796  0.00  0.00    +0.000 A 
ATOM      6  C   UNL     1       6.118   8.338   4.356  0.00  0.00    +0.000 A 
ATOM      7  N   UNL     1       5.305   7.297   4.044  0.00  0.00    +0.000 NA
BRANCH   6   8
ATOM      8  N   UNL     1       5.662   9.633   4.205  0.00  0.00    +0.000 N 
ATOM      9  C   UNL     1       6.180  10.741   4.998  0.00  0.00    +0.000 C 
ATOM     10  C   UNL     1       6.700  11.824   4.059  0.00  0.00    +0.000 C 
ATOM     11  C   UNL     1       5.647  12.227   3.025  0.00  0.00    +0.000 C 
ATOM     12  C   UNL     1       5.034  11.020   2.313  0.00  0.00    +0.000 C 
ATOM     13  C   UNL     1       4.566   9.936   3.292  0.00  0.00    +0.000 C 
BRANCH  11  14
ATOM     14  O   UNL     1       4.629  13.018   3.639  0.00  0.00    +0.000 OA
ATOM     15  H   UNL     1       4.167  12.482   4.304  0.00  0.00    +0.000 HD
ENDBRANCH  11  14
ENDBRANCH   6   8
ENDBRANCH   1   2
BRANCH   1  16
ATOM     16  N   UNL     1       4.198   4.322   4.972  0.00  0.00    +0.000 N 
ATOM     17  H   UNL     1       3.824   5.071   5.549  0.00  0.00    +0.000 HD
BRANCH  16  21
ATOM     18  C   UNL     1       5.753   1.219   7.185  0.00  0.00    +0.000 A 
ATOM     19  C   UNL     1       6.486   1.795   6.159  0.00  0.00    +0.000 A 
ATOM     20  N   UNL     1       6.019   2.839   5.417  0.00  0.00    +0.000 NA
ATOM     21  C   UNL     1       4.795   3.314   5.734  0.00  0.00    +0.000 A 
ATOM     22  C   UNL     1       4.077   2.720   6.782  0.00  0.00    +0.000 A 
ATOM     23  N   UNL     1       4.519   1.672   7.531  0.00  0.00    +0.000 NA
BRANCH  18  25
ATOM     24  N   UNL     1       5.472  -0.501   8.876  0.00  0.00    +0.000 N 
ATOM     25  C   UNL     1       6.292   0.040   7.921  0.00  0.00    +0.000 C 
ATOM     26  O   UNL     1       7.392  -0.437   7.676  0.00  0.00    +0.000 OA
ATOM     27  H   UNL     1       5.761  -1.350   9.342  0.00  0.00    +0.000 HD
ATOM     28  H   UNL     1       4.519  -0.171   8.974  0.00  0.00    +0.000 HD
ENDBRANCH  18  25
ENDBRANCH  16  21
ENDBRANCH   1  16
TORSDOF 6
