REMARK  Name = 
REMARK  8 active torsions:
REMARK  status: ('A' for Active; 'I' for Inactive)
REMARK    1  A    between atoms: C_1  and  C_2
REMARK    2  A    between atoms: C_2  and  O_3
REMARK    3  A    between atoms: O_3  and  C_4
REMARK    4  A    between atoms: C_8  and  C_9
REMARK    5  A    between atoms: C_9  and  C_10
REMARK    6  A    between atoms: C_10  and  N_11
REMARK    7  A    between atoms: C_15  and  C_16
REMARK    8  A    between atoms: C_23  and  O_24
REMARK                            x       y       z     vdW  Elec       q    Type
REMARK                         _______ _______ _______ _____ _____    ______ ____
ROOT
ATOM      1  C   UNL     1       5.946   1.765  -4.566  0.00  0.00    +0.000 C 
ENDROOT
BRANCH   1   6
ATOM      2  C   UNL     1       3.947  -0.178  -1.898  0.00  0.00    +0.000 A 
ATOM      3  C   UNL     1       4.805  -1.246  -1.667  0.00  0.00    +0.000 A 
ATOM      4  C   UNL     1       6.043  -1.299  -2.311  0.00  0.00    +0.000 A 
ATOM      5  C   UNL     1       6.412  -0.304  -3.217  0.00  0.00    +0.000 A 
ATOM      6  C   UNL     1       5.539   0.750  -3.510  0.00  0.00    +0.000 A 
ATOM      7  C   UNL     1       4.313   0.805  -2.822  0.00  0.00    +0.000 A 
BRANCH   2   8
ATOM      8  O   UNL     1       2.727   0.030  -1.298  0.00  0.00    +0.000 OA
BRANCH   8  10
ATOM      9  C   UNL     1       1.709  -2.078  -0.587  0.00  0.00    +0.000 C 
ATOM     10  C   UNL     1       2.316  -0.748  -0.142  0.00  0.00    +0.000 C 
ATOM     11  C   UNL     1       3.275  -0.765   1.086  0.00  0.00    +0.000 C 
ATOM     12  C   UNL     1       2.424   0.325   1.752  0.00  0.00    +0.000 C 
ATOM     13  C   UNL     1       1.295   0.012   0.762  0.00  0.00    +0.000 C 
BRANCH  12  14
ATOM     14  O   UNL     1       2.946   1.668   1.715  0.00  0.00    +0.000 OA
ATOM     15  H   UNL     1       3.027   1.892   0.770  0.00  0.00    +0.000 HD
ENDBRANCH  12  14
ENDBRANCH   8  10
ENDBRANCH   2   8
ENDBRANCH   1   6
BRANCH   1  16
ATOM     16  C   UNL     1       4.880   2.820  -4.860  0.00  0.00    +0.000 C 
BRANCH  16  17
ATOM     17  N   UNL     1       5.261   3.732  -5.943  0.00  0.00    +0.000 N 
ATOM     18  C   UNL     1       4.240   4.680  -6.180  0.00  0.00    +0.000 A 
ATOM     19  C   UNL     1       4.409   5.617  -7.195  0.00  0.00    +0.000 A 
ATOM     20  C   UNL     1       3.407   6.566  -7.420  0.00  0.00    +0.000 A 
ATOM     21  C   UNL     1       2.256   6.567  -6.629  0.00  0.00    +0.000 A 
ATOM     22  C   UNL     1       2.177   5.608  -5.639  0.00  0.00    +0.000 A 
ATOM     23  N   UNL     1       3.135   4.684  -5.403  0.00  0.00    +0.000 NA
ATOM     24  H   UNL     1       5.449   3.241  -6.814  0.00  0.00    +0.000 HD
BRANCH  21  25
ATOM     25  C   UNL     1       1.192   7.569  -6.870  0.00  0.00    +0.000 C 
ATOM     26  N   UNL     1       0.067   7.550  -6.097  0.00  0.00    +0.000 N 
ATOM     27  O   UNL     1       1.310   8.409  -7.756  0.00  0.00    +0.000 OA
ATOM     28  H   UNL     1      -0.133   6.908  -5.348  0.00  0.00    +0.000 HD
ATOM     29  H   UNL     1      -0.630   8.255  -6.301  0.00  0.00    +0.000 HD
ENDBRANCH  21  25
ENDBRANCH  16  17
ENDBRANCH   1  16
TORSDOF 7
