REMARK  Name = 
REMARK  5 active torsions:
REMARK  status: ('A' for Active; 'I' for Inactive)
REMARK    1  A    between atoms: C_2  and  C_4
REMARK    2  A    between atoms: C_7  and  C_8
REMARK    3  A    between atoms: C_12  and  C_13
REMARK    4  A    between atoms: C_13  and  N_14
REMARK    5  A    between atoms: C_18  and  O_19
REMARK                            x       y       z     vdW  Elec       q    Type
REMARK                         _______ _______ _______ _____ _____    ______ ____
ROOT
ATOM      1  C   UNL     1       5.238  -4.247  -2.513  0.00  0.00    +0.000 A 
ATOM      2  N   UNL     1       5.272  -5.471  -1.955  0.00  0.00    +0.000 NA
ATOM      3  C   UNL     1       6.048  -6.383  -2.563  0.00  0.00    +0.000 A 
ATOM      4  C   UNL     1       6.799  -6.119  -3.686  0.00  0.00    +0.000 A 
ATOM      5  C   UNL     1       6.725  -4.837  -4.198  0.00  0.00    +0.000 A 
ATOM      6  N   UNL     1       5.925  -3.911  -3.624  0.00  0.00    +0.000 NA
ENDROOT
BRANCH   1  10
ATOM      7  C   UNL     1       2.997  -1.156  -0.628  0.00  0.00    +0.000 A 
ATOM      8  C   UNL     1       3.593  -0.897  -1.859  0.00  0.00    +0.000 A 
ATOM      9  C   UNL     1       4.320  -1.909  -2.484  0.00  0.00    +0.000 A 
ATOM     10  C   UNL     1       4.446  -3.166  -1.873  0.00  0.00    +0.000 A 
ATOM     11  N   UNL     1       3.875  -3.413  -0.661  0.00  0.00    +0.000 NA
ATOM     12  C   UNL     1       3.179  -2.410  -0.066  0.00  0.00    +0.000 A 
BRANCH   7  14
ATOM     13  N   UNL     1       1.566   0.803  -0.651  0.00  0.00    +0.000 N 
ATOM     14  C   UNL     1       2.200  -0.150   0.098  0.00  0.00    +0.000 C 
ATOM     15  O   UNL     1       2.076  -0.186   1.316  0.00  0.00    +0.000 OA
ATOM     16  H   UNL     1       0.932   1.415  -0.153  0.00  0.00    +0.000 HD
ATOM     17  H   UNL     1       1.440   0.712  -1.649  0.00  0.00    +0.000 HD
ENDBRANCH   7  14
ENDBRANCH   1  10
BRANCH   5  18
ATOM     18  C   UNL     1       7.565  -4.390  -5.402  0.00  0.00    +0.000 C 
ATOM     19  C   UNL     1       9.060  -4.225  -5.204  0.00  0.00    +0.000 C 
ATOM     20  C   UNL     1       8.208  -3.006  -5.288  0.00  0.00    +0.000 C 
BRANCH  18  21
ATOM     21  N   UNL     1       6.940  -4.660  -6.711  0.00  0.00    +0.000 N 
ATOM     22  C   UNL     1       7.051  -5.870  -7.398  0.00  0.00    +0.000 A 
ATOM     23  C   UNL     1       8.236  -6.597  -7.467  0.00  0.00    +0.000 A 
ATOM     24  C   UNL     1       8.311  -7.724  -8.286  0.00  0.00    +0.000 A 
ATOM     25  C   UNL     1       7.191  -8.100  -9.006  0.00  0.00    +0.000 A 
ATOM     26  C   UNL     1       6.037  -7.352  -8.861  0.00  0.00    +0.000 A 
ATOM     27  N   UNL     1       5.950  -6.248  -8.080  0.00  0.00    +0.000 NA
ATOM     28  H   UNL     1       5.962  -4.381  -6.793  0.00  0.00    +0.000 HD
BRANCH  25  29
ATOM     29  O   UNL     1       7.204  -9.163  -9.852  0.00  0.00    +0.000 OA
ATOM     30  H   UNL     1       8.118  -9.482  -9.939  0.00  0.00    +0.000 HD
ENDBRANCH  25  29
ENDBRANCH  18  21
ENDBRANCH   5  18
TORSDOF 5
