REMARK  Name = 
REMARK  5 active torsions:
REMARK  status: ('A' for Active; 'I' for Inactive)
REMARK    1  A    between atoms: C_2  and  C_3
REMARK    2  A    between atoms: N_7  and  C_8
REMARK    3  A    between atoms: C_8  and  C_9
REMARK    4  A    between atoms: C_11  and  C_12
REMARK    5  A    between atoms: C_25  and  N_26
REMARK                            x       y       z     vdW  Elec       q    Type
REMARK                         _______ _______ _______ _____ _____    ______ ____
ROOT
ATOM      1  C   UNL     1       8.649  -0.951  -0.086  0.00  0.00    +0.000 C 
ATOM      2  C   UNL     1       8.858  -2.070  -1.085  0.00  0.00    +0.000 C 
ATOM      3  C   UNL     1       8.615  -2.419   0.345  0.00  0.00    +0.000 C 
ENDROOT
BRANCH   1   8
ATOM      4  C   UNL     1       6.239   2.380  -3.129  0.00  0.00    +0.000 A 
ATOM      5  N   UNL     1       7.546   2.002  -3.167  0.00  0.00    +0.000 NA
ATOM      6  C   UNL     1       7.925   1.140  -2.185  0.00  0.00    +0.000 A 
ATOM      7  C   UNL     1       7.049   0.647  -1.218  0.00  0.00    +0.000 A 
ATOM      8  N   UNL     1       7.401  -0.194  -0.167  0.00  0.00    +0.000 N 
ATOM      9  N   UNL     1       5.744   1.011  -1.231  0.00  0.00    +0.000 NA
ATOM     10  C   UNL     1       5.341   1.883  -2.183  0.00  0.00    +0.000 A 
ATOM     11  H   UNL     1       6.575  -0.477   0.346  0.00  0.00    +0.000 HD
BRANCH  10  12
ATOM     12  N   UNL     1       4.014   2.295  -2.053  0.00  0.00    +0.000 N 
ATOM     13  H   UNL     1       3.579   1.719  -1.336  0.00  0.00    +0.000 HD
ATOM     14  H   UNL     1       3.489   2.311  -2.918  0.00  0.00    +0.000 HD
ENDBRANCH  10  12
BRANCH   4  16
ATOM     15  N   UNL     1       5.461   4.076  -4.934  0.00  0.00    +0.000 NA
ATOM     16  C   UNL     1       5.828   3.328  -4.127  0.00  0.00    +0.000 C 
ENDBRANCH   4  16
ENDBRANCH   1   8
BRANCH   1  17
ATOM     17  C   UNL     1       9.831  -0.203   0.537  0.00  0.00    +0.000 A 
ATOM     18  C   UNL     1       9.839  -0.001   1.923  0.00  0.00    +0.000 A 
ATOM     19  C   UNL     1      10.997   0.410   2.595  0.00  0.00    +0.000 A 
ATOM     20  C   UNL     1      12.109   0.691   1.797  0.00  0.00    +0.000 A 
ATOM     21  C   UNL     1      12.014   0.539   0.421  0.00  0.00    +0.000 A 
ATOM     22  N   UNL     1      10.910   0.103  -0.220  0.00  0.00    +0.000 NA
BRANCH  19  23
ATOM     23  C   UNL     1      11.033   0.434   4.074  0.00  0.00    +0.000 A 
ATOM     24  C   UNL     1       9.902   0.782   4.833  0.00  0.00    +0.000 A 
ATOM     25  C   UNL     1       9.920   0.691   6.225  0.00  0.00    +0.000 A 
ATOM     26  C   UNL     1      11.085   0.276   6.839  0.00  0.00    +0.000 A 
ATOM     27  N   UNL     1      12.205  -0.049   6.167  0.00  0.00    +0.000 NA
ATOM     28  C   UNL     1      12.152   0.031   4.815  0.00  0.00    +0.000 A 
ATOM     29  F   UNL     1      13.265  -0.357   4.170  0.00  0.00    +0.000 F 
ENDBRANCH  19  23
ENDBRANCH   1  17
TORSDOF 5
