REMARK  Name = 
REMARK  7 active torsions:
REMARK  status: ('A' for Active; 'I' for Inactive)
REMARK    1  A    between atoms: C_1  and  C_2
REMARK    2  A    between atoms: C_2  and  N_3
REMARK    3  A    between atoms: C_2  and  C_17
REMARK    4  A    between atoms: C_4  and  C_6
REMARK    5  A    between atoms: N_12  and  C_13
REMARK    6  A    between atoms: C_20  and  O_21
REMARK    7  A    between atoms: O_21  and  C_22
REMARK                            x       y       z     vdW  Elec       q    Type
REMARK                         _______ _______ _______ _____ _____    ______ ____
ROOT
ATOM      1  C   UNL     1       0.808  -0.014   0.029  0.00  0.00    +0.000 C 
ATOM      2  C   UNL     1       2.337  -0.001  -0.058  0.00  0.00    +0.000 C 
ENDROOT
BRANCH   2   3
ATOM      3  C   UNL     1       2.923   1.151   0.759  0.00  0.00    +0.000 A 
ATOM      4  C   UNL     1       2.589   2.474   0.455  0.00  0.00    +0.000 A 
ATOM      5  C   UNL     1       3.206   3.515   1.143  0.00  0.00    +0.000 A 
ATOM      6  C   UNL     1       4.098   3.223   2.168  0.00  0.00    +0.000 A 
ATOM      7  C   UNL     1       4.394   1.885   2.394  0.00  0.00    +0.000 A 
ATOM      8  N   UNL     1       3.834   0.849   1.718  0.00  0.00    +0.000 NA
BRANCH   6   9
ATOM      9  O   UNL     1       4.756   4.153   2.933  0.00  0.00    +0.000 OA
BRANCH   9  10
ATOM     10  C   UNL     1       4.156   5.362   3.211  0.00  0.00    +0.000 A 
ATOM     11  C   UNL     1       2.783   5.528   3.416  0.00  0.00    +0.000 A 
ATOM     12  C   UNL     1       2.260   6.799   3.659  0.00  0.00    +0.000 A 
ATOM     13  C   UNL     1       3.113   7.896   3.761  0.00  0.00    +0.000 A 
ATOM     14  C   UNL     1       4.490   7.723   3.627  0.00  0.00    +0.000 A 
ATOM     15  C   UNL     1       5.011   6.457   3.351  0.00  0.00    +0.000 A 
ENDBRANCH   9  10
ENDBRANCH   6   9
ENDBRANCH   2   3
BRANCH   2  16
ATOM     16  N   UNL     1       2.796   0.099  -1.437  0.00  0.00    +0.000 N 
ATOM     17  C   UNL     1       2.631  -0.874  -2.380  0.00  0.00    +0.000 C 
ATOM     18  O   UNL     1       2.114  -1.958  -2.125  0.00  0.00    +0.000 OA
ATOM     19  H   UNL     1       3.192   0.989  -1.715  0.00  0.00    +0.000 HD
BRANCH  17  20
ATOM     20  C   UNL     1       3.135  -0.559  -3.726  0.00  0.00    +0.000 A 
ATOM     21  C   UNL     1       3.399  -1.592  -4.615  0.00  0.00    +0.000 A 
ATOM     22  S   UNL     1       3.968  -1.059  -6.131  0.00  0.00    +0.000 S 
ATOM     23  C   UNL     1       3.848   0.574  -5.665  0.00  0.00    +0.000 A 
ATOM     24  N   UNL     1       4.158   1.568  -6.536  0.00  0.00    +0.000 NA
ATOM     25  C   UNL     1       4.003   2.762  -6.065  0.00  0.00    +0.000 A 
ATOM     26  N   UNL     1       3.569   3.070  -4.794  0.00  0.00    +0.000 N 
ATOM     27  C   UNL     1       3.454   4.447  -4.363  0.00  0.00    +0.000 C 
ATOM     28  C   UNL     1       3.267   2.075  -3.871  0.00  0.00    +0.000 A 
ATOM     29  O   UNL     1       2.921   2.330  -2.720  0.00  0.00    +0.000 OA
ATOM     30  C   UNL     1       3.406   0.710  -4.364  0.00  0.00    +0.000 A 
ENDBRANCH  17  20
ENDBRANCH   2  16
TORSDOF 5
