REMARK  Name = 
REMARK  9 active torsions:
REMARK  status: ('A' for Active; 'I' for Inactive)
REMARK    1  A    between atoms: C_1  and  O_2
REMARK    2  A    between atoms: O_2  and  C_3
REMARK    3  A    between atoms: C_10  and  C_11
REMARK    4  A    between atoms: N_13  and  C_14
REMARK    5  A    between atoms: C_14  and  C_15
REMARK    6  A    between atoms: C_18  and  N_19
REMARK    7  A    between atoms: N_19  and  C_20
REMARK    8  A    between atoms: C_20  and  C_21
REMARK    9  A    between atoms: N_25  and  C_26
REMARK                            x       y       z     vdW  Elec       q    Type
REMARK                         _______ _______ _______ _____ _____    ______ ____
ROOT
ATOM      1  C   UNL     1      -9.617  -3.317   0.193  0.00  0.00    +0.000 C 
ENDROOT
BRANCH   1   2
ATOM      2  C   UNL     1      -8.482  -2.982  -0.740  0.00  0.00    +0.000 A 
ATOM      3  C   UNL     1      -8.309  -1.676  -1.205  0.00  0.00    +0.000 A 
ATOM      4  C   UNL     1      -7.170  -1.328  -1.941  0.00  0.00    +0.000 A 
ATOM      5  C   UNL     1      -6.170  -2.268  -2.215  0.00  0.00    +0.000 A 
ATOM      6  C   UNL     1      -6.430  -3.604  -1.892  0.00  0.00    +0.000 A 
ATOM      7  C   UNL     1      -7.565  -3.958  -1.148  0.00  0.00    +0.000 A 
BRANCH   5   8
ATOM      8  N   UNL     1      -4.969  -1.961  -2.891  0.00  0.00    +0.000 N 
ATOM      9  H   UNL     1      -5.126  -2.073  -3.891  0.00  0.00    +0.000 HD
BRANCH   8  10
ATOM     10  C   UNL     1      -4.406  -0.636  -2.578  0.00  0.00    +0.000 C 
BRANCH  10  11
ATOM     11  C   UNL     1      -3.044  -0.394  -3.263  0.00  0.00    +0.000 C 
ATOM     12  C   UNL     1      -3.105  -0.434  -4.797  0.00  0.00    +0.000 C 
ATOM     13  C   UNL     1      -3.943   0.718  -5.342  0.00  0.00    +0.000 C 
ATOM     14  C   UNL     1      -3.431   2.063  -4.819  0.00  0.00    +0.000 C 
ATOM     15  N   UNL     1      -3.328   2.089  -3.351  0.00  0.00    +0.000 NA
ATOM     16  C   UNL     1      -2.802   3.383  -2.908  0.00  0.00    +0.000 C 
ATOM     17  C   UNL     1      -2.493   0.987  -2.841  0.00  0.00    +0.000 C 
ENDBRANCH  10  11
ENDBRANCH   8  10
ENDBRANCH   5   8
ENDBRANCH   1   2
BRANCH   1  20
ATOM     18  C   UNL     1     -11.956  -4.064   0.135  0.00  0.00    +0.000 C 
ATOM     19  O   UNL     1     -12.038  -4.022   1.358  0.00  0.00    +0.000 OA
ATOM     20  N   UNL     1     -10.799  -3.731  -0.514  0.00  0.00    +0.000 N 
ATOM     21  H   UNL     1     -10.743  -3.780  -1.520  0.00  0.00    +0.000 HD
BRANCH  18  29
ATOM     22  C   UNL     1     -12.449  -4.289  -3.262  0.00  0.00    +0.000 A 
ATOM     23  N   UNL     1     -12.883  -4.511  -4.518  0.00  0.00    +0.000 NA
ATOM     24  C   UNL     1     -14.124  -4.984  -4.676  0.00  0.00    +0.000 A 
ATOM     25  N   UNL     1     -15.004  -5.261  -3.717  0.00  0.00    +0.000 NA
ATOM     26  C   UNL     1     -14.523  -5.040  -2.483  0.00  0.00    +0.000 A 
ATOM     27  S   UNL     1     -15.511  -5.334  -1.133  0.00  0.00    +0.000 S 
ATOM     28  C   UNL     1     -14.278  -4.863  -0.063  0.00  0.00    +0.000 A 
ATOM     29  C   UNL     1     -13.100  -4.480  -0.697  0.00  0.00    +0.000 A 
ATOM     30  C   UNL     1     -13.260  -4.571  -2.145  0.00  0.00    +0.000 A 
BRANCH  22  32
ATOM     31  C   UNL     1     -10.695  -3.071  -4.222  0.00  0.00    +0.000 C 
ATOM     32  O   UNL     1     -11.170  -3.803  -3.096  0.00  0.00    +0.000 OA
ENDBRANCH  22  32
ENDBRANCH  18  29
ENDBRANCH   1  20
TORSDOF 7
