REMARK  Name = 
REMARK  8 active torsions:
REMARK  status: ('A' for Active; 'I' for Inactive)
REMARK    1  A    between atoms: N_1  and  C_2
REMARK    2  A    between atoms: C_2  and  C_3
REMARK    3  A    between atoms: C_3  and  N_4
REMARK    4  A    between atoms: C_3  and  C_19
REMARK    5  A    between atoms: N_4  and  C_5
REMARK    6  A    between atoms: C_8  and  C_9
REMARK    7  A    between atoms: C_9  and  O_10
REMARK    8  A    between atoms: O_10  and  C_11
REMARK                            x       y       z     vdW  Elec       q    Type
REMARK                         _______ _______ _______ _____ _____    ______ ____
ROOT
ATOM      1  C   UNL     1       2.829  -1.378  -0.183  0.00  0.00    +0.000 C 
ENDROOT
BRANCH   1   2
ATOM      2  C   UNL     1       2.391  -0.957   1.208  0.00  0.00    +0.000 A 
ATOM      3  C   UNL     1       1.941  -1.831   2.187  0.00  0.00    +0.000 A 
ATOM      4  S   UNL     1       0.868  -1.065   3.282  0.00  0.00    +0.000 S 
ATOM      5  C   UNL     1       1.113   0.449   2.540  0.00  0.00    +0.000 A 
ATOM      6  N   UNL     1       0.371   1.543   2.857  0.00  0.00    +0.000 NA
ATOM      7  C   UNL     1       0.730   2.618   2.235  0.00  0.00    +0.000 A 
ATOM      8  N   UNL     1       1.801   2.717   1.379  0.00  0.00    +0.000 N 
ATOM      9  C   UNL     1       2.573   1.636   1.024  0.00  0.00    +0.000 A 
ATOM     10  O   UNL     1       3.567   1.733   0.313  0.00  0.00    +0.000 OA
ATOM     11  C   UNL     1       2.120   0.391   1.599  0.00  0.00    +0.000 A 
ATOM     12  H   UNL     1       2.082   3.610   1.003  0.00  0.00    +0.000 HD
ENDBRANCH   1   2
BRANCH   1  13
ATOM     13  N   UNL     1       1.946  -2.471  -0.629  0.00  0.00    +0.000 N 
ATOM     14  H   UNL     1       2.493  -3.312  -0.820  0.00  0.00    +0.000 HD
BRANCH  13  15
ATOM     15  C   UNL     1       0.991  -2.248  -1.617  0.00  0.00    +0.000 A 
ATOM     16  C   UNL     1      -0.243  -2.889  -1.494  0.00  0.00    +0.000 A 
ATOM     17  C   UNL     1      -1.096  -3.001  -2.585  0.00  0.00    +0.000 A 
ATOM     18  C   UNL     1      -0.662  -2.493  -3.797  0.00  0.00    +0.000 A 
ATOM     19  N   UNL     1       0.469  -1.758  -3.934  0.00  0.00    +0.000 NA
ATOM     20  C   UNL     1       1.261  -1.654  -2.846  0.00  0.00    +0.000 A 
BRANCH  18  21
ATOM     21  C   UNL     1      -1.365  -2.893  -5.082  0.00  0.00    +0.000 C 
BRANCH  21  22
ATOM     22  O   UNL     1      -2.488  -2.065  -5.355  0.00  0.00    +0.000 OA
BRANCH  22  23
ATOM     23  C   UNL     1      -3.142  -2.505  -6.488  0.00  0.00    +0.000 A 
ATOM     24  N   UNL     1      -4.415  -2.105  -6.599  0.00  0.00    +0.000 NA
ATOM     25  C   UNL     1      -5.080  -2.549  -7.686  0.00  0.00    +0.000 A 
ATOM     26  C   UNL     1      -4.516  -3.337  -8.658  0.00  0.00    +0.000 A 
ATOM     27  C   UNL     1      -3.194  -3.673  -8.454  0.00  0.00    +0.000 A 
ATOM     28  N   UNL     1      -2.490  -3.273  -7.379  0.00  0.00    +0.000 NA
ENDBRANCH  22  23
ENDBRANCH  21  22
ENDBRANCH  18  21
ENDBRANCH  13  15
ENDBRANCH   1  13
BRANCH   1  29
ATOM     29  C   UNL     1       4.315  -1.824  -0.309  0.00  0.00    +0.000 C 
BRANCH  29  30
ATOM     30  N   UNL     1       4.621  -3.141   0.278  0.00  0.00    +0.000 NA
ATOM     31  H   UNL     1       5.632  -3.217   0.395  0.00  0.00    +0.000 HD
ATOM     32  H   UNL     1       4.230  -3.183   1.219  0.00  0.00    +0.000 HD
ENDBRANCH  29  30
ENDBRANCH   1  29
TORSDOF 8
