REMARK  Name = 
REMARK  10 active torsions:
REMARK  status: ('A' for Active; 'I' for Inactive)
REMARK    1  A    between atoms: C_1  and  C_2
REMARK    2  A    between atoms: C_2  and  N_3
REMARK    3  A    between atoms: C_2  and  C_19
REMARK    4  A    between atoms: N_3  and  C_4
REMARK    5  A    between atoms: C_4  and  C_5
REMARK    6  A    between atoms: C_8  and  C_9
REMARK    7  A    between atoms: C_9  and  O_10
REMARK    8  A    between atoms: C_9  and  C_11
REMARK    9  A    between atoms: C_11  and  N_12
REMARK   10  A    between atoms: C_19  and  C_21
REMARK                            x       y       z     vdW  Elec       q    Type
REMARK                         _______ _______ _______ _____ _____    ______ ____
ROOT
ATOM      1  N   UNL     1       3.059  -1.542 -12.619  0.00  0.00    +0.000 NA
ATOM      2  H   UNL     1       3.521  -0.675 -12.891  0.00  0.00    +0.000 HD
ENDROOT
BRANCH   1   4
ATOM      3  C   UNL     1       1.905  -1.577 -14.833  0.00  0.00    +0.000 C 
ATOM      4  C   UNL     1       2.776  -2.341 -13.832  0.00  0.00    +0.000 C 
BRANCH   4   5
ATOM      5  C   UNL     1       2.207  -3.748 -13.519  0.00  0.00    +0.000 C 
ATOM      6  O   UNL     1       1.060  -4.047 -13.856  0.00  0.00    +0.000 OA
BRANCH   5   7
ATOM      7  C   UNL     1       3.041  -4.732 -12.795  0.00  0.00    +0.000 A 
ATOM      8  C   UNL     1       4.001  -4.391 -11.860  0.00  0.00    +0.000 A 
ATOM      9  S   UNL     1       4.668  -5.737 -11.044  0.00  0.00    +0.000 S 
ATOM     10  C   UNL     1       3.719  -6.821 -11.947  0.00  0.00    +0.000 A 
ATOM     11  N   UNL     1       3.772  -8.159 -11.714  0.00  0.00    +0.000 NA
ATOM     12  C   UNL     1       2.980  -8.857 -12.459  0.00  0.00    +0.000 A 
ATOM     13  N   UNL     1       2.166  -8.342 -13.436  0.00  0.00    +0.000 N 
ATOM     14  C   UNL     1       2.195  -7.011 -13.804  0.00  0.00    +0.000 A 
ATOM     15  O   UNL     1       1.704  -6.640 -14.863  0.00  0.00    +0.000 OA
ATOM     16  C   UNL     1       2.952  -6.168 -12.895  0.00  0.00    +0.000 A 
ATOM     17  H   UNL     1       1.651  -8.955 -14.049  0.00  0.00    +0.000 HD
ENDBRANCH   5   7
ENDBRANCH   4   5
ENDBRANCH   1   4
BRANCH   1  18
ATOM     18  C   UNL     1       1.895  -1.204 -11.798  0.00  0.00    +0.000 C 
BRANCH  18  19
ATOM     19  C   UNL     1       2.338  -0.359 -10.621  0.00  0.00    +0.000 A 
ATOM     20  C   UNL     1       2.431   1.033 -10.750  0.00  0.00    +0.000 A 
ATOM     21  C   UNL     1       2.915   1.822  -9.700  0.00  0.00    +0.000 A 
ATOM     22  C   UNL     1       3.333   1.240  -8.496  0.00  0.00    +0.000 A 
ATOM     23  C   UNL     1       3.215  -0.156  -8.365  0.00  0.00    +0.000 A 
ATOM     24  C   UNL     1       2.730  -0.946  -9.414  0.00  0.00    +0.000 A 
BRANCH  22  25
ATOM     25  C   UNL     1       3.956   2.028  -7.349  0.00  0.00    +0.000 C 
BRANCH  25  26
ATOM     26  O   UNL     1       3.141   1.860  -6.187  0.00  0.00    +0.000 OA
ATOM     27  H   UNL     1       2.225   2.040  -6.451  0.00  0.00    +0.000 HD
ENDBRANCH  25  26
BRANCH  25  28
ATOM     28  C   UNL     1       4.200   3.545  -7.630  0.00  0.00    +0.000 C 
BRANCH  28  29
ATOM     29  N   UNL     1       4.893   4.311  -6.566  0.00  0.00    +0.000 NA
ATOM     30  C   UNL     1       5.024   5.734  -6.928  0.00  0.00    +0.000 C 
ATOM     31  C   UNL     1       6.326   5.818  -7.701  0.00  0.00    +0.000 C 
ATOM     32  C   UNL     1       7.221   4.860  -6.944  0.00  0.00    +0.000 C 
ATOM     33  C   UNL     1       6.269   3.841  -6.325  0.00  0.00    +0.000 C 
ENDBRANCH  28  29
ENDBRANCH  25  28
ENDBRANCH  22  25
ENDBRANCH  18  19
ENDBRANCH   1  18
TORSDOF 9
