REMARK  Name = 
REMARK  4 active torsions:
REMARK  status: ('A' for Active; 'I' for Inactive)
REMARK    1  A    between atoms: C_2  and  C_4
REMARK    2  A    between atoms: C_7  and  O_8
REMARK    3  A    between atoms: O_8  and  C_9
REMARK    4  A    between atoms: C_9  and  C_10
REMARK                            x       y       z     vdW  Elec       q    Type
REMARK                         _______ _______ _______ _____ _____    ______ ____
ROOT
ATOM      1  C   UNL     1       3.076  -0.616  -1.179  0.00  0.00    +0.000 A 
ATOM      2  C   UNL     1       2.729  -0.372  -2.509  0.00  0.00    +0.000 A 
ATOM      3  C   UNL     1       3.444  -1.011  -3.528  0.00  0.00    +0.000 A 
ATOM      4  C   UNL     1       4.457  -1.888  -3.172  0.00  0.00    +0.000 A 
ATOM      5  N   UNL     1       4.828  -2.122  -1.895  0.00  0.00    +0.000 NA
ATOM      6  C   UNL     1       4.142  -1.468  -0.927  0.00  0.00    +0.000 A 
ENDROOT
BRANCH   1   8
ATOM      7  N   UNL     1       1.050   0.288  -0.197  0.00  0.00    +0.000 N 
ATOM      8  C   UNL     1       2.373  -0.011  -0.028  0.00  0.00    +0.000 C 
ATOM      9  O   UNL     1       2.934   0.166   1.043  0.00  0.00    +0.000 OA
ATOM     10  H   UNL     1       0.550   0.589   0.631  0.00  0.00    +0.000 HD
ATOM     11  H   UNL     1       0.501  -0.079  -0.963  0.00  0.00    +0.000 HD
ENDBRANCH   1   8
BRANCH   4  12
ATOM     12  O   UNL     1       5.130  -2.530  -4.193  0.00  0.00    +0.000 OA
BRANCH  12  13
ATOM     13  C   UNL     1       5.722  -3.751  -3.738  0.00  0.00    +0.000 C 
BRANCH  13  14
ATOM     14  C   UNL     1       6.514  -4.386  -4.849  0.00  0.00    +0.000 A 
ATOM     15  C   UNL     1       6.180  -5.636  -5.376  0.00  0.00    +0.000 A 
ATOM     16  C   UNL     1       6.983  -6.208  -6.360  0.00  0.00    +0.000 A 
ATOM     17  C   UNL     1       8.100  -5.508  -6.784  0.00  0.00    +0.000 A 
ATOM     18  N   UNL     1       8.455  -4.299  -6.301  0.00  0.00    +0.000 NA
ATOM     19  C   UNL     1       7.655  -3.766  -5.348  0.00  0.00    +0.000 A 
ENDBRANCH  13  14
ENDBRANCH  12  13
ENDBRANCH   4  12
TORSDOF 4
