REMARK  Name = 
REMARK  5 active torsions:
REMARK  status: ('A' for Active; 'I' for Inactive)
REMARK    1  A    between atoms: N_1  and  C_2
REMARK    2  A    between atoms: C_2  and  C_3
REMARK    3  A    between atoms: C_3  and  C_4
REMARK    4  A    between atoms: C_7  and  C_8
REMARK    5  A    between atoms: C_8  and  N_9
REMARK                            x       y       z     vdW  Elec       q    Type
REMARK                         _______ _______ _______ _____ _____    ______ ____
ROOT
ATOM      1  C   UNL     1       4.389   0.406  -1.219  0.00  0.00    +0.000 A 
ATOM      2  C   UNL     1       5.075  -0.605  -1.894  0.00  0.00    +0.000 A 
ATOM      3  C   UNL     1       6.469  -0.607  -1.910  0.00  0.00    +0.000 A 
ATOM      4  C   UNL     1       7.156   0.416  -1.257  0.00  0.00    +0.000 A 
ATOM      5  N   UNL     1       6.510   1.392  -0.573  0.00  0.00    +0.000 NA
ATOM      6  C   UNL     1       5.158   1.356  -0.554  0.00  0.00    +0.000 A 
ENDROOT
BRANCH   1   7
ATOM      7  C   UNL     1       2.884   0.468  -1.209  0.00  0.00    +0.000 C 
BRANCH   7   8
ATOM      8  C   UNL     1       2.346   1.753  -1.856  0.00  0.00    +0.000 C 
BRANCH   8   9
ATOM      9  N   UNL     1       0.885   1.787  -1.839  0.00  0.00    +0.000 NA
ATOM     10  H   UNL     1       0.565   2.662  -2.254  0.00  0.00    +0.000 HD
ATOM     11  H   UNL     1       0.551   1.795  -0.876  0.00  0.00    +0.000 HD
ENDBRANCH   8   9
ENDBRANCH   7   8
ENDBRANCH   1   7
BRANCH   4  12
ATOM     12  C   UNL     1       8.656   0.517  -1.353  0.00  0.00    +0.000 C 
BRANCH  12  13
ATOM     13  N   UNL     1       9.342  -0.191  -0.279  0.00  0.00    +0.000 N 
ATOM     14  C   UNL     1       9.784  -1.489  -0.372  0.00  0.00    +0.000 A 
ATOM     15  C   UNL     1      10.519  -1.772   0.756  0.00  0.00    +0.000 A 
ATOM     16  C   UNL     1      10.543  -0.603   1.562  0.00  0.00    +0.000 A 
ATOM     17  C   UNL     1      11.150  -0.286   2.795  0.00  0.00    +0.000 A 
ATOM     18  C   UNL     1      10.993   0.997   3.330  0.00  0.00    +0.000 A 
ATOM     19  C   UNL     1      10.234   1.950   2.658  0.00  0.00    +0.000 A 
ATOM     20 CL   UNL     1      10.063   3.525   3.337  0.00  0.00    +0.000 Cl
ATOM     21  C   UNL     1       9.613   1.660   1.440  0.00  0.00    +0.000 A 
ATOM     22  C   UNL     1       9.790   0.374   0.902  0.00  0.00    +0.000 A 
ENDBRANCH  12  13
ENDBRANCH   4  12
TORSDOF 5
