REMARK  Name = 
REMARK  8 active torsions:
REMARK  status: ('A' for Active; 'I' for Inactive)
REMARK    1  A    between atoms: C_1  and  O_2
REMARK    2  A    between atoms: O_2  and  C_3
REMARK    3  A    between atoms: C_10  and  C_11
REMARK    4  A    between atoms: N_13  and  C_14
REMARK    5  A    between atoms: C_14  and  C_15
REMARK    6  A    between atoms: C_18  and  N_19
REMARK    7  A    between atoms: N_19  and  C_20
REMARK    8  A    between atoms: C_20  and  C_21
REMARK                            x       y       z     vdW  Elec       q    Type
REMARK                         _______ _______ _______ _____ _____    ______ ____
ROOT
ATOM      1  C   UNL     1       2.763   2.881  -1.605  0.00  0.00    +0.000 C 
ENDROOT
BRANCH   1   2
ATOM      2  C   UNL     1       1.534   2.258  -2.218  0.00  0.00    +0.000 A 
ATOM      3  C   UNL     1       1.494   0.891  -2.520  0.00  0.00    +0.000 A 
ATOM      4  C   UNL     1       0.311   0.295  -2.979  0.00  0.00    +0.000 A 
ATOM      5  C   UNL     1      -0.856   1.047  -3.140  0.00  0.00    +0.000 A 
ATOM      6  C   UNL     1      -0.770   2.433  -2.969  0.00  0.00    +0.000 A 
ATOM      7  C   UNL     1       0.404   3.033  -2.500  0.00  0.00    +0.000 A 
BRANCH   5   8
ATOM      8  N   UNL     1      -2.095   0.506  -3.496  0.00  0.00    +0.000 N 
ATOM      9  H   UNL     1      -2.320   0.697  -4.470  0.00  0.00    +0.000 HD
BRANCH   8  10
ATOM     10  C   UNL     1      -2.398  -0.867  -3.106  0.00  0.00    +0.000 C 
BRANCH  10  11
ATOM     11  C   UNL     1      -3.879  -1.026  -2.877  0.00  0.00    +0.000 A 
ATOM     12  C   UNL     1      -4.568  -0.217  -1.965  0.00  0.00    +0.000 A 
ATOM     13  C   UNL     1      -5.919  -0.444  -1.714  0.00  0.00    +0.000 A 
ATOM     14  C   UNL     1      -6.543  -1.480  -2.386  0.00  0.00    +0.000 A 
ATOM     15  N   UNL     1      -5.917  -2.283  -3.273  0.00  0.00    +0.000 NA
ATOM     16  C   UNL     1      -4.603  -2.040  -3.494  0.00  0.00    +0.000 A 
ENDBRANCH  10  11
ENDBRANCH   8  10
ENDBRANCH   5   8
ENDBRANCH   1   2
BRANCH   1  19
ATOM     17  C   UNL     1       4.857   3.968  -2.299  0.00  0.00    +0.000 C 
ATOM     18  O   UNL     1       5.222   4.094  -1.135  0.00  0.00    +0.000 OA
ATOM     19  N   UNL     1       3.663   3.379  -2.613  0.00  0.00    +0.000 N 
ATOM     20  H   UNL     1       3.354   3.335  -3.572  0.00  0.00    +0.000 HD
BRANCH  17  28
ATOM     21  C   UNL     1       4.493   3.864  -5.720  0.00  0.00    +0.000 A 
ATOM     22  N   UNL     1       4.596   3.968  -7.059  0.00  0.00    +0.000 NA
ATOM     23  C   UNL     1       5.685   4.558  -7.559  0.00  0.00    +0.000 A 
ATOM     24  N   UNL     1       6.706   5.067  -6.876  0.00  0.00    +0.000 NA
ATOM     25  C   UNL     1       6.558   4.952  -5.545  0.00  0.00    +0.000 A 
ATOM     26  S   UNL     1       7.768   5.547  -4.512  0.00  0.00    +0.000 S 
ATOM     27  C   UNL     1       6.900   5.060  -3.135  0.00  0.00    +0.000 A 
ATOM     28  C   UNL     1       5.689   4.440  -3.421  0.00  0.00    +0.000 A 
ATOM     29  C   UNL     1       5.488   4.377  -4.868  0.00  0.00    +0.000 A 
BRANCH  21  31
ATOM     30  C   UNL     1       2.726   2.375  -6.104  0.00  0.00    +0.000 C 
ATOM     31  O   UNL     1       3.359   3.277  -5.201  0.00  0.00    +0.000 OA
ENDBRANCH  21  31
ENDBRANCH  17  28
ENDBRANCH   1  19
TORSDOF 7
