REMARK  Name = 
REMARK  8 active torsions:
REMARK  status: ('A' for Active; 'I' for Inactive)
REMARK    1  A    between atoms: C_1  and  C_2
REMARK    2  A    between atoms: C_2  and  N_3
REMARK    3  A    between atoms: C_2  and  C_25
REMARK    4  A    between atoms: N_3  and  C_4
REMARK    5  A    between atoms: C_4  and  C_5
REMARK    6  A    between atoms: C_8  and  C_9
REMARK    7  A    between atoms: C_9  and  N_10
REMARK    8  A    between atoms: C_11  and  C_13
REMARK                            x       y       z     vdW  Elec       q    Type
REMARK                         _______ _______ _______ _____ _____    ______ ____
ROOT
ATOM      1  C   UNL     1       3.050  -3.593   0.652  0.00  0.00    +0.000 A 
ATOM      2  C   UNL     1       4.336  -3.818   0.155  0.00  0.00    +0.000 A 
ATOM      3  C   UNL     1       4.783  -5.121  -0.053  0.00  0.00    +0.000 A 
ATOM      4  C   UNL     1       3.936  -6.178   0.263  0.00  0.00    +0.000 A 
ATOM      5  N   UNL     1       2.673  -5.989   0.719  0.00  0.00    +0.000 NA
ATOM      6  C   UNL     1       2.263  -4.714   0.897  0.00  0.00    +0.000 A 
ENDROOT
BRANCH   1   7
ATOM      7  C   UNL     1       2.527  -2.200   0.888  0.00  0.00    +0.000 C 
BRANCH   7   8
ATOM      8  N   UNL     1       2.160  -1.990   2.288  0.00  0.00    +0.000 NA
ATOM      9  H   UNL     1       1.432  -2.655   2.547  0.00  0.00    +0.000 HD
BRANCH   8  11
ATOM     10  C   UNL     1       2.671   0.458   2.303  0.00  0.00    +0.000 C 
ATOM     11  C   UNL     1       1.639  -0.643   2.573  0.00  0.00    +0.000 C 
BRANCH  11  12
ATOM     12  C   UNL     1       1.150  -0.534   4.017  0.00  0.00    +0.000 A 
ATOM     13  C   UNL     1       0.053   0.293   4.316  0.00  0.00    +0.000 A 
ATOM     14  C   UNL     1      -0.391   0.450   5.631  0.00  0.00    +0.000 A 
ATOM     15  C   UNL     1       0.248  -0.222   6.670  0.00  0.00    +0.000 A 
ATOM     16  C   UNL     1       1.334  -1.050   6.393  0.00  0.00    +0.000 A 
ATOM     17  C   UNL     1       1.788  -1.197   5.079  0.00  0.00    +0.000 A 
ENDBRANCH  11  12
ENDBRANCH   8  11
ENDBRANCH   7   8
ENDBRANCH   1   7
BRANCH   4  18
ATOM     18  C   UNL     1       4.398  -7.602   0.090  0.00  0.00    +0.000 C 
BRANCH  18  19
ATOM     19  N   UNL     1       4.059  -8.131  -1.208  0.00  0.00    +0.000 N 
ATOM     20  C   UNL     1       4.940  -8.144  -2.254  0.00  0.00    +0.000 C 
ATOM     21  O   UNL     1       6.082  -7.701  -2.158  0.00  0.00    +0.000 OA
ATOM     22  H   UNL     1       3.065  -8.245  -1.384  0.00  0.00    +0.000 HD
BRANCH  20  23
ATOM     23  C   UNL     1       4.467  -8.789  -3.484  0.00  0.00    +0.000 A 
ATOM     24  C   UNL     1       5.385  -9.335  -4.371  0.00  0.00    +0.000 A 
ATOM     25  S   UNL     1       4.665 -10.084  -5.723  0.00  0.00    +0.000 S 
ATOM     26  C   UNL     1       3.103  -9.666  -5.193  0.00  0.00    +0.000 A 
ATOM     27  N   UNL     1       2.006  -9.990  -5.928  0.00  0.00    +0.000 NA
ATOM     28  C   UNL     1       0.887  -9.590  -5.421  0.00  0.00    +0.000 A 
ATOM     29  N   UNL     1       0.766  -8.906  -4.241  0.00  0.00    +0.000 N 
ATOM     30  C   UNL     1       1.839  -8.600  -3.439  0.00  0.00    +0.000 A 
ATOM     31  O   UNL     1       1.690  -8.068  -2.346  0.00  0.00    +0.000 OA
ATOM     32  C   UNL     1       3.127  -8.993  -3.983  0.00  0.00    +0.000 A 
ATOM     33  H   UNL     1      -0.143  -8.641  -3.883  0.00  0.00    +0.000 HD
ENDBRANCH  20  23
ENDBRANCH  18  19
ENDBRANCH   4  18
TORSDOF 7
