REMARK  Name = 
REMARK  5 active torsions:
REMARK  status: ('A' for Active; 'I' for Inactive)
REMARK    1  A    between atoms: C_2  and  C_4
REMARK    2  A    between atoms: N_8  and  C_9
REMARK    3  A    between atoms: C_9  and  C_10
REMARK    4  A    between atoms: C_14  and  C_15
REMARK    5  A    between atoms: C_19  and  O_20
REMARK                            x       y       z     vdW  Elec       q    Type
REMARK                         _______ _______ _______ _____ _____    ______ ____
ROOT
ATOM      1  C   UNL     1       6.019  -0.954   5.258  0.00  0.00    +0.000 C 
ATOM      2  C   UNL     1       6.088   0.434   5.878  0.00  0.00    +0.000 C 
ATOM      3  C   UNL     1       6.889   0.128   4.654  0.00  0.00    +0.000 C 
ENDROOT
BRANCH   1   8
ATOM      4  C   UNL     1       4.219  -2.977   0.936  0.00  0.00    +0.000 A 
ATOM      5  C   UNL     1       3.488  -3.360   2.032  0.00  0.00    +0.000 A 
ATOM      6  N   UNL     1       3.676  -2.848   3.268  0.00  0.00    +0.000 NA
ATOM      7  C   UNL     1       4.657  -1.939   3.413  0.00  0.00    +0.000 A 
ATOM      8  N   UNL     1       4.721  -1.330   4.669  0.00  0.00    +0.000 N 
ATOM      9  N   UNL     1       5.478  -1.568   2.416  0.00  0.00    +0.000 NA
ATOM     10  C   UNL     1       5.240  -2.096   1.193  0.00  0.00    +0.000 A 
ATOM     11  H   UNL     1       4.121  -1.898   5.260  0.00  0.00    +0.000 HD
BRANCH   4  13
ATOM     12  N   UNL     1       2.646  -3.759  -0.734  0.00  0.00    +0.000 N 
ATOM     13  C   UNL     1       3.943  -3.430  -0.429  0.00  0.00    +0.000 C 
ATOM     14  O   UNL     1       4.820  -3.458  -1.282  0.00  0.00    +0.000 OA
ATOM     15  H   UNL     1       2.450  -3.929  -1.715  0.00  0.00    +0.000 HD
ATOM     16  H   UNL     1       1.862  -3.498  -0.153  0.00  0.00    +0.000 HD
ENDBRANCH   4  13
ENDBRANCH   1   8
BRANCH   1  17
ATOM     17  C   UNL     1       6.667  -2.121   5.993  0.00  0.00    +0.000 A 
ATOM     18  C   UNL     1       6.460  -2.329   7.365  0.00  0.00    +0.000 A 
ATOM     19  C   UNL     1       6.904  -3.490   7.995  0.00  0.00    +0.000 A 
ATOM     20  C   UNL     1       7.553  -4.480   7.255  0.00  0.00    +0.000 A 
ATOM     21  C   UNL     1       7.789  -4.322   5.880  0.00  0.00    +0.000 A 
ATOM     22  C   UNL     1       7.364  -3.120   5.283  0.00  0.00    +0.000 A 
BRANCH  21  23
ATOM     23  C   UNL     1       8.389  -5.401   5.072  0.00  0.00    +0.000 A 
ATOM     24  C   UNL     1       8.050  -6.746   5.274  0.00  0.00    +0.000 A 
ATOM     25  N   UNL     1       8.521  -7.795   4.550  0.00  0.00    +0.000 NA
ATOM     26  C   UNL     1       9.377  -7.493   3.550  0.00  0.00    +0.000 A 
ATOM     27  C   UNL     1       9.779  -6.201   3.258  0.00  0.00    +0.000 A 
ATOM     28  C   UNL     1       9.287  -5.151   4.024  0.00  0.00    +0.000 A 
BRANCH  27  29
ATOM     29  O   UNL     1      10.635  -5.908   2.240  0.00  0.00    +0.000 OA
ATOM     30  H   UNL     1      10.858  -6.727   1.766  0.00  0.00    +0.000 HD
ENDBRANCH  27  29
ENDBRANCH  21  23
ENDBRANCH   1  17
TORSDOF 5
