REMARK  Name = 
REMARK  6 active torsions:
REMARK  status: ('A' for Active; 'I' for Inactive)
REMARK    1  A    between atoms: C_2  and  C_19
REMARK    2  A    between atoms: N_3  and  C_4
REMARK    3  A    between atoms: C_4  and  C_5
REMARK    4  A    between atoms: C_8  and  C_9
REMARK    5  A    between atoms: C_9  and  N_10
REMARK    6  A    between atoms: N_10  and  C_11
REMARK                            x       y       z     vdW  Elec       q    Type
REMARK                         _______ _______ _______ _____ _____    ______ ____
ROOT
ATOM      1  C   UNL     1       2.320  -2.397   0.740  0.00  0.00    +0.000 C 
ENDROOT
BRANCH   1   2
ATOM      2  C   UNL     1       3.253  -3.497   1.175  0.00  0.00    +0.000 A 
ATOM      3  C   UNL     1       4.452  -3.189   1.832  0.00  0.00    +0.000 A 
ATOM      4  C   UNL     1       5.322  -4.204   2.245  0.00  0.00    +0.000 A 
ATOM      5  C   UNL     1       5.020  -5.550   1.993  0.00  0.00    +0.000 A 
ATOM      6  C   UNL     1       3.817  -5.858   1.342  0.00  0.00    +0.000 A 
ATOM      7  C   UNL     1       2.950  -4.843   0.925  0.00  0.00    +0.000 A 
BRANCH   5   8
ATOM      8  C   UNL     1       5.982  -6.646   2.398  0.00  0.00    +0.000 C 
BRANCH   8   9
ATOM      9  N   UNL     1       5.692  -7.116   3.744  0.00  0.00    +0.000 N 
ATOM     10  H   UNL     1       5.457  -6.362   4.385  0.00  0.00    +0.000 HD
BRANCH   9  11
ATOM     11  C   UNL     1       6.517  -8.072   4.348  0.00  0.00    +0.000 A 
ATOM     12  C   UNL     1       7.493  -8.810   3.666  0.00  0.00    +0.000 A 
ATOM     13  C   UNL     1       8.255  -9.786   4.318  0.00  0.00    +0.000 A 
ATOM     14  C   UNL     1       8.027 -10.072   5.660  0.00  0.00    +0.000 A 
ATOM     15  C   UNL     1       7.027  -9.391   6.344  0.00  0.00    +0.000 A 
ATOM     16  C   UNL     1       6.276  -8.408   5.689  0.00  0.00    +0.000 A 
ENDBRANCH   9  11
ENDBRANCH   8   9
ENDBRANCH   5   8
ENDBRANCH   1   2
BRANCH   1  19
ATOM     17  O   UNL     1       3.815  -0.077   0.162  0.00  0.00    +0.000 OA
ATOM     18  C   UNL     1       3.415  -0.775  -0.768  0.00  0.00    +0.000 C 
ATOM     19  N   UNL     1       2.654  -1.896  -0.570  0.00  0.00    +0.000 N 
ATOM     20  H   UNL     1       2.468  -2.519  -1.349  0.00  0.00    +0.000 HD
BRANCH  18  21
ATOM     21  C   UNL     1       3.696  -0.412  -2.165  0.00  0.00    +0.000 A 
ATOM     22  C   UNL     1       4.030   0.897  -2.483  0.00  0.00    +0.000 A 
ATOM     23  S   UNL     1       4.338   1.142  -4.143  0.00  0.00    +0.000 S 
ATOM     24  C   UNL     1       4.072  -0.501  -4.491  0.00  0.00    +0.000 A 
ATOM     25  N   UNL     1       4.220  -0.980  -5.756  0.00  0.00    +0.000 NA
ATOM     26  C   UNL     1       4.026  -2.252  -5.869  0.00  0.00    +0.000 A 
ATOM     27  N   UNL     1       3.680  -3.085  -4.838  0.00  0.00    +0.000 N 
ATOM     28  C   UNL     1       3.434  -2.631  -3.563  0.00  0.00    +0.000 A 
ATOM     29  O   UNL     1       2.977  -3.374  -2.703  0.00  0.00    +0.000 OA
ATOM     30  C   UNL     1       3.708  -1.219  -3.364  0.00  0.00    +0.000 A 
ATOM     31  H   UNL     1       3.502  -4.065  -5.002  0.00  0.00    +0.000 HD
ENDBRANCH  18  21
ENDBRANCH   1  19
TORSDOF 6
