REMARK  Name = 
REMARK  9 active torsions:
REMARK  status: ('A' for Active; 'I' for Inactive)
REMARK    1  A    between atoms: C_2  and  C_3
REMARK    2  A    between atoms: C_3  and  N_4
REMARK    3  A    between atoms: C_3  and  C_22
REMARK    4  A    between atoms: N_4  and  C_5
REMARK    5  A    between atoms: C_5  and  C_6
REMARK    6  A    between atoms: C_9  and  C_10
REMARK    7  A    between atoms: C_10  and  O_11
REMARK    8  A    between atoms: O_11  and  C_12
REMARK    9  A    between atoms: C_12  and  C_13
REMARK                            x       y       z     vdW  Elec       q    Type
REMARK                         _______ _______ _______ _____ _____    ______ ____
ROOT
ATOM      1  C   UNL     1       3.830  -2.006  -1.373  0.00  0.00    +0.000 C 
ENDROOT
BRANCH   1   2
ATOM      2  C   UNL     1       4.275  -2.713  -2.630  0.00  0.00    +0.000 A 
ATOM      3  C   UNL     1       5.025  -2.047  -3.608  0.00  0.00    +0.000 A 
ATOM      4  C   UNL     1       5.441  -2.716  -4.762  0.00  0.00    +0.000 A 
ATOM      5  C   UNL     1       5.123  -4.065  -4.958  0.00  0.00    +0.000 A 
ATOM      6  C   UNL     1       4.378  -4.734  -3.979  0.00  0.00    +0.000 A 
ATOM      7  C   UNL     1       3.956  -4.065  -2.827  0.00  0.00    +0.000 A 
BRANCH   5   8
ATOM      8  C   UNL     1       5.529  -4.774  -6.224  0.00  0.00    +0.000 C 
BRANCH   8   9
ATOM      9  O   UNL     1       6.945  -4.728  -6.376  0.00  0.00    +0.000 OA
BRANCH   9  10
ATOM     10  C   UNL     1       7.344  -5.385  -7.582  0.00  0.00    +0.000 C 
BRANCH  10  11
ATOM     11  C   UNL     1       8.844  -5.375  -7.752  0.00  0.00    +0.000 A 
ATOM     12  N   UNL     1       9.447  -6.600  -7.789  0.00  0.00    +0.000 NA
ATOM     13  C   UNL     1      10.786  -6.640  -7.964  0.00  0.00    +0.000 A 
ATOM     14  C   UNL     1      11.572  -5.513  -8.113  0.00  0.00    +0.000 A 
ATOM     15  C   UNL     1      10.950  -4.269  -8.086  0.00  0.00    +0.000 A 
ATOM     16  C   UNL     1       9.567  -4.190  -7.909  0.00  0.00    +0.000 A 
ATOM     17 CL   UNL     1       8.828  -2.632  -7.938  0.00  0.00    +0.000 Cl
ENDBRANCH  10  11
ENDBRANCH   9  10
ENDBRANCH   8   9
ENDBRANCH   5   8
ENDBRANCH   1   2
BRANCH   1  18
ATOM     18  N   UNL     1       2.875  -0.939  -1.670  0.00  0.00    +0.000 NA
ATOM     19  H   UNL     1       3.323  -0.248  -2.266  0.00  0.00    +0.000 HD
BRANCH  18  20
ATOM     20  C   UNL     1       2.396  -0.271  -0.445  0.00  0.00    +0.000 C 
BRANCH  20  21
ATOM     21  C   UNL     1       1.429   0.820  -0.911  0.00  0.00    +0.000 A 
ATOM     22  C   UNL     1       0.249   0.570  -1.598  0.00  0.00    +0.000 A 
ATOM     23  S   UNL     1      -0.559   1.985  -2.111  0.00  0.00    +0.000 S 
ATOM     24  C   UNL     1       0.633   2.983  -1.430  0.00  0.00    +0.000 A 
ATOM     25  N   UNL     1       0.590   4.337  -1.574  0.00  0.00    +0.000 NA
ATOM     26  C   UNL     1       1.562   4.967  -1.008  0.00  0.00    +0.000 A 
ATOM     27  N   UNL     1       2.560   4.372  -0.270  0.00  0.00    +0.000 N 
ATOM     28  C   UNL     1       2.604   3.011  -0.039  0.00  0.00    +0.000 A 
ATOM     29  O   UNL     1       3.423   2.508   0.720  0.00  0.00    +0.000 OA
ATOM     30  C   UNL     1       1.592   2.252  -0.754  0.00  0.00    +0.000 A 
ATOM     31  H   UNL     1       3.252   4.932   0.201  0.00  0.00    +0.000 HD
ENDBRANCH  20  21
BRANCH  20  33
ATOM     32  N   UNL     1       1.041  -2.014   1.246  0.00  0.00    +0.000 NA
ATOM     33  C   UNL     1       1.655  -1.223   0.479  0.00  0.00    +0.000 C 
ENDBRANCH  20  33
ENDBRANCH  18  20
ENDBRANCH   1  18
TORSDOF 9
