REMARK  Name = 
REMARK  7 active torsions:
REMARK  status: ('A' for Active; 'I' for Inactive)
REMARK    1  A    between atoms: C_1  and  C_2
REMARK    2  A    between atoms: C_2  and  N_3
REMARK    3  A    between atoms: C_2  and  C_16
REMARK    4  A    between atoms: C_4  and  C_6
REMARK    5  A    between atoms: C_19  and  C_20
REMARK    6  A    between atoms: C_20  and  N_21
REMARK    7  A    between atoms: C_22  and  C_24
REMARK                            x       y       z     vdW  Elec       q    Type
REMARK                         _______ _______ _______ _____ _____    ______ ____
ROOT
ATOM      1  C   UNL     1       1.714  -1.325  -0.182  0.00  0.00    +0.000 C 
ATOM      2  C   UNL     1       2.456  -0.008   0.069  0.00  0.00    +0.000 C 
ENDROOT
BRANCH   2   3
ATOM      3  C   UNL     1       2.845   0.217   1.523  0.00  0.00    +0.000 A 
ATOM      4  C   UNL     1       2.911   1.529   2.022  0.00  0.00    +0.000 A 
ATOM      5  C   UNL     1       3.294   1.779   3.346  0.00  0.00    +0.000 A 
ATOM      6  C   UNL     1       3.638   0.723   4.199  0.00  0.00    +0.000 A 
ATOM      7  C   UNL     1       3.572  -0.585   3.707  0.00  0.00    +0.000 A 
ATOM      8  C   UNL     1       3.196  -0.834   2.383  0.00  0.00    +0.000 A 
BRANCH   6   9
ATOM      9  C   UNL     1       4.085   0.984   5.611  0.00  0.00    +0.000 C 
BRANCH   9  10
ATOM     10  N   UNL     1       2.994   0.983   6.546  0.00  0.00    +0.000 N 
ATOM     11  C   UNL     1       3.214   1.192   7.898  0.00  0.00    +0.000 C 
ATOM     12  O   UNL     1       4.350   1.366   8.338  0.00  0.00    +0.000 OA
ATOM     13  H   UNL     1       2.034   0.859   6.236  0.00  0.00    +0.000 HD
BRANCH  11  14
ATOM     14  C   UNL     1       1.998   1.188   8.705  0.00  0.00    +0.000 A 
ATOM     15  N   UNL     1       0.791   0.980   8.204  0.00  0.00    +0.000 NA
ATOM     16  C   UNL     1      -0.143   1.047   9.222  0.00  0.00    +0.000 A 
ATOM     17  C   UNL     1       0.360   1.309  10.481  0.00  0.00    +0.000 A 
ATOM     18  S   UNL     1       2.063   1.471  10.398  0.00  0.00    +0.000 S 
ENDBRANCH  11  14
ENDBRANCH   9  10
ENDBRANCH   6   9
ENDBRANCH   2   3
BRANCH   2  19
ATOM     19  N   UNL     1       3.648   0.062  -0.756  0.00  0.00    +0.000 N 
ATOM     20  C   UNL     1       3.631   0.496  -2.056  0.00  0.00    +0.000 C 
ATOM     21  O   UNL     1       2.614   0.920  -2.598  0.00  0.00    +0.000 OA
ATOM     22  H   UNL     1       4.452  -0.452  -0.417  0.00  0.00    +0.000 HD
BRANCH  20  23
ATOM     23  C   UNL     1       4.925   0.496  -2.748  0.00  0.00    +0.000 A 
ATOM     24  C   UNL     1       5.158   1.390  -3.785  0.00  0.00    +0.000 A 
ATOM     25  S   UNL     1       6.738   1.297  -4.423  0.00  0.00    +0.000 S 
ATOM     26  C   UNL     1       7.146   0.019  -3.375  0.00  0.00    +0.000 A 
ATOM     27  N   UNL     1       8.380  -0.552  -3.412  0.00  0.00    +0.000 NA
ATOM     28  C   UNL     1       8.536  -1.537  -2.592  0.00  0.00    +0.000 A 
ATOM     29  N   UNL     1       7.572  -2.002  -1.736  0.00  0.00    +0.000 N 
ATOM     30  C   UNL     1       6.325  -1.431  -1.635  0.00  0.00    +0.000 A 
ATOM     31  O   UNL     1       5.504  -1.832  -0.816  0.00  0.00    +0.000 OA
ATOM     32  C   UNL     1       6.095  -0.325  -2.544  0.00  0.00    +0.000 A 
ATOM     33  H   UNL     1       7.761  -2.773  -1.114  0.00  0.00    +0.000 HD
ENDBRANCH  20  23
ENDBRANCH   2  19
TORSDOF 6
