REMARK  Name = 
REMARK  12 active torsions:
REMARK  status: ('A' for Active; 'I' for Inactive)
REMARK    1  A    between atoms: C_1  and  C_2
REMARK    2  A    between atoms: C_2  and  C_3
REMARK    3  A    between atoms: C_2  and  C_4
REMARK    4  A    between atoms: C_2  and  O_5
REMARK    5  A    between atoms: O_5  and  C_6
REMARK    6  A    between atoms: C_6  and  C_7
REMARK    7  A    between atoms: C_7  and  C_8
REMARK    8  A    between atoms: C_7  and  O_9
REMARK    9  A    between atoms: C_7  and  C_10
REMARK   10  A    between atoms: N_16  and  C_17
REMARK   11  A    between atoms: C_17  and  C_18
REMARK   12  A    between atoms: C_21  and  C_22
REMARK                            x       y       z     vdW  Elec       q    Type
REMARK                         _______ _______ _______ _____ _____    ______ ____
ROOT
ATOM      1  C   UNL     1       6.674  -2.556  -1.026  0.00  0.00    +0.000 A 
ATOM      2  C   UNL     1       7.419  -3.218  -0.039  0.00  0.00    +0.000 A 
ATOM      3  N   UNL     1       8.773  -3.294   0.002  0.00  0.00    +0.000 NA
ATOM      4  C   UNL     1       9.364  -2.633  -1.019  0.00  0.00    +0.000 A 
ATOM      5  C   UNL     1      10.734  -2.454  -1.314  0.00  0.00    +0.000 A 
ATOM      6  C   UNL     1      10.811  -1.672  -2.447  0.00  0.00    +0.000 A 
ATOM      7  N   UNL     1       9.527  -1.374  -2.847  0.00  0.00    +0.000 N 
ATOM      8  C   UNL     1       8.627  -1.976  -2.002  0.00  0.00    +0.000 A 
ATOM      9  N   UNL     1       7.277  -1.929  -2.078  0.00  0.00    +0.000 NA
ENDROOT
BRANCH   1  10
ATOM     10  C   UNL     1       5.139  -2.618  -1.007  0.00  0.00    +0.000 C 
ATOM     11  C   UNL     1       4.685  -3.929  -1.671  0.00  0.00    +0.000 C 
BRANCH  10  12
ATOM     12  O   UNL     1       4.570  -2.597   0.318  0.00  0.00    +0.000 OA
ATOM     13  H   UNL     1       4.976  -3.280   0.870  0.00  0.00    +0.000 HD
ENDBRANCH  10  12
BRANCH  10  14
ATOM     14  C   UNL     1       4.494  -1.439  -1.783  0.00  0.00    +0.000 C 
BRANCH  14  15
ATOM     15  O   UNL     1       4.779  -0.171  -1.172  0.00  0.00    +0.000 OA
BRANCH  15  17
ATOM     16  C   UNL     1       2.631   0.890  -1.711  0.00  0.00    +0.000 C 
ATOM     17  C   UNL     1       4.161   0.977  -1.774  0.00  0.00    +0.000 C 
ATOM     18  C   UNL     1       4.646   1.179  -3.215  0.00  0.00    +0.000 C 
ATOM     19  C   UNL     1       4.608   2.184  -0.936  0.00  0.00    +0.000 C 
ENDBRANCH  15  17
ENDBRANCH  14  15
ENDBRANCH  10  14
ENDBRANCH   1  10
BRANCH   7  20
ATOM     20  C   UNL     1       9.182  -0.461  -3.928  0.00  0.00    +0.000 C 
BRANCH  20  21
ATOM     21  C   UNL     1       9.125  -1.165  -5.255  0.00  0.00    +0.000 A 
ATOM     22  C   UNL     1      10.260  -1.307  -6.061  0.00  0.00    +0.000 A 
ATOM     23  C   UNL     1      10.172  -2.006  -7.262  0.00  0.00    +0.000 A 
ATOM     24  C   UNL     1       8.943  -2.541  -7.620  0.00  0.00    +0.000 A 
ATOM     25  N   UNL     1       7.809  -2.406  -6.875  0.00  0.00    +0.000 NA
ATOM     26  C   UNL     1       7.935  -1.728  -5.711  0.00  0.00    +0.000 A 
BRANCH  24  27
ATOM     27  C   UNL     1       8.828  -3.346  -8.879  0.00  0.00    +0.000 C 
ATOM     28  N   UNL     1       7.576  -3.820  -9.164  0.00  0.00    +0.000 N 
ATOM     29  O   UNL     1       9.786  -3.580  -9.605  0.00  0.00    +0.000 OA
ATOM     30  H   UNL     1       6.816  -3.638  -8.517  0.00  0.00    +0.000 HD
ATOM     31  H   UNL     1       7.438  -4.412  -9.968  0.00  0.00    +0.000 HD
ENDBRANCH  24  27
ENDBRANCH  20  21
ENDBRANCH   7  20
TORSDOF 8
