REMARK  Name = 
REMARK  9 active torsions:
REMARK  status: ('A' for Active; 'I' for Inactive)
REMARK    1  A    between atoms: C_2  and  C_23
REMARK    2  A    between atoms: N_3  and  CA_4
REMARK    3  A    between atoms: CA_4  and  C_5
REMARK    4  A    between atoms: CA_4  and  C_7
REMARK    5  A    between atoms: C_5  and  O_6
REMARK    6  A    between atoms: C_10  and  C_11
REMARK    7  A    between atoms: C_11  and  N_12
REMARK    8  A    between atoms: N_12  and  C_13
REMARK    9  A    between atoms: C_13  and  C_14
REMARK                            x       y       z     vdW  Elec       q    Type
REMARK                         _______ _______ _______ _____ _____    ______ ____
ROOT
ATOM      1  CA  UNL     1       2.242   2.323   0.935  0.00  0.00    +0.000 C 
ENDROOT
BRANCH   1   2
ATOM      2  C   UNL     1       3.232   3.416   1.323  0.00  0.00    +0.000 A 
ATOM      3  C   UNL     1       2.948   4.748   0.983  0.00  0.00    +0.000 A 
ATOM      4  C   UNL     1       3.790   5.788   1.388  0.00  0.00    +0.000 A 
ATOM      5  C   UNL     1       4.935   5.531   2.147  0.00  0.00    +0.000 A 
ATOM      6  C   UNL     1       5.226   4.206   2.487  0.00  0.00    +0.000 A 
ATOM      7  C   UNL     1       4.380   3.164   2.090  0.00  0.00    +0.000 A 
BRANCH   5   8
ATOM      8  C   UNL     1       5.829   6.662   2.603  0.00  0.00    +0.000 C 
BRANCH   8   9
ATOM      9  N   UNL     1       5.096   7.596   3.453  0.00  0.00    +0.000 NA
ATOM     10  H   UNL     1       4.721   7.090   4.255  0.00  0.00    +0.000 HD
BRANCH   9  11
ATOM     11  C   UNL     1       5.950   8.683   3.919  0.00  0.00    +0.000 C 
BRANCH  11  12
ATOM     12  C   UNL     1       5.188   9.606   4.843  0.00  0.00    +0.000 A 
ATOM     13  C   UNL     1       4.055  10.296   4.383  0.00  0.00    +0.000 A 
ATOM     14  C   UNL     1       3.341  11.142   5.231  0.00  0.00    +0.000 A 
ATOM     15  C   UNL     1       3.752  11.309   6.556  0.00  0.00    +0.000 A 
ATOM     16  C   UNL     1       4.878  10.634   7.017  0.00  0.00    +0.000 A 
ATOM     17 CL   UNL     1       5.389  10.841   8.648  0.00  0.00    +0.000 Cl
ATOM     18  C   UNL     1       5.598   9.788   6.168  0.00  0.00    +0.000 A 
ENDBRANCH  11  12
ENDBRANCH   9  11
ENDBRANCH   8   9
ENDBRANCH   5   8
ENDBRANCH   1   2
BRANCH   1  21
ATOM     19  O   UNL     1      -0.290   3.634   0.976  0.00  0.00    +0.000 OA
ATOM     20  C   UNL     1       0.052   2.954   1.940  0.00  0.00    +0.000 C 
ATOM     21  N   UNL     1       1.216   2.233   1.961  0.00  0.00    +0.000 N 
ATOM     22  H   UNL     1       1.528   1.843   2.842  0.00  0.00    +0.000 HD
BRANCH  20  23
ATOM     23  C   UNL     1      -0.808   2.810   3.123  0.00  0.00    +0.000 A 
ATOM     24  C   UNL     1      -2.172   3.045   3.026  0.00  0.00    +0.000 A 
ATOM     25  S   UNL     1      -3.018   2.762   4.481  0.00  0.00    +0.000 S 
ATOM     26  C   UNL     1      -1.584   2.359   5.303  0.00  0.00    +0.000 A 
ATOM     27  N   UNL     1      -1.603   2.003   6.617  0.00  0.00    +0.000 NA
ATOM     28  C   UNL     1      -0.441   1.748   7.118  0.00  0.00    +0.000 A 
ATOM     29  N   UNL     1       0.740   1.826   6.429  0.00  0.00    +0.000 N 
ATOM     30  C   UNL     1       0.807   2.146   5.096  0.00  0.00    +0.000 A 
ATOM     31  O   UNL     1       1.878   2.141   4.498  0.00  0.00    +0.000 OA
ATOM     32  C   UNL     1      -0.474   2.442   4.481  0.00  0.00    +0.000 A 
ATOM     33  H   UNL     1       1.618   1.604   6.875  0.00  0.00    +0.000 HD
ENDBRANCH  20  23
ENDBRANCH   1  21
BRANCH   1  34
ATOM     34  C   UNL     1       2.898   0.934   0.721  0.00  0.00    +0.000 C 
BRANCH  34  35
ATOM     35  O   UNL     1       1.951  -0.072   0.346  0.00  0.00    +0.000 OA
ATOM     36  H   UNL     1       1.623   0.146  -0.543  0.00  0.00    +0.000 HD
ENDBRANCH  34  35
ENDBRANCH   1  34
TORSDOF 9
