REMARK  Name = 
REMARK  6 active torsions:
REMARK  status: ('A' for Active; 'I' for Inactive)
REMARK    1  A    between atoms: C_1  and  C_2
REMARK    2  A    between atoms: C_4  and  C_5
REMARK    3  A    between atoms: C_10  and  N_11
REMARK    4  A    between atoms: N_11  and  C_12
REMARK    5  A    between atoms: C_12  and  C_13
REMARK    6  A    between atoms: C_12  and  C_14
REMARK                            x       y       z     vdW  Elec       q    Type
REMARK                         _______ _______ _______ _____ _____    ______ ____
ROOT
ATOM      1  C   UNL     1      -1.531   1.374   1.781  0.00  0.00    +0.000 C 
ATOM      2  C   UNL     1      -0.763   0.553   0.787  0.00  0.00    +0.000 A 
ATOM      3  N   UNL     1      -1.194  -0.731   0.628  0.00  0.00    +0.000 NA
ATOM      4  C   UNL     1      -0.469  -1.484  -0.240  0.00  0.00    +0.000 A 
ATOM      5  C   UNL     1       0.624  -0.983  -0.918  0.00  0.00    +0.000 A 
ATOM      6  N   UNL     1       1.062   0.291  -0.744  0.00  0.00    +0.000 NA
ATOM      7  C   UNL     1       0.368   1.071   0.117  0.00  0.00    +0.000 A 
ENDROOT
BRANCH   4   8
ATOM      8  C   UNL     1      -0.880  -2.902  -0.421  0.00  0.00    +0.000 C 
ATOM      9  N   UNL     1      -1.916  -3.317   0.373  0.00  0.00    +0.000 N 
ATOM     10  O   UNL     1      -0.327  -3.652  -1.214  0.00  0.00    +0.000 OA
ATOM     11  H   UNL     1      -2.331  -2.670   1.035  0.00  0.00    +0.000 HD
ATOM     12  H   UNL     1      -2.232  -4.274   0.328  0.00  0.00    +0.000 HD
ENDBRANCH   4   8
BRANCH   7  13
ATOM     13  N   UNL     1       0.775   2.402   0.318  0.00  0.00    +0.000 N 
ATOM     14  H   UNL     1       0.081   3.023  -0.089  0.00  0.00    +0.000 HD
BRANCH  13  15
ATOM     15  C   UNL     1       2.142   2.727  -0.109  0.00  0.00    +0.000 C 
ATOM     16  C   UNL     1       2.232   3.047  -1.603  0.00  0.00    +0.000 C 
BRANCH  15  17
ATOM     17  C   UNL     1       2.682   3.928   0.671  0.00  0.00    +0.000 A 
ATOM     18  C   UNL     1       1.860   4.971   1.136  0.00  0.00    +0.000 A 
ATOM     19  C   UNL     1       2.409   6.094   1.769  0.00  0.00    +0.000 A 
ATOM     20  C   UNL     1       3.787   6.193   1.941  0.00  0.00    +0.000 A 
ATOM     21  C   UNL     1       4.603   5.165   1.489  0.00  0.00    +0.000 A 
ATOM     22  F   UNL     1       5.931   5.263   1.641  0.00  0.00    +0.000 F 
ATOM     23  C   UNL     1       4.069   4.044   0.864  0.00  0.00    +0.000 A 
ENDBRANCH  15  17
ENDBRANCH  13  15
ENDBRANCH   7  13
TORSDOF 4
