REMARK  Name = 
REMARK  3 active torsions:
REMARK  status: ('A' for Active; 'I' for Inactive)
REMARK    1  A    between atoms: C_2  and  C_4
REMARK    2  A    between atoms: N_8  and  C_9
REMARK    3  A    between atoms: C_9  and  C_10
REMARK                            x       y       z     vdW  Elec       q    Type
REMARK                         _______ _______ _______ _____ _____    ______ ____
ROOT
ATOM      1  C   UNL     1       8.338   2.390  -1.277  0.00  0.00    +0.000 A 
ATOM      2  C   UNL     1       8.494   3.109  -2.455  0.00  0.00    +0.000 A 
ATOM      3  C   UNL     1       7.455   3.116  -3.386  0.00  0.00    +0.000 A 
ATOM      4  C   UNL     1       6.277   2.421  -3.131  0.00  0.00    +0.000 A 
ATOM      5  N   UNL     1       5.199   2.397  -4.022  0.00  0.00    +0.000 N 
ATOM      6  N   UNL     1       6.125   1.703  -1.998  0.00  0.00    +0.000 NA
ATOM      7  C   UNL     1       7.155   1.688  -1.107  0.00  0.00    +0.000 A 
ATOM      8  H   UNL     1       4.423   1.920  -3.572  0.00  0.00    +0.000 HD
ENDROOT
BRANCH   1  10
ATOM      9  N   UNL     1      10.230   3.407  -0.149  0.00  0.00    +0.000 N 
ATOM     10  C   UNL     1       9.382   2.332  -0.237  0.00  0.00    +0.000 C 
ATOM     11  O   UNL     1       9.474   1.386   0.528  0.00  0.00    +0.000 OA
ATOM     12  H   UNL     1      10.888   3.399   0.621  0.00  0.00    +0.000 HD
ATOM     13  H   UNL     1      10.039   4.293  -0.592  0.00  0.00    +0.000 HD
ENDBRANCH   1  10
BRANCH   5  14
ATOM     14  C   UNL     1       4.943   3.420  -5.047  0.00  0.00    +0.000 C 
ATOM     15  C   UNL     1       4.754   4.862  -4.608  0.00  0.00    +0.000 C 
ATOM     16  C   UNL     1       3.573   4.090  -5.089  0.00  0.00    +0.000 C 
BRANCH  14  17
ATOM     17  C   UNL     1       5.559   3.135  -6.414  0.00  0.00    +0.000 A 
ATOM     18  C   UNL     1       4.987   2.217  -7.305  0.00  0.00    +0.000 A 
ATOM     19  C   UNL     1       5.534   2.062  -8.571  0.00  0.00    +0.000 A 
ATOM     20  N   UNL     1       6.622   2.731  -9.008  0.00  0.00    +0.000 NA
ATOM     21  C   UNL     1       7.183   3.590  -8.136  0.00  0.00    +0.000 A 
ATOM     22  C   UNL     1       6.694   3.823  -6.865  0.00  0.00    +0.000 A 
ENDBRANCH  14  17
ENDBRANCH   5  14
TORSDOF 3
