REMARK  Name = 
REMARK  8 active torsions:
REMARK  status: ('A' for Active; 'I' for Inactive)
REMARK    1  A    between atoms: C_1  and  O_2
REMARK    2  A    between atoms: O_2  and  C_3
REMARK    3  A    between atoms: C_8  and  C_9
REMARK    4  A    between atoms: N_11  and  C_12
REMARK    5  A    between atoms: C_12  and  C_13
REMARK    6  A    between atoms: C_16  and  C_17
REMARK    7  A    between atoms: C_17  and  N_18
REMARK    8  A    between atoms: C_19  and  C_21
REMARK                            x       y       z     vdW  Elec       q    Type
REMARK                         _______ _______ _______ _____ _____    ______ ____
ROOT
ATOM      1  C   UNL     1       3.242  -0.111   3.979  0.00  0.00    +0.000 A 
ATOM      2  C   UNL     1       2.342  -0.609   4.931  0.00  0.00    +0.000 A 
ATOM      3  C   UNL     1       1.630   0.260   5.769  0.00  0.00    +0.000 A 
ATOM      4  C   UNL     1       1.787   1.648   5.658  0.00  0.00    +0.000 A 
ATOM      5  C   UNL     1       2.688   2.146   4.707  0.00  0.00    +0.000 A 
ATOM      6  C   UNL     1       3.398   1.277   3.870  0.00  0.00    +0.000 A 
ENDROOT
BRANCH   1   7
ATOM      7  C   UNL     1       4.051  -1.046   3.116  0.00  0.00    +0.000 C 
BRANCH   7  10
ATOM      8  C   UNL     1       3.993  -2.276   0.985  0.00  0.00    +0.000 C 
ATOM      9  O   UNL     1       5.106  -2.748   1.190  0.00  0.00    +0.000 OA
ATOM     10  N   UNL     1       3.391  -1.410   1.887  0.00  0.00    +0.000 N 
ATOM     11  H   UNL     1       2.472  -1.049   1.650  0.00  0.00    +0.000 HD
BRANCH   8  17
ATOM     12  C   UNL     1       3.629  -3.417  -1.279  0.00  0.00    +0.000 A 
ATOM     13  C   UNL     1       2.769  -3.624  -2.362  0.00  0.00    +0.000 A 
ATOM     14  C   UNL     1       1.532  -2.989  -2.410  0.00  0.00    +0.000 A 
ATOM     15  C   UNL     1       1.175  -2.162  -1.359  0.00  0.00    +0.000 A 
ATOM     16  N   UNL     1       1.956  -1.937  -0.282  0.00  0.00    +0.000 NA
ATOM     17  C   UNL     1       3.173  -2.573  -0.251  0.00  0.00    +0.000 A 
BRANCH  12  19
ATOM     18  C   UNL     1       5.475  -4.430  -2.381  0.00  0.00    +0.000 C 
ATOM     19  O   UNL     1       4.845  -4.029  -1.168  0.00  0.00    +0.000 OA
ENDBRANCH  12  19
ENDBRANCH   8  17
ENDBRANCH   7  10
ENDBRANCH   1   7
BRANCH   4  20
ATOM     20  C   UNL     1       1.037   2.592   6.565  0.00  0.00    +0.000 C 
BRANCH  20  21
ATOM     21  N   UNL     1       1.787   2.884   7.763  0.00  0.00    +0.000 N 
ATOM     22  C   UNL     1       1.263   3.666   8.761  0.00  0.00    +0.000 C 
ATOM     23  O   UNL     1       0.117   4.105   8.710  0.00  0.00    +0.000 OA
ATOM     24  H   UNL     1       2.790   2.733   7.722  0.00  0.00    +0.000 HD
BRANCH  22  25
ATOM     25  C   UNL     1       2.124   3.911   9.927  0.00  0.00    +0.000 A 
ATOM     26  C   UNL     1       1.552   4.248  11.147  0.00  0.00    +0.000 A 
ATOM     27  S   UNL     1       2.688   4.456  12.402  0.00  0.00    +0.000 S 
ATOM     28  C   UNL     1       3.990   4.154  11.347  0.00  0.00    +0.000 A 
ATOM     29  N   UNL     1       5.275   4.207  11.790  0.00  0.00    +0.000 NA
ATOM     30  C   UNL     1       6.162   3.984  10.878  0.00  0.00    +0.000 A 
ATOM     31  N   UNL     1       5.880   3.708   9.566  0.00  0.00    +0.000 N 
ATOM     32  C   UNL     1       4.597   3.621   9.079  0.00  0.00    +0.000 A 
ATOM     33  O   UNL     1       4.380   3.339   7.905  0.00  0.00    +0.000 OA
ATOM     34  C   UNL     1       3.561   3.875  10.062  0.00  0.00    +0.000 A 
ATOM     35  H   UNL     1       6.620   3.535   8.902  0.00  0.00    +0.000 HD
ENDBRANCH  22  25
ENDBRANCH  20  21
ENDBRANCH   4  20
TORSDOF 7
