REMARK  Name = 
REMARK  6 active torsions:
REMARK  status: ('A' for Active; 'I' for Inactive)
REMARK    1  A    between atoms: C_1  and  C_2
REMARK    2  A    between atoms: C_2  and  C_3
REMARK    3  A    between atoms: C_2  and  N_4
REMARK    4  A    between atoms: C_2  and  C_14
REMARK    5  A    between atoms: N_4  and  C_5
REMARK    6  A    between atoms: C_9  and  C_10
REMARK                            x       y       z     vdW  Elec       q    Type
REMARK                         _______ _______ _______ _____ _____    ______ ____
ROOT
ATOM      1  N   UNL     1       2.911  -0.507   1.375  0.00  0.00    +0.000 N 
ATOM      2  H   UNL     1       3.904  -0.735   1.379  0.00  0.00    +0.000 HD
ENDROOT
BRANCH   1   3
ATOM      3  C   UNL     1       2.524  -0.002   2.617  0.00  0.00    +0.000 A 
ATOM      4  C   UNL     1       1.319   0.664   2.857  0.00  0.00    +0.000 A 
ATOM      5  C   UNL     1       0.945   1.103   4.131  0.00  0.00    +0.000 A 
ATOM      6  C   UNL     1       1.762   0.848   5.218  0.00  0.00    +0.000 A 
ATOM      7  C   UNL     1       2.941   0.127   5.040  0.00  0.00    +0.000 A 
ATOM      8  C   UNL     1       3.318  -0.290   3.748  0.00  0.00    +0.000 A 
BRANCH   7   9
ATOM      9  C   UNL     1       3.737  -0.175   6.259  0.00  0.00    +0.000 C 
ATOM     10  N   UNL     1       4.529  -1.289   6.240  0.00  0.00    +0.000 N 
ATOM     11  O   UNL     1       3.648   0.508   7.271  0.00  0.00    +0.000 OA
ATOM     12  H   UNL     1       4.445  -2.002   5.531  0.00  0.00    +0.000 HD
ATOM     13  H   UNL     1       4.914  -1.562   7.136  0.00  0.00    +0.000 HD
ENDBRANCH   7   9
ENDBRANCH   1   3
BRANCH   1  15
ATOM     14  C   UNL     1       1.008  -0.000  -0.236  0.00  0.00    +0.000 C 
ATOM     15  C   UNL     1       2.525   0.005   0.030  0.00  0.00    +0.000 C 
ATOM     16  C   UNL     1       3.084   1.435  -0.116  0.00  0.00    +0.000 C 
BRANCH  15  17
ATOM     17  C   UNL     1       3.096  -0.962  -1.027  0.00  0.00    +0.000 A 
ATOM     18  C   UNL     1       3.503  -0.547  -2.305  0.00  0.00    +0.000 A 
ATOM     19  C   UNL     1       3.851  -1.486  -3.275  0.00  0.00    +0.000 A 
ATOM     20  C   UNL     1       3.795  -2.827  -2.943  0.00  0.00    +0.000 A 
ATOM     21  N   UNL     1       3.428  -3.278  -1.728  0.00  0.00    +0.000 NA
ATOM     22  C   UNL     1       3.077  -2.343  -0.811  0.00  0.00    +0.000 A 
ENDBRANCH  15  17
ENDBRANCH   1  15
TORSDOF 4
