REMARK  Name = 
REMARK  14 active torsions:
REMARK  status: ('A' for Active; 'I' for Inactive)
REMARK    1  A    between atoms: C_1  and  C_2
REMARK    2  A    between atoms: C_2  and  C_3
REMARK    3  A    between atoms: C_2  and  N_4
REMARK    4  A    between atoms: C_2  and  C_5
REMARK    5  A    between atoms: C_5  and  C_6
REMARK    6  A    between atoms: C_6  and  N_7
REMARK    7  A    between atoms: C_6  and  C_8
REMARK    8  A    between atoms: C_11  and  C_12
REMARK    9  A    between atoms: C_12  and  N_13
REMARK   10  A    between atoms: C_15  and  C_16
REMARK   11  A    between atoms: C_16  and  C_17
REMARK   12  A    between atoms: C_16  and  C_18
REMARK   13  A    between atoms: C_16  and  C_19
REMARK   14  A    between atoms: C_22  and  C_23
REMARK                            x       y       z     vdW  Elec       q    Type
REMARK                         _______ _______ _______ _____ _____    ______ ____
ROOT
ATOM      1  C   UNL     1       5.513  -5.793   4.154  0.00  0.00    +0.000 C 
ENDROOT
BRANCH   1   2
ATOM      2  N   UNL     1       6.900  -6.003   4.536  0.00  0.00    +0.000 N 
ATOM      3  C   UNL     1       7.421  -5.489   5.702  0.00  0.00    +0.000 A 
ATOM      4  C   UNL     1       8.725  -5.124   5.429  0.00  0.00    +0.000 A 
ATOM      5  C   UNL     1       9.067  -5.791   4.212  0.00  0.00    +0.000 A 
ATOM      6  C   UNL     1      10.231  -5.877   3.441  0.00  0.00    +0.000 A 
ATOM      7  C   UNL     1      10.231  -6.644   2.283  0.00  0.00    +0.000 A 
ATOM      8  C   UNL     1       9.035  -7.258   1.925  0.00  0.00    +0.000 A 
ATOM      9  N   UNL     1       7.834  -7.137   2.578  0.00  0.00    +0.000 NA
ATOM     10  C   UNL     1       7.923  -6.406   3.712  0.00  0.00    +0.000 A 
BRANCH   7  11
ATOM     11  C   UNL     1      11.529  -6.722   1.569  0.00  0.00    +0.000 C 
ATOM     12  N   UNL     1      11.650  -7.456   0.428  0.00  0.00    +0.000 N 
ATOM     13  O   UNL     1      12.520  -6.128   1.985  0.00  0.00    +0.000 OA
ATOM     14  H   UNL     1      10.907  -7.982  -0.011  0.00  0.00    +0.000 HD
ATOM     15  H   UNL     1      12.558  -7.461  -0.001  0.00  0.00    +0.000 HD
ENDBRANCH   7  11
BRANCH   4  16
ATOM     16  C   UNL     1       9.596  -4.150   6.200  0.00  0.00    +0.000 C 
ATOM     17  C   UNL     1       8.894  -3.665   7.484  0.00  0.00    +0.000 C 
ATOM     18  C   UNL     1      10.939  -4.786   6.599  0.00  0.00    +0.000 C 
ATOM     19  C   UNL     1       9.853  -2.916   5.309  0.00  0.00    +0.000 C 
ENDBRANCH   4  16
ENDBRANCH   1   2
BRANCH   1  23
ATOM     20  C   UNL     1       5.068  -2.381   1.611  0.00  0.00    +0.000 A 
ATOM     21  C   UNL     1       5.198  -2.159   2.982  0.00  0.00    +0.000 A 
ATOM     22  C   UNL     1       5.367  -3.254   3.835  0.00  0.00    +0.000 A 
ATOM     23  C   UNL     1       5.386  -4.550   3.304  0.00  0.00    +0.000 A 
ATOM     24  C   UNL     1       5.314  -4.667   1.922  0.00  0.00    +0.000 A 
ATOM     25  N   UNL     1       5.154  -3.628   1.075  0.00  0.00    +0.000 NA
BRANCH  20  26
ATOM     26  C   UNL     1       4.724  -1.231   0.662  0.00  0.00    +0.000 C 
BRANCH  26  27
ATOM     27  N   UNL     1       3.360  -1.428   0.151  0.00  0.00    +0.000 NA
ATOM     28  H   UNL     1       3.429  -2.080  -0.632  0.00  0.00    +0.000 HD
ATOM     29  H   UNL     1       2.999  -0.563  -0.229  0.00  0.00    +0.000 HD
ENDBRANCH  26  27
BRANCH  26  30
ATOM     30  C   UNL     1       5.797  -1.130  -0.453  0.00  0.00    +0.000 C 
BRANCH  30  32
ATOM     31  C   UNL     1       6.909  -0.066  -2.437  0.00  0.00    +0.000 C 
ATOM     32  C   UNL     1       5.696   0.023  -1.490  0.00  0.00    +0.000 C 
ATOM     33  C   UNL     1       5.697   1.398  -0.808  0.00  0.00    +0.000 C 
BRANCH  32  34
ATOM     34  N   UNL     1       4.501  -0.097  -2.338  0.00  0.00    +0.000 NA
ATOM     35  H   UNL     1       4.566   0.553  -3.122  0.00  0.00    +0.000 HD
ATOM     36  H   UNL     1       3.670   0.188  -1.830  0.00  0.00    +0.000 HD
ENDBRANCH  32  34
ENDBRANCH  30  32
ENDBRANCH  26  30
ENDBRANCH  20  26
ENDBRANCH   1  23
TORSDOF 9
