REMARK  Name = 
REMARK  5 active torsions:
REMARK  status: ('A' for Active; 'I' for Inactive)
REMARK    1  A    between atoms: C_2  and  C_4
REMARK    2  A    between atoms: C_7  and  N_8
REMARK    3  A    between atoms: N_8  and  C_9
REMARK    4  A    between atoms: C_9  and  C_10
REMARK    5  A    between atoms: C_15  and  C_16
REMARK                            x       y       z     vdW  Elec       q    Type
REMARK                         _______ _______ _______ _____ _____    ______ ____
ROOT
ATOM      1  C   UNL     1       5.224   4.033  -4.209  0.00  0.00    +0.000 C 
ENDROOT
BRANCH   1   2
ATOM      2  C   UNL     1       6.237   4.613  -5.176  0.00  0.00    +0.000 A 
ATOM      3  C   UNL     1       6.304   5.992  -5.396  0.00  0.00    +0.000 A 
ATOM      4  C   UNL     1       7.234   6.501  -6.292  0.00  0.00    +0.000 A 
ATOM      5  F   UNL     1       7.293   7.824  -6.496  0.00  0.00    +0.000 F 
ATOM      6  C   UNL     1       8.107   5.666  -6.984  0.00  0.00    +0.000 A 
ATOM      7  C   UNL     1       8.082   4.275  -6.789  0.00  0.00    +0.000 A 
ATOM      8  C   UNL     1       7.128   3.772  -5.878  0.00  0.00    +0.000 A 
BRANCH   7   9
ATOM      9  C   UNL     1       9.020   3.381  -7.507  0.00  0.00    +0.000 A 
ATOM     10  C   UNL     1      10.334   3.768  -7.815  0.00  0.00    +0.000 A 
ATOM     11  C   UNL     1      11.193   2.905  -8.496  0.00  0.00    +0.000 A 
ATOM     12  C   UNL     1      10.721   1.657  -8.856  0.00  0.00    +0.000 A 
ATOM     13  N   UNL     1       9.472   1.231  -8.587  0.00  0.00    +0.000 NA
ATOM     14  C   UNL     1       8.660   2.099  -7.929  0.00  0.00    +0.000 A 
ENDBRANCH   7   9
ENDBRANCH   1   2
BRANCH   1  15
ATOM     15  N   UNL     1       5.932   3.298  -3.168  0.00  0.00    +0.000 N 
ATOM     16  H   UNL     1       6.654   3.869  -2.737  0.00  0.00    +0.000 HD
BRANCH  15  20
ATOM     17  C   UNL     1       3.684   1.567  -0.187  0.00  0.00    +0.000 A 
ATOM     18  C   UNL     1       3.071   2.263  -1.217  0.00  0.00    +0.000 A 
ATOM     19  N   UNL     1       3.773   2.855  -2.224  0.00  0.00    +0.000 NA
ATOM     20  C   UNL     1       5.117   2.737  -2.172  0.00  0.00    +0.000 A 
ATOM     21  C   UNL     1       5.714   2.010  -1.131  0.00  0.00    +0.000 A 
ATOM     22  N   UNL     1       5.033   1.419  -0.114  0.00  0.00    +0.000 NA
BRANCH  17  24
ATOM     23  N   UNL     1       3.564   0.320   1.885  0.00  0.00    +0.000 N 
ATOM     24  C   UNL     1       2.864   0.956   0.894  0.00  0.00    +0.000 C 
ATOM     25  O   UNL     1       1.641   1.020   0.905  0.00  0.00    +0.000 OA
ATOM     26  H   UNL     1       3.068  -0.114   2.649  0.00  0.00    +0.000 HD
ATOM     27  H   UNL     1       4.578   0.289   1.849  0.00  0.00    +0.000 HD
ENDBRANCH  17  24
ENDBRANCH  15  20
ENDBRANCH   1  15
TORSDOF 5
