REMARK  Name = 
REMARK  8 active torsions:
REMARK  status: ('A' for Active; 'I' for Inactive)
REMARK    1  A    between atoms: C_2  and  C_3
REMARK    2  A    between atoms: N_7  and  C_8
REMARK    3  A    between atoms: C_8  and  C_9
REMARK    4  A    between atoms: C_9  and  C_10
REMARK    5  A    between atoms: C_9  and  C_12
REMARK    6  A    between atoms: C_10  and  O_11
REMARK    7  A    between atoms: C_14  and  S_15
REMARK    8  A    between atoms: S_15  and  C_16
REMARK                            x       y       z     vdW  Elec       q    Type
REMARK                         _______ _______ _______ _____ _____    ______ ____
ROOT
ATOM      1  C   UNL     1      -5.814   1.239  -0.244  0.00  0.00    +0.000 C 
ENDROOT
BRANCH   1   2
ATOM      2  C   UNL     1      -6.628   2.516  -0.426  0.00  0.00    +0.000 A 
ATOM      3  C   UNL     1      -6.418   3.331  -1.542  0.00  0.00    +0.000 A 
ATOM      4  C   UNL     1      -7.167   4.500  -1.695  0.00  0.00    +0.000 A 
ATOM      5  C   UNL     1      -8.112   4.822  -0.729  0.00  0.00    +0.000 A 
ATOM      6  C   UNL     1      -8.270   3.960   0.343  0.00  0.00    +0.000 A 
ATOM      7  N   UNL     1      -7.563   2.818   0.506  0.00  0.00    +0.000 NA
BRANCH   4   8
ATOM      8  S   UNL     1      -6.761   5.643  -3.002  0.00  0.00    +0.000 S 
BRANCH   8   9
ATOM      9  C   UNL     1      -8.025   5.213  -4.247  0.00  0.00    +0.000 C 
ATOM     10  C   UNL     1      -7.773   3.892  -5.000  0.00  0.00    +0.000 C 
ATOM     11  N   UNL     1      -8.062   4.592  -6.277  0.00  0.00    +0.000 NA
ATOM     12  C   UNL     1      -7.713   5.871  -5.615  0.00  0.00    +0.000 C 
ATOM     13  H   UNL     1      -9.039   4.540  -6.568  0.00  0.00    +0.000 HD
ENDBRANCH   8   9
ENDBRANCH   4   8
ENDBRANCH   1   2
BRANCH   1  14
ATOM     14  C   UNL     1      -6.320   0.385   0.944  0.00  0.00    +0.000 C 
BRANCH  14  19
ATOM     15  C   UNL     1      -6.543  -4.494  -0.673  0.00  0.00    +0.000 A 
ATOM     16  C   UNL     1      -6.972  -3.333  -1.307  0.00  0.00    +0.000 A 
ATOM     17  C   UNL     1      -6.688  -2.095  -0.728  0.00  0.00    +0.000 A 
ATOM     18  C   UNL     1      -5.981  -2.037   0.467  0.00  0.00    +0.000 A 
ATOM     19  N   UNL     1      -5.573  -0.865   1.066  0.00  0.00    +0.000 N 
ATOM     20  N   UNL     1      -5.572  -3.159   1.092  0.00  0.00    +0.000 NA
ATOM     21  C   UNL     1      -5.858  -4.355   0.517  0.00  0.00    +0.000 A 
ATOM     22  H   UNL     1      -5.230  -1.096   1.997  0.00  0.00    +0.000 HD
BRANCH  15  24
ATOM     23  N   UNL     1      -6.993  -6.827  -1.694  0.00  0.00    +0.000 NA
ATOM     24  C   UNL     1      -6.793  -5.784  -1.232  0.00  0.00    +0.000 C 
ENDBRANCH  15  24
ENDBRANCH  14  19
ENDBRANCH   1  14
BRANCH   1  25
ATOM     25  C   UNL     1      -4.299   1.511  -0.152  0.00  0.00    +0.000 C 
BRANCH  25  26
ATOM     26  O   UNL     1      -3.932   2.291   0.980  0.00  0.00    +0.000 OA
ATOM     27  H   UNL     1      -4.108   1.761   1.775  0.00  0.00    +0.000 HD
ENDBRANCH  25  26
ENDBRANCH   1  25
TORSDOF 8
