REMARK  Name = 
REMARK  5 active torsions:
REMARK  status: ('A' for Active; 'I' for Inactive)
REMARK    1  A    between atoms: N_1  and  C_2
REMARK    2  A    between atoms: C_2  and  C_3
REMARK    3  A    between atoms: C_3  and  C_4
REMARK    4  A    between atoms: N_7  and  C_8
REMARK    5  A    between atoms: C_8  and  C_9
REMARK                            x       y       z     vdW  Elec       q    Type
REMARK                         _______ _______ _______ _____ _____    ______ ____
ROOT
ATOM      1  C   UNL     1       7.600   2.026  -0.553  0.00  0.00    +0.000 C 
ENDROOT
BRANCH   1   2
ATOM      2  C   UNL     1       7.211   3.329   0.105  0.00  0.00    +0.000 A 
ATOM      3  C   UNL     1       7.585   3.603   1.428  0.00  0.00    +0.000 A 
ATOM      4  C   UNL     1       7.258   4.825   2.026  0.00  0.00    +0.000 A 
ATOM      5  C   UNL     1       6.550   5.806   1.313  0.00  0.00    +0.000 A 
ATOM      6  C   UNL     1       6.212   7.039   1.884  0.00  0.00    +0.000 A 
ATOM      7  C   UNL     1       5.513   7.960   1.118  0.00  0.00    +0.000 A 
ATOM      8  N   UNL     1       5.134   7.743  -0.157  0.00  0.00    +0.000 NA
ATOM      9  C   UNL     1       5.469   6.545  -0.692  0.00  0.00    +0.000 A 
ATOM     10  C   UNL     1       6.172   5.543  -0.017  0.00  0.00    +0.000 A 
ATOM     11  C   UNL     1       6.506   4.312  -0.610  0.00  0.00    +0.000 A 
ENDBRANCH   1   2
BRANCH   1  15
ATOM     12  C   UNL     1       4.922   0.472  -2.225  0.00  0.00    +0.000 A 
ATOM     13  C   UNL     1       4.821  -0.238  -1.006  0.00  0.00    +0.000 A 
ATOM     14  C   UNL     1       5.824   0.265  -0.214  0.00  0.00    +0.000 A 
ATOM     15  N   UNL     1       6.444   1.231  -0.955  0.00  0.00    +0.000 N 
ATOM     16  N   UNL     1       5.936   1.348  -2.202  0.00  0.00    +0.000 NA
BRANCH  12  17
ATOM     17  C   UNL     1       4.058   0.336  -3.437  0.00  0.00    +0.000 C 
BRANCH  17  18
ATOM     18  C   UNL     1       4.589  -0.719  -4.412  0.00  0.00    +0.000 C 
BRANCH  18  19
ATOM     19  N   UNL     1       3.730  -0.850  -5.593  0.00  0.00    +0.000 NA
ATOM     20  H   UNL     1       4.147  -1.527  -6.232  0.00  0.00    +0.000 HD
ATOM     21  H   UNL     1       3.716   0.037  -6.098  0.00  0.00    +0.000 HD
ENDBRANCH  18  19
ENDBRANCH  17  18
ENDBRANCH  12  17
ENDBRANCH   1  15
TORSDOF 5
