REMARK  Name = 
REMARK  7 active torsions:
REMARK  status: ('A' for Active; 'I' for Inactive)
REMARK    1  A    between atoms: C_1  and  N_2
REMARK    2  A    between atoms: C_3  and  C_5
REMARK    3  A    between atoms: C_8  and  C_9
REMARK    4  A    between atoms: C_9  and  C_10
REMARK    5  A    between atoms: C_9  and  N_11
REMARK    6  A    between atoms: N_11  and  C_12
REMARK    7  A    between atoms: C_16  and  C_17
REMARK                            x       y       z     vdW  Elec       q    Type
REMARK                         _______ _______ _______ _____ _____    ______ ____
ROOT
ATOM      1  C   UNL     1       8.821   0.653   1.013  0.00  0.00    +0.000 C 
ATOM      2  C   UNL     1       9.285   1.958   0.355  0.00  0.00    +0.000 C 
ENDROOT
BRANCH   1   6
ATOM      3  C   UNL     1       4.573   0.362   0.917  0.00  0.00    +0.000 A 
ATOM      4  C   UNL     1       5.392  -0.745   0.894  0.00  0.00    +0.000 A 
ATOM      5  N   UNL     1       6.741  -0.679   0.945  0.00  0.00    +0.000 NA
ATOM      6  C   UNL     1       7.290   0.554   1.022  0.00  0.00    +0.000 A 
ATOM      7  N   UNL     1       6.566   1.696   1.079  0.00  0.00    +0.000 NA
ATOM      8  C   UNL     1       5.221   1.573   0.995  0.00  0.00    +0.000 A 
BRANCH   3  11
ATOM      9  C   UNL     1       1.060  -0.953   1.286  0.00  0.00    +0.000 C 
ATOM     10  N   UNL     1       2.496  -0.824   1.322  0.00  0.00    +0.000 N 
ATOM     11  C   UNL     1       3.109   0.304   0.810  0.00  0.00    +0.000 C 
ATOM     12  O   UNL     1       2.500   1.236   0.299  0.00  0.00    +0.000 OA
ATOM     13  H   UNL     1       3.011  -1.466   1.911  0.00  0.00    +0.000 HD
ENDBRANCH   3  11
ENDBRANCH   1   6
BRANCH   1  14
ATOM     14  N   UNL     1       9.394   0.591   2.376  0.00  0.00    +0.000 N 
ATOM     15  H   UNL     1       8.873   1.193   3.010  0.00  0.00    +0.000 HD
BRANCH  14  16
ATOM     16  C   UNL     1       9.753  -0.626   2.960  0.00  0.00    +0.000 A 
ATOM     17  C   UNL     1      10.189  -1.737   2.231  0.00  0.00    +0.000 A 
ATOM     18  C   UNL     1      10.623  -2.906   2.866  0.00  0.00    +0.000 A 
ATOM     19  C   UNL     1      10.670  -2.973   4.253  0.00  0.00    +0.000 A 
ATOM     20  C   UNL     1      10.297  -1.863   5.019  0.00  0.00    +0.000 A 
ATOM     21  C   UNL     1       9.845  -0.701   4.360  0.00  0.00    +0.000 A 
BRANCH  20  22
ATOM     22  C   UNL     1      10.394  -1.894   6.523  0.00  0.00    +0.000 C 
ATOM     23  F   UNL     1      10.906  -3.060   7.012  0.00  0.00    +0.000 F 
ATOM     24  F   UNL     1      11.190  -0.906   7.017  0.00  0.00    +0.000 F 
ATOM     25  F   UNL     1       9.185  -1.739   7.130  0.00  0.00    +0.000 F 
ENDBRANCH  20  22
ENDBRANCH  14  16
ENDBRANCH   1  14
TORSDOF 5
