REMARK  Name = 
REMARK  5 active torsions:
REMARK  status: ('A' for Active; 'I' for Inactive)
REMARK    1  A    between atoms: C_2  and  C_3
REMARK    2  A    between atoms: C_6  and  C_7
REMARK    3  A    between atoms: C_11  and  C_12
REMARK    4  A    between atoms: C_12  and  N_13
REMARK    5  A    between atoms: C_16  and  C_17
REMARK                            x       y       z     vdW  Elec       q    Type
REMARK                         _______ _______ _______ _____ _____    ______ ____
ROOT
ATOM      1  C   UNL     1      -6.634  -1.670   1.363  0.00  0.00    +0.000 C 
ATOM      2  C   UNL     1      -7.343  -2.881   0.795  0.00  0.00    +0.000 C 
ATOM      3  C   UNL     1      -8.153  -1.697   1.205  0.00  0.00    +0.000 C 
ENDROOT
BRANCH   1   4
ATOM      4  N   UNL     1      -6.166  -1.646   2.748  0.00  0.00    +0.000 N 
ATOM      5  C   UNL     1      -5.088  -2.338   3.287  0.00  0.00    +0.000 A 
ATOM      6  C   UNL     1      -4.438  -3.377   2.643  0.00  0.00    +0.000 A 
ATOM      7  C   UNL     1      -3.423  -4.073   3.310  0.00  0.00    +0.000 A 
ATOM      8  C   UNL     1      -3.073  -3.693   4.602  0.00  0.00    +0.000 A 
ATOM      9  C   UNL     1      -3.755  -2.631   5.161  0.00  0.00    +0.000 A 
ATOM     10  N   UNL     1      -4.745  -1.961   4.536  0.00  0.00    +0.000 NA
ATOM     11  H   UNL     1      -6.447  -0.903   3.376  0.00  0.00    +0.000 HD
BRANCH   7  12
ATOM     12  C   UNL     1      -2.785  -5.214   2.598  0.00  0.00    +0.000 C 
ATOM     13  N   UNL     1      -1.836  -5.951   3.250  0.00  0.00    +0.000 N 
ATOM     14  O   UNL     1      -3.100  -5.505   1.449  0.00  0.00    +0.000 OA
ATOM     15  H   UNL     1      -1.516  -5.801   4.192  0.00  0.00    +0.000 HD
ATOM     16  H   UNL     1      -1.440  -6.730   2.738  0.00  0.00    +0.000 HD
ENDBRANCH   7  12
ENDBRANCH   1   4
BRANCH   1  21
ATOM     17  C   UNL     1      -5.527   1.496  -0.567  0.00  0.00    +0.000 A 
ATOM     18  C   UNL     1      -4.438   0.993  -1.292  0.00  0.00    +0.000 A 
ATOM     19  C   UNL     1      -4.055  -0.345  -1.178  0.00  0.00    +0.000 A 
ATOM     20  C   UNL     1      -4.759  -1.206  -0.334  0.00  0.00    +0.000 A 
ATOM     21  C   UNL     1      -5.855  -0.758   0.418  0.00  0.00    +0.000 A 
ATOM     22  C   UNL     1      -6.213   0.596   0.276  0.00  0.00    +0.000 A 
BRANCH  17  26
ATOM     23  C   UNL     1      -6.850   5.486  -1.100  0.00  0.00    +0.000 A 
ATOM     24  C   UNL     1      -7.047   4.890   0.140  0.00  0.00    +0.000 A 
ATOM     25  C   UNL     1      -6.586   3.590   0.351  0.00  0.00    +0.000 A 
ATOM     26  C   UNL     1      -5.957   2.904  -0.692  0.00  0.00    +0.000 A 
ATOM     27  N   UNL     1      -5.741   3.492  -1.897  0.00  0.00    +0.000 NA
ATOM     28  C   UNL     1      -6.190   4.759  -2.075  0.00  0.00    +0.000 A 
BRANCH  23  30
ATOM     29  N   UNL     1      -7.712   7.872  -1.585  0.00  0.00    +0.000 NA
ATOM     30  C   UNL     1      -7.321   6.804  -1.368  0.00  0.00    +0.000 C 
ENDBRANCH  23  30
ENDBRANCH  17  26
ENDBRANCH   1  21
TORSDOF 5
