REMARK  Name = 
REMARK  6 active torsions:
REMARK  status: ('A' for Active; 'I' for Inactive)
REMARK    1  A    between atoms: C_2  and  C_4
REMARK    2  A    between atoms: N_8  and  C_9
REMARK    3  A    between atoms: C_9  and  C_10
REMARK    4  A    between atoms: C_10  and  C_11
REMARK    5  A    between atoms: C_15  and  N_16
REMARK    6  A    between atoms: N_16  and  C_17
REMARK                            x       y       z     vdW  Elec       q    Type
REMARK                         _______ _______ _______ _____ _____    ______ ____
ROOT
ATOM      1  C   UNL     1       5.146   0.210  -6.089  0.00  0.00    +0.000 C 
ENDROOT
BRANCH   1   6
ATOM      2  C   UNL     1       3.121  -0.169  -1.395  0.00  0.00    +0.000 A 
ATOM      3  C   UNL     1       2.729   0.563  -2.509  0.00  0.00    +0.000 A 
ATOM      4  C   UNL     1       3.491   0.483  -3.674  0.00  0.00    +0.000 A 
ATOM      5  C   UNL     1       4.631  -0.315  -3.710  0.00  0.00    +0.000 A 
ATOM      6  N   UNL     1       5.411  -0.452  -4.829  0.00  0.00    +0.000 N 
ATOM      7  N   UNL     1       5.029  -1.014  -2.632  0.00  0.00    +0.000 NA
ATOM      8  C   UNL     1       4.278  -0.924  -1.496  0.00  0.00    +0.000 A 
ATOM      9  H   UNL     1       6.232  -1.031  -4.695  0.00  0.00    +0.000 HD
BRANCH   2  11
ATOM     10  N   UNL     1       1.026   0.118  -0.201  0.00  0.00    +0.000 N 
ATOM     11  C   UNL     1       2.368  -0.154  -0.127  0.00  0.00    +0.000 C 
ATOM     12  O   UNL     1       2.902  -0.416   0.944  0.00  0.00    +0.000 OA
ATOM     13  H   UNL     1       0.500   0.021   0.658  0.00  0.00    +0.000 HD
ATOM     14  H   UNL     1       0.510   0.093  -1.071  0.00  0.00    +0.000 HD
ENDBRANCH   2  11
ENDBRANCH   1   6
BRANCH   1  15
ATOM     15  C   UNL     1       6.171  -0.170  -7.157  0.00  0.00    +0.000 C 
BRANCH  15  16
ATOM     16  C   UNL     1       5.896   0.544  -8.461  0.00  0.00    +0.000 A 
ATOM     17  C   UNL     1       6.380   1.840  -8.673  0.00  0.00    +0.000 A 
ATOM     18  C   UNL     1       6.090   2.513  -9.859  0.00  0.00    +0.000 A 
ATOM     19  C   UNL     1       5.299   1.908 -10.840  0.00  0.00    +0.000 A 
ATOM     20  C   UNL     1       4.796   0.620 -10.649  0.00  0.00    +0.000 A 
ATOM     21  C   UNL     1       5.112  -0.056  -9.460  0.00  0.00    +0.000 A 
BRANCH  20  22
ATOM     22  N   UNL     1       4.012  -0.053 -11.612  0.00  0.00    +0.000 N 
ATOM     23  H   UNL     1       4.538  -0.848 -11.977  0.00  0.00    +0.000 HD
BRANCH  22  24
ATOM     24  C   UNL     1       3.182   0.569 -12.612  0.00  0.00    +0.000 C 
ATOM     25  C   UNL     1       2.513  -0.464 -13.546  0.00  0.00    +0.000 C 
ATOM     26  N   UNL     1       2.936   0.325 -14.717  0.00  0.00    +0.000 NA
ATOM     27  C   UNL     1       3.895   1.072 -13.879  0.00  0.00    +0.000 C 
ATOM     28  H   UNL     1       2.191   0.905 -15.103  0.00  0.00    +0.000 HD
ENDBRANCH  22  24
ENDBRANCH  20  22
ENDBRANCH  15  16
ENDBRANCH   1  15
TORSDOF 6
