REMARK  Name = 
REMARK  7 active torsions:
REMARK  status: ('A' for Active; 'I' for Inactive)
REMARK    1  A    between atoms: C_1  and  C_2
REMARK    2  A    between atoms: C_2  and  C_3
REMARK    3  A    between atoms: C_2  and  C_4
REMARK    4  A    between atoms: C_2  and  C_19
REMARK    5  A    between atoms: C_4  and  O_5
REMARK    6  A    between atoms: O_5  and  C_6
REMARK    7  A    between atoms: C_10  and  C_11
REMARK                            x       y       z     vdW  Elec       q    Type
REMARK                         _______ _______ _______ _____ _____    ______ ____
ROOT
ATOM      1  C   UNL     1       3.120  -3.313   1.575  0.00  0.00    +0.000 A 
ATOM      2  C   UNL     1       3.844  -4.046   0.639  0.00  0.00    +0.000 A 
ATOM      3  N   UNL     1       4.288  -5.305   0.857  0.00  0.00    +0.000 NA
ATOM      4  C   UNL     1       3.973  -5.808   2.068  0.00  0.00    +0.000 A 
ATOM      5  C   UNL     1       3.242  -5.111   3.031  0.00  0.00    +0.000 A 
ATOM      6  N   UNL     1       2.812  -3.842   2.784  0.00  0.00    +0.000 NA
ENDROOT
BRANCH   5   7
ATOM      7  C   UNL     1       2.942  -5.680   4.354  0.00  0.00    +0.000 A 
ATOM      8  C   UNL     1       2.828  -7.063   4.578  0.00  0.00    +0.000 A 
ATOM      9  C   UNL     1       2.627  -7.560   5.865  0.00  0.00    +0.000 A 
ATOM     10  C   UNL     1       2.528  -6.658   6.906  0.00  0.00    +0.000 A 
ATOM     11  F   UNL     1       2.361  -7.134   8.148  0.00  0.00    +0.000 F 
ATOM     12  N   UNL     1       2.597  -5.324   6.748  0.00  0.00    +0.000 NA
ATOM     13  C   UNL     1       2.792  -4.871   5.482  0.00  0.00    +0.000 A 
ENDBRANCH   5   7
BRANCH   1  14
ATOM     14  O   UNL     1       2.661  -2.031   1.391  0.00  0.00    +0.000 OA
BRANCH  14  15
ATOM     15  C   UNL     1       3.064  -1.420   0.160  0.00  0.00    +0.000 C 
BRANCH  15  17
ATOM     16  C   UNL     1       1.025   0.045   0.044  0.00  0.00    +0.000 C 
ATOM     17  C   UNL     1       2.569   0.045  -0.002  0.00  0.00    +0.000 C 
ATOM     18  C   UNL     1       3.106   0.872   1.187  0.00  0.00    +0.000 C 
BRANCH  17  19
ATOM     19  C   UNL     1       3.034   0.665  -1.343  0.00  0.00    +0.000 A 
ATOM     20  C   UNL     1       2.702   1.999  -1.658  0.00  0.00    +0.000 A 
ATOM     21  C   UNL     1       3.071   2.574  -2.879  0.00  0.00    +0.000 A 
ATOM     22  C   UNL     1       3.781   1.824  -3.803  0.00  0.00    +0.000 A 
ATOM     23  F   UNL     1       4.123   2.368  -4.979  0.00  0.00    +0.000 F 
ATOM     24  C   UNL     1       4.136   0.515  -3.527  0.00  0.00    +0.000 A 
ATOM     25  C   UNL     1       3.767  -0.060  -2.306  0.00  0.00    +0.000 A 
ENDBRANCH  17  19
ENDBRANCH  15  17
ENDBRANCH  14  15
ENDBRANCH   1  14
TORSDOF 5
