REMARK  Name = 
REMARK  11 active torsions:
REMARK  status: ('A' for Active; 'I' for Inactive)
REMARK    1  A    between atoms: C_1  and  C_2
REMARK    2  A    between atoms: C_2  and  N_3
REMARK    3  A    between atoms: C_2  and  C_4
REMARK    4  A    between atoms: C_7  and  C_8
REMARK    5  A    between atoms: C_8  and  N_9
REMARK    6  A    between atoms: C_11  and  C_12
REMARK    7  A    between atoms: C_13  and  C_14
REMARK    8  A    between atoms: C_14  and  C_15
REMARK    9  A    between atoms: C_14  and  C_16
REMARK   10  A    between atoms: C_14  and  C_17
REMARK   11  A    between atoms: C_20  and  C_21
REMARK                            x       y       z     vdW  Elec       q    Type
REMARK                         _______ _______ _______ _____ _____    ______ ____
ROOT
ATOM      1  N   UNL     1       5.056   0.102  -6.140  0.00  0.00    +0.000 N 
ATOM      2  C   UNL     1       4.474   0.457  -7.339  0.00  0.00    +0.000 A 
ATOM      3  C   UNL     1       5.116   1.584  -7.789  0.00  0.00    +0.000 A 
ATOM      4  C   UNL     1       6.114   1.931  -6.862  0.00  0.00    +0.000 A 
ATOM      5  C   UNL     1       7.031   2.990  -6.776  0.00  0.00    +0.000 A 
ATOM      6  C   UNL     1       7.857   3.040  -5.659  0.00  0.00    +0.000 A 
ATOM      7  C   UNL     1       7.740   2.022  -4.711  0.00  0.00    +0.000 A 
ATOM      8  N   UNL     1       6.892   0.950  -4.767  0.00  0.00    +0.000 NA
ATOM      9  C   UNL     1       6.089   0.974  -5.852  0.00  0.00    +0.000 A 
ENDROOT
BRANCH   6  10
ATOM     10  C   UNL     1       8.831   4.133  -5.453  0.00  0.00    +0.000 C 
ATOM     11  N   UNL     1       8.922   5.124  -6.390  0.00  0.00    +0.000 N 
ATOM     12  O   UNL     1       9.559   4.153  -4.457  0.00  0.00    +0.000 OA
ATOM     13  H   UNL     1       8.395   5.169  -7.248  0.00  0.00    +0.000 HD
ATOM     14  H   UNL     1       9.613   5.846  -6.232  0.00  0.00    +0.000 HD
ENDBRANCH   6  10
BRANCH   3  15
ATOM     15  C   UNL     1       4.825   2.290  -8.977  0.00  0.00    +0.000 C 
ATOM     16  C   UNL     1       4.592   2.907 -10.102  0.00  0.00    +0.000 C 
BRANCH  16  17
ATOM     17  C   UNL     1       4.320   3.626 -11.413  0.00  0.00    +0.000 C 
ATOM     18  C   UNL     1       5.239   4.851 -11.511  0.00  0.00    +0.000 C 
ATOM     19  C   UNL     1       4.601   2.668 -12.577  0.00  0.00    +0.000 C 
ATOM     20  C   UNL     1       2.853   4.071 -11.445  0.00  0.00    +0.000 C 
ENDBRANCH  16  17
ENDBRANCH   3  15
BRANCH   1  21
ATOM     21  C   UNL     1       4.657  -1.062  -5.357  0.00  0.00    +0.000 C 
BRANCH  21  25
ATOM     22  C   UNL     1       1.700  -0.130  -2.314  0.00  0.00    +0.000 A 
ATOM     23  C   UNL     1       1.288  -0.547  -3.584  0.00  0.00    +0.000 A 
ATOM     24  C   UNL     1       2.226  -0.877  -4.567  0.00  0.00    +0.000 A 
ATOM     25  C   UNL     1       3.603  -0.767  -4.315  0.00  0.00    +0.000 A 
ATOM     26  C   UNL     1       4.011  -0.382  -3.033  0.00  0.00    +0.000 A 
ATOM     27  C   UNL     1       3.075  -0.079  -2.042  0.00  0.00    +0.000 A 
BRANCH  22  29
ATOM     28  C   UNL     1       0.734   1.726  -0.896  0.00  0.00    +0.000 C 
ATOM     29  C   UNL     1       0.659   0.249  -1.283  0.00  0.00    +0.000 C 
BRANCH  29  30
ATOM     30  N   UNL     1       0.771  -0.605  -0.100  0.00  0.00    +0.000 NA
ATOM     31  H   UNL     1       1.708  -0.508   0.287  0.00  0.00    +0.000 HD
ATOM     32  H   UNL     1       0.706  -1.576  -0.406  0.00  0.00    +0.000 HD
ENDBRANCH  29  30
ENDBRANCH  22  29
ENDBRANCH  21  25
ENDBRANCH   1  21
TORSDOF 7
