REMARK  Name = 
REMARK  9 active torsions:
REMARK  status: ('A' for Active; 'I' for Inactive)
REMARK    1  A    between atoms: C_1  and  O_2
REMARK    2  A    between atoms: O_2  and  C_3
REMARK    3  A    between atoms: C_3  and  C_5
REMARK    4  A    between atoms: C_5  and  N_6
REMARK    5  A    between atoms: C_5  and  C_19
REMARK    6  A    between atoms: C_7  and  C_9
REMARK    7  A    between atoms: C_22  and  C_23
REMARK    8  A    between atoms: C_23  and  N_24
REMARK    9  A    between atoms: C_25  and  C_27
REMARK                            x       y       z     vdW  Elec       q    Type
REMARK                         _______ _______ _______ _____ _____    ______ ____
ROOT
ATOM      1  C   UNL     1       4.582   1.253  -0.153  0.00  0.00    +0.000 C 
ENDROOT
BRANCH   1   2
ATOM      2  C   UNL     1       5.158   2.679  -0.184  0.00  0.00    +0.000 A 
ATOM      3  C   UNL     1       4.311   3.764  -0.465  0.00  0.00    +0.000 A 
ATOM      4  C   UNL     1       4.780   5.084  -0.417  0.00  0.00    +0.000 A 
ATOM      5  C   UNL     1       6.121   5.372  -0.127  0.00  0.00    +0.000 A 
ATOM      6  C   UNL     1       6.976   4.293   0.141  0.00  0.00    +0.000 A 
ATOM      7  C   UNL     1       6.499   2.968   0.120  0.00  0.00    +0.000 A 
BRANCH   5   8
ATOM      8  C   UNL     1       6.631   6.801  -0.109  0.00  0.00    +0.000 C 
BRANCH   8   9
ATOM      9  N   UNL     1       6.520   7.416   1.202  0.00  0.00    +0.000 N 
ATOM     10  C   UNL     1       6.928   8.712   1.447  0.00  0.00    +0.000 C 
ATOM     11  O   UNL     1       7.401   9.435   0.582  0.00  0.00    +0.000 OA
ATOM     12  H   UNL     1       6.182   6.841   1.956  0.00  0.00    +0.000 HD
BRANCH  10  13
ATOM     13  C   UNL     1       6.659   9.178   2.884  0.00  0.00    +0.000 C 
ATOM     14  C   UNL     1       7.111  10.605   3.171  0.00  0.00    +0.000 C 
ATOM     15  C   UNL     1       8.439  10.430   3.878  0.00  0.00    +0.000 C 
ATOM     16  N   UNL     1       8.230   9.250   4.725  0.00  0.00    +0.000 NA
ATOM     17  C   UNL     1       7.405   8.336   3.920  0.00  0.00    +0.000 C 
ATOM     18  H   UNL     1       7.705   9.536   5.552  0.00  0.00    +0.000 HD
ENDBRANCH  10  13
ENDBRANCH   8   9
ENDBRANCH   5   8
ENDBRANCH   1   2
BRANCH   1  19
ATOM     19  N   UNL     1       4.612   0.744   1.217  0.00  0.00    +0.000 N 
ATOM     20  C   UNL     1       3.628  -0.057   1.744  0.00  0.00    +0.000 C 
ATOM     21  O   UNL     1       2.673  -0.451   1.086  0.00  0.00    +0.000 OA
ATOM     22  H   UNL     1       5.219   1.244   1.856  0.00  0.00    +0.000 HD
BRANCH  20  23
ATOM     23  C   UNL     1       3.801  -0.444   3.151  0.00  0.00    +0.000 A 
ATOM     24  C   UNL     1       3.280  -1.640   3.639  0.00  0.00    +0.000 A 
ATOM     25  S   UNL     1       3.610  -1.898   5.294  0.00  0.00    +0.000 S 
ATOM     26  C   UNL     1       4.404  -0.397   5.433  0.00  0.00    +0.000 A 
ATOM     27  N   UNL     1       4.903   0.034   6.619  0.00  0.00    +0.000 NA
ATOM     28  C   UNL     1       5.443   1.210   6.578  0.00  0.00    +0.000 A 
ATOM     29  N   UNL     1       5.543   1.983   5.453  0.00  0.00    +0.000 N 
ATOM     30  C   UNL     1       5.106   1.567   4.227  0.00  0.00    +0.000 A 
ATOM     31  O   UNL     1       5.294   2.247   3.222  0.00  0.00    +0.000 OA
ATOM     32  C   UNL     1       4.455   0.267   4.221  0.00  0.00    +0.000 A 
ATOM     33  H   UNL     1       6.001   2.881   5.476  0.00  0.00    +0.000 HD
ENDBRANCH  20  23
ENDBRANCH   1  19
BRANCH   1  34
ATOM     34  C   UNL     1       5.307   0.294  -1.132  0.00  0.00    +0.000 C 
ATOM     35  O   UNL     1       6.509   0.296  -1.374  0.00  0.00    +0.000 OA
BRANCH  34  37
ATOM     36  C   UNL     1       4.998  -1.510  -2.619  0.00  0.00    +0.000 C 
ATOM     37  O   UNL     1       4.429  -0.614  -1.660  0.00  0.00    +0.000 OA
ENDBRANCH  34  37
ENDBRANCH   1  34
TORSDOF 8
