REMARK  Name = 
REMARK  8 active torsions:
REMARK  status: ('A' for Active; 'I' for Inactive)
REMARK    1  A    between atoms: C_1  and  O_2
REMARK    2  A    between atoms: O_2  and  C_3
REMARK    3  A    between atoms: C_10  and  C_11
REMARK    4  A    between atoms: N_13  and  C_14
REMARK    5  A    between atoms: C_14  and  C_15
REMARK    6  A    between atoms: C_18  and  N_19
REMARK    7  A    between atoms: N_19  and  C_20
REMARK    8  A    between atoms: C_20  and  C_21
REMARK                            x       y       z     vdW  Elec       q    Type
REMARK                         _______ _______ _______ _____ _____    ______ ____
ROOT
ATOM      1  C   UNL     1      -7.119   1.723  -3.449  0.00  0.00    +0.000 C 
ENDROOT
BRANCH   1   2
ATOM      2  C   UNL     1      -6.449   2.046  -2.142  0.00  0.00    +0.000 A 
ATOM      3  C   UNL     1      -6.346   3.372  -1.708  0.00  0.00    +0.000 A 
ATOM      4  C   UNL     1      -5.745   3.671  -0.484  0.00  0.00    +0.000 A 
ATOM      5  C   UNL     1      -5.258   2.654   0.343  0.00  0.00    +0.000 A 
ATOM      6  C   UNL     1      -5.265   1.344  -0.145  0.00  0.00    +0.000 A 
ATOM      7  C   UNL     1      -5.866   1.038  -1.368  0.00  0.00    +0.000 A 
BRANCH   5   8
ATOM      8  N   UNL     1      -4.709   2.880   1.611  0.00  0.00    +0.000 N 
ATOM      9  H   UNL     1      -3.692   2.918   1.551  0.00  0.00    +0.000 HD
BRANCH   8  10
ATOM     10  C   UNL     1      -5.265   3.978   2.415  0.00  0.00    +0.000 C 
BRANCH  10  11
ATOM     11  C   UNL     1      -6.764   3.782   2.742  0.00  0.00    +0.000 C 
ATOM     12  C   UNL     1      -7.080   2.498   3.514  0.00  0.00    +0.000 C 
ATOM     13  C   UNL     1      -6.670   2.628   4.971  0.00  0.00    +0.000 C 
ATOM     14  C   UNL     1      -7.247   3.908   5.561  0.00  0.00    +0.000 C 
ATOM     15  N   UNL     1      -6.854   5.083   4.790  0.00  0.00    +0.000 NA
ATOM     16  O   UNL     1      -7.320   4.930   3.416  0.00  0.00    +0.000 OA
ATOM     17  H   UNL     1      -5.845   5.197   4.725  0.00  0.00    +0.000 HD
ENDBRANCH  10  11
ENDBRANCH   8  10
ENDBRANCH   5   8
ENDBRANCH   1   2
BRANCH   1  20
ATOM     18  C   UNL     1      -6.530   1.559  -5.826  0.00  0.00    +0.000 C 
ATOM     19  O   UNL     1      -7.699   1.344  -6.134  0.00  0.00    +0.000 OA
ATOM     20  N   UNL     1      -6.164   1.750  -4.524  0.00  0.00    +0.000 N 
ATOM     21  H   UNL     1      -5.192   1.874  -4.279  0.00  0.00    +0.000 HD
BRANCH  18  29
ATOM     22  C   UNL     1      -3.166   2.276  -5.682  0.00  0.00    +0.000 A 
ATOM     23  N   UNL     1      -1.858   2.506  -5.913  0.00  0.00    +0.000 NA
ATOM     24  C   UNL     1      -1.416   2.407  -7.170  0.00  0.00    +0.000 A 
ATOM     25  N   UNL     1      -2.129   2.099  -8.249  0.00  0.00    +0.000 NA
ATOM     26  C   UNL     1      -3.427   1.875  -7.978  0.00  0.00    +0.000 A 
ATOM     27  S   UNL     1      -4.489   1.474  -9.237  0.00  0.00    +0.000 S 
ATOM     28  C   UNL     1      -5.800   1.362  -8.162  0.00  0.00    +0.000 A 
ATOM     29  C   UNL     1      -5.465   1.619  -6.839  0.00  0.00    +0.000 A 
ATOM     30  C   UNL     1      -4.040   1.930  -6.728  0.00  0.00    +0.000 A 
BRANCH  22  32
ATOM     31  C   UNL     1      -2.792   3.150  -3.542  0.00  0.00    +0.000 C 
ATOM     32  O   UNL     1      -3.613   2.340  -4.379  0.00  0.00    +0.000 OA
ENDBRANCH  22  32
ENDBRANCH  18  29
ENDBRANCH   1  20
TORSDOF 7
