REMARK  Name = 
REMARK  6 active torsions:
REMARK  status: ('A' for Active; 'I' for Inactive)
REMARK    1  A    between atoms: C_1  and  C_2
REMARK    2  A    between atoms: C_4  and  N_5
REMARK    3  A    between atoms: N_5  and  C_6
REMARK    4  A    between atoms: C_6  and  C_7
REMARK    5  A    between atoms: C_11  and  C_12
REMARK    6  A    between atoms: C_21  and  C_22
REMARK                            x       y       z     vdW  Elec       q    Type
REMARK                         _______ _______ _______ _____ _____    ______ ____
ROOT
ATOM      1  N   UNL     1       1.742  -2.365   0.086  0.00  0.00    +0.000 N 
ATOM      2  H   UNL     1       2.734  -2.240  -0.078  0.00  0.00    +0.000 HD
ENDROOT
BRANCH   1   6
ATOM      3  C   UNL     1      -2.604   0.032   0.067  0.00  0.00    +0.000 C 
ATOM      4  C   UNL     1      -1.105   0.010   0.051  0.00  0.00    +0.000 A 
ATOM      5  C   UNL     1      -0.394  -1.196   0.057  0.00  0.00    +0.000 A 
ATOM      6  C   UNL     1       1.004  -1.204   0.034  0.00  0.00    +0.000 A 
ATOM      7  N   UNL     1       1.709  -0.054   0.008  0.00  0.00    +0.000 NA
ATOM      8  C   UNL     1       1.005   1.118   0.013  0.00  0.00    +0.000 A 
ATOM      9  C   UNL     1      -0.381   1.198   0.034  0.00  0.00    +0.000 A 
BRANCH   8  10
ATOM     10  C   UNL     1       1.796   2.394   0.003  0.00  0.00    +0.000 C 
ATOM     11  N   UNL     1       3.157   2.265  -0.021  0.00  0.00    +0.000 N 
ATOM     12  O   UNL     1       1.264   3.500   0.026  0.00  0.00    +0.000 OA
ATOM     13  H   UNL     1       3.578   1.343  -0.038  0.00  0.00    +0.000 HD
ATOM     14  H   UNL     1       3.735   3.089  -0.032  0.00  0.00    +0.000 HD
ENDBRANCH   8  10
ENDBRANCH   1   6
BRANCH   1  15
ATOM     15  C   UNL     1       1.167  -3.694  -0.008  0.00  0.00    +0.000 C 
BRANCH  15  16
ATOM     16  C   UNL     1       2.210  -4.796  -0.063  0.00  0.00    +0.000 A 
ATOM     17  C   UNL     1       2.714  -5.338   1.117  0.00  0.00    +0.000 A 
ATOM     18  C   UNL     1       3.612  -6.396   1.039  0.00  0.00    +0.000 A 
ATOM     19  C   UNL     1       3.986  -6.882  -0.209  0.00  0.00    +0.000 A 
ATOM     20  C   UNL     1       3.447  -6.305  -1.358  0.00  0.00    +0.000 A 
ATOM     21  N   UNL     1       2.581  -5.260  -1.289  0.00  0.00    +0.000 NA
BRANCH  20  22
ATOM     22  C   UNL     1       3.785  -6.795  -2.706  0.00  0.00    +0.000 A 
ATOM     23  C   UNL     1       3.781  -5.949  -3.820  0.00  0.00    +0.000 A 
ATOM     24  N   UNL     1       4.133  -6.318  -5.083  0.00  0.00    +0.000 NA
ATOM     25  C   UNL     1       4.501  -7.607  -5.254  0.00  0.00    +0.000 A 
ATOM     26  C   UNL     1       4.513  -8.532  -4.230  0.00  0.00    +0.000 A 
ATOM     27  F   UNL     1       4.880  -9.800  -4.454  0.00  0.00    +0.000 F 
ATOM     28  C   UNL     1       4.146  -8.130  -2.953  0.00  0.00    +0.000 A 
ENDBRANCH  20  22
ENDBRANCH  15  16
ENDBRANCH   1  15
TORSDOF 5
