REMARK  Name = 
REMARK  5 active torsions:
REMARK  status: ('A' for Active; 'I' for Inactive)
REMARK    1  A    between atoms: C_2  and  C_4
REMARK    2  A    between atoms: C_7  and  N_8
REMARK    3  A    between atoms: N_8  and  C_9
REMARK    4  A    between atoms: C_9  and  C_10
REMARK    5  A    between atoms: C_12  and  C_13
REMARK                            x       y       z     vdW  Elec       q    Type
REMARK                         _______ _______ _______ _____ _____    ______ ____
ROOT
ATOM      1  C   UNL     1       5.104  -2.386  -5.661  0.00  0.00    +0.000 C 
ATOM      2  C   UNL     1       4.990  -1.181  -6.584  0.00  0.00    +0.000 C 
ATOM      3  C   UNL     1       3.758  -1.939  -6.227  0.00  0.00    +0.000 C 
ENDROOT
BRANCH   1   4
ATOM      4  C   UNL     1       5.576  -3.749  -6.199  0.00  0.00    +0.000 A 
ATOM      5  C   UNL     1       5.202  -4.931  -5.537  0.00  0.00    +0.000 A 
ATOM      6  C   UNL     1       5.516  -6.196  -6.060  0.00  0.00    +0.000 A 
ATOM      7  C   UNL     1       6.228  -6.211  -7.265  0.00  0.00    +0.000 A 
ATOM      8  C   UNL     1       6.590  -5.011  -7.855  0.00  0.00    +0.000 A 
ATOM      9  N   UNL     1       6.280  -3.798  -7.357  0.00  0.00    +0.000 NA
BRANCH   6  10
ATOM     10  C   UNL     1       5.100  -7.443  -5.388  0.00  0.00    +0.000 A 
ATOM     11  C   UNL     1       3.941  -7.566  -4.636  0.00  0.00    +0.000 A 
ATOM     12  N   UNL     1       3.532  -8.697  -4.015  0.00  0.00    +0.000 NA
ATOM     13  C   UNL     1       4.330  -9.762  -4.164  0.00  0.00    +0.000 A 
ATOM     14  N   UNL     1       5.471  -9.790  -4.863  0.00  0.00    +0.000 NA
ATOM     15  C   UNL     1       5.826  -8.625  -5.452  0.00  0.00    +0.000 A 
ENDBRANCH   6  10
ENDBRANCH   1   4
BRANCH   1  16
ATOM     16  N   UNL     1       5.424  -2.147  -4.233  0.00  0.00    +0.000 N 
ATOM     17  H   UNL     1       4.652  -1.919  -3.612  0.00  0.00    +0.000 HD
BRANCH  16  21
ATOM     18  C   UNL     1       9.023  -0.359  -2.890  0.00  0.00    +0.000 A 
ATOM     19  C   UNL     1       8.767  -0.451  -4.259  0.00  0.00    +0.000 A 
ATOM     20  C   UNL     1       7.602  -1.077  -4.711  0.00  0.00    +0.000 A 
ATOM     21  C   UNL     1       6.636  -1.551  -3.816  0.00  0.00    +0.000 A 
ATOM     22  C   UNL     1       6.937  -1.512  -2.447  0.00  0.00    +0.000 A 
ATOM     23  C   UNL     1       8.125  -0.930  -1.985  0.00  0.00    +0.000 A 
BRANCH  18  25
ATOM     24  N   UNL     1      10.767   1.321  -3.133  0.00  0.00    +0.000 N 
ATOM     25  C   UNL     1      10.246   0.305  -2.382  0.00  0.00    +0.000 C 
ATOM     26  O   UNL     1      10.753  -0.013  -1.310  0.00  0.00    +0.000 OA
ATOM     27  H   UNL     1      11.543   1.831  -2.731  0.00  0.00    +0.000 HD
ATOM     28  H   UNL     1      10.245   1.766  -3.873  0.00  0.00    +0.000 HD
ENDBRANCH  18  25
ENDBRANCH  16  21
ENDBRANCH   1  16
TORSDOF 5
