REMARK  Name = 
REMARK  7 active torsions:
REMARK  status: ('A' for Active; 'I' for Inactive)
REMARK    1  A    between atoms: C_1  and  N_2
REMARK    2  A    between atoms: N_2  and  C_3
REMARK    3  A    between atoms: C_3  and  C_4
REMARK    4  A    between atoms: C_7  and  C_8
REMARK    5  A    between atoms: C_8  and  N_9
REMARK    6  A    between atoms: C_10  and  C_12
REMARK    7  A    between atoms: C_19  and  C_21
REMARK                            x       y       z     vdW  Elec       q    Type
REMARK                         _______ _______ _______ _____ _____    ______ ____
ROOT
ATOM      1  C   UNL     1       2.175   1.216   2.223  0.00  0.00    +0.000 A 
ATOM      2  C   UNL     1       1.575   0.197   2.980  0.00  0.00    +0.000 A 
ATOM      3  C   UNL     1       0.746   0.511   4.060  0.00  0.00    +0.000 A 
ATOM      4  C   UNL     1       0.503   1.849   4.397  0.00  0.00    +0.000 A 
ATOM      5  C   UNL     1       1.154   2.862   3.678  0.00  0.00    +0.000 A 
ATOM      6  C   UNL     1       1.972   2.550   2.592  0.00  0.00    +0.000 A 
ENDROOT
BRANCH   1   7
ATOM      7  C   UNL     1       3.002   0.885   1.007  0.00  0.00    +0.000 C 
BRANCH   7   9
ATOM      8  C   UNL     1       0.861   0.974  -0.359  0.00  0.00    +0.000 C 
ATOM      9  N   UNL     1       2.314   0.859  -0.292  0.00  0.00    +0.000 N 
ATOM     10  C   UNL     1       2.981   0.950  -1.528  0.00  0.00    +0.000 C 
ATOM     11  O   UNL     1       2.355   1.097  -2.577  0.00  0.00    +0.000 OA
BRANCH  10  12
ATOM     12  C   UNL     1       4.444   0.823  -1.575  0.00  0.00    +0.000 A 
ATOM     13  C   UNL     1       5.171  -0.131  -0.881  0.00  0.00    +0.000 A 
ATOM     14  S   UNL     1       6.848  -0.077  -1.194  0.00  0.00    +0.000 S 
ATOM     15  C   UNL     1       6.640   1.127  -2.377  0.00  0.00    +0.000 A 
ATOM     16  N   UNL     1       7.691   1.559  -3.122  0.00  0.00    +0.000 NA
ATOM     17  C   UNL     1       7.372   2.423  -4.030  0.00  0.00    +0.000 A 
ATOM     18  N   UNL     1       6.110   2.916  -4.233  0.00  0.00    +0.000 N 
ATOM     19  C   UNL     1       5.044   2.612  -3.411  0.00  0.00    +0.000 A 
ATOM     20  O   UNL     1       4.002   3.255  -3.466  0.00  0.00    +0.000 OA
ATOM     21  C   UNL     1       5.326   1.550  -2.459  0.00  0.00    +0.000 A 
ATOM     22  H   UNL     1       5.944   3.643  -4.913  0.00  0.00    +0.000 HD
ENDBRANCH  10  12
ENDBRANCH   7   9
ENDBRANCH   1   7
BRANCH   4  23
ATOM     23  C   UNL     1      -0.451   2.202   5.504  0.00  0.00    +0.000 C 
BRANCH  23  24
ATOM     24  N   UNL     1       0.209   2.280   6.779  0.00  0.00    +0.000 N 
ATOM     25  C   UNL     1      -0.464   2.707   7.893  0.00  0.00    +0.000 C 
ATOM     26  O   UNL     1      -1.644   3.051   7.865  0.00  0.00    +0.000 OA
ATOM     27  H   UNL     1       1.150   1.920   6.862  0.00  0.00    +0.000 HD
BRANCH  25  28
ATOM     28  C   UNL     1       0.312   2.719   9.118  0.00  0.00    +0.000 A 
ATOM     29  C   UNL     1       1.641   2.419   9.381  0.00  0.00    +0.000 A 
ATOM     30  C   UNL     1       1.873   2.613  10.762  0.00  0.00    +0.000 A 
ATOM     31  C   UNL     1       0.686   3.026  11.322  0.00  0.00    +0.000 A 
ATOM     32  N   UNL     1      -0.248   3.089  10.324  0.00  0.00    +0.000 N 
ATOM     33  H   UNL     1      -1.217   3.367  10.430  0.00  0.00    +0.000 HD
ENDBRANCH  25  28
ENDBRANCH  23  24
ENDBRANCH   4  23
TORSDOF 6
