REMARK  Name = 
REMARK  6 active torsions:
REMARK  status: ('A' for Active; 'I' for Inactive)
REMARK    1  A    between atoms: C_1  and  C_2
REMARK    2  A    between atoms: C_4  and  C_5
REMARK    3  A    between atoms: C_9  and  C_10
REMARK    4  A    between atoms: C_10  and  N_11
REMARK    5  A    between atoms: C_15  and  C_16
REMARK    6  A    between atoms: C_18  and  C_19
REMARK                            x       y       z     vdW  Elec       q    Type
REMARK                         _______ _______ _______ _____ _____    ______ ____
ROOT
ATOM      1  C   UNL     1      -2.022  -2.404  -0.012  0.00  0.00    +0.000 A 
ATOM      2  C   UNL     1      -1.864  -3.322   1.038  0.00  0.00    +0.000 A 
ATOM      3  C   UNL     1      -2.661  -4.459   1.118  0.00  0.00    +0.000 A 
ATOM      4  C   UNL     1      -3.656  -4.686   0.166  0.00  0.00    +0.000 A 
ATOM      5  C   UNL     1      -3.882  -3.770  -0.871  0.00  0.00    +0.000 A 
ATOM      6  C   UNL     1      -3.022  -2.661  -0.972  0.00  0.00    +0.000 A 
ENDROOT
BRANCH   1  10
ATOM      7  C   UNL     1      -1.311   2.394  -1.323  0.00  0.00    +0.000 C 
ATOM      8  C   UNL     1      -0.832   1.112  -0.712  0.00  0.00    +0.000 A 
ATOM      9  C   UNL     1      -1.663   0.001  -0.644  0.00  0.00    +0.000 A 
ATOM     10  C   UNL     1      -1.188  -1.189  -0.072  0.00  0.00    +0.000 A 
ATOM     11  C   UNL     1       0.120  -1.189   0.425  0.00  0.00    +0.000 A 
ATOM     12  C   UNL     1       0.882  -0.043   0.313  0.00  0.00    +0.000 A 
ATOM     13  N   UNL     1       0.435   1.102  -0.241  0.00  0.00    +0.000 NA
ENDBRANCH   1  10
BRANCH   5  14
ATOM     14  C   UNL     1      -5.067  -3.902  -1.820  0.00  0.00    +0.000 C 
BRANCH  14  15
ATOM     15  N   UNL     1      -4.732  -4.693  -3.010  0.00  0.00    +0.000 N 
ATOM     16  C   UNL     1      -5.782  -4.865  -3.928  0.00  0.00    +0.000 A 
ATOM     17  C   UNL     1      -5.582  -5.610  -5.089  0.00  0.00    +0.000 A 
ATOM     18  C   UNL     1      -6.658  -5.827  -5.950  0.00  0.00    +0.000 A 
ATOM     19  C   UNL     1      -7.912  -5.301  -5.636  0.00  0.00    +0.000 A 
ATOM     20  C   UNL     1      -8.038  -4.561  -4.464  0.00  0.00    +0.000 A 
ATOM     21  C   UNL     1      -9.330  -3.940  -4.019  0.00  0.00    +0.000 C 
ATOM     22  N   UNL     1      -6.988  -4.344  -3.630  0.00  0.00    +0.000 NA
ATOM     23  H   UNL     1      -4.446  -5.635  -2.750  0.00  0.00    +0.000 HD
BRANCH  19  24
ATOM     24  C   UNL     1      -9.012  -5.543  -6.510  0.00  0.00    +0.000 C 
ATOM     25  N   UNL     1      -9.907  -5.746  -7.235  0.00  0.00    +0.000 NA
ENDBRANCH  19  24
ENDBRANCH  14  15
ENDBRANCH   5  14
TORSDOF 4
