REMARK  Name = 
REMARK  4 active torsions:
REMARK  status: ('A' for Active; 'I' for Inactive)
REMARK    1  A    between atoms: C_2  and  C_4
REMARK    2  A    between atoms: C_7  and  O_8
REMARK    3  A    between atoms: O_8  and  C_9
REMARK    4  A    between atoms: C_9  and  C_10
REMARK                            x       y       z     vdW  Elec       q    Type
REMARK                         _______ _______ _______ _____ _____    ______ ____
ROOT
ATOM      1  C   UNL     1       3.190  -1.110   0.735  0.00  0.00    +0.000 A 
ATOM      2  C   UNL     1       2.845  -2.462   0.695  0.00  0.00    +0.000 A 
ATOM      3  C   UNL     1       3.668  -3.396   1.332  0.00  0.00    +0.000 A 
ATOM      4  C   UNL     1       4.790  -2.943   2.019  0.00  0.00    +0.000 A 
ATOM      5  N   UNL     1       5.145  -1.638   2.066  0.00  0.00    +0.000 NA
ATOM      6  C   UNL     1       4.346  -0.759   1.412  0.00  0.00    +0.000 A 
ENDROOT
BRANCH   1   8
ATOM      7  N   UNL     1       1.062  -0.241  -0.066  0.00  0.00    +0.000 N 
ATOM      8  C   UNL     1       2.408  -0.044   0.077  0.00  0.00    +0.000 C 
ATOM      9  O   UNL     1       2.933   0.999  -0.297  0.00  0.00    +0.000 OA
ATOM     10  H   UNL     1       0.531   0.545  -0.421  0.00  0.00    +0.000 HD
ATOM     11  H   UNL     1       0.558  -0.947   0.452  0.00  0.00    +0.000 HD
ENDBRANCH   1   8
BRANCH   4  12
ATOM     12  O   UNL     1       5.592  -3.864   2.657  0.00  0.00    +0.000 OA
BRANCH  12  13
ATOM     13  C   UNL     1       6.353  -3.265   3.722  0.00  0.00    +0.000 C 
BRANCH  13  14
ATOM     14  C   UNL     1       7.319  -4.259   4.340  0.00  0.00    +0.000 A 
ATOM     15  N   UNL     1       7.127  -4.566   5.660  0.00  0.00    +0.000 NA
ATOM     16  C   UNL     1       7.985  -5.442   6.235  0.00  0.00    +0.000 A 
ATOM     17  C   UNL     1       9.040  -6.037   5.566  0.00  0.00    +0.000 A 
ATOM     18  C   UNL     1       9.239  -5.703   4.231  0.00  0.00    +0.000 A 
ATOM     19  C   UNL     1       8.377  -4.799   3.607  0.00  0.00    +0.000 A 
ATOM     20 CL   UNL     1       8.684  -4.389   1.960  0.00  0.00    +0.000 Cl
ENDBRANCH  13  14
ENDBRANCH  12  13
ENDBRANCH   4  12
TORSDOF 4
