REMARK  Name = 
REMARK  4 active torsions:
REMARK  status: ('A' for Active; 'I' for Inactive)
REMARK    1  A    between atoms: C_2  and  C_4
REMARK    2  A    between atoms: C_7  and  C_8
REMARK    3  A    between atoms: C_8  and  C_9
REMARK    4  A    between atoms: C_13  and  C_14
REMARK                            x       y       z     vdW  Elec       q    Type
REMARK                         _______ _______ _______ _____ _____    ______ ____
ROOT
ATOM      1  C   UNL     1       5.059  -4.850   0.251  0.00  0.00    +0.000 C 
ATOM      2  C   UNL     1       5.082  -5.735   1.511  0.00  0.00    +0.000 C 
ATOM      3  C   UNL     1       6.344  -5.132   1.009  0.00  0.00    +0.000 C 
ATOM      4  F   UNL     1       7.254  -6.034   0.471  0.00  0.00    +0.000 F 
ENDROOT
BRANCH   1   8
ATOM      5  C   UNL     1       2.782  -1.290   0.736  0.00  0.00    +0.000 A 
ATOM      6  C   UNL     1       2.275  -2.539   0.959  0.00  0.00    +0.000 A 
ATOM      7  N   UNL     1       2.998  -3.669   0.836  0.00  0.00    +0.000 NA
ATOM      8  C   UNL     1       4.283  -3.556   0.427  0.00  0.00    +0.000 A 
ATOM      9  N   UNL     1       4.870  -2.362   0.174  0.00  0.00    +0.000 NA
ATOM     10  C   UNL     1       4.092  -1.255   0.317  0.00  0.00    +0.000 A 
BRANCH   5  12
ATOM     11  N   UNL     1       0.879  -0.099   1.663  0.00  0.00    +0.000 N 
ATOM     12  C   UNL     1       1.968  -0.067   0.834  0.00  0.00    +0.000 C 
ATOM     13  O   UNL     1       2.265   0.947   0.217  0.00  0.00    +0.000 OA
ATOM     14  H   UNL     1       0.360   0.765   1.767  0.00  0.00    +0.000 HD
ATOM     15  H   UNL     1       0.723  -0.813   2.362  0.00  0.00    +0.000 HD
ENDBRANCH   5  12
ENDBRANCH   1   8
BRANCH   1  16
ATOM     16  C   UNL     1       4.971  -5.510  -1.119  0.00  0.00    +0.000 A 
ATOM     17  C   UNL     1       5.850  -5.151  -2.152  0.00  0.00    +0.000 A 
ATOM     18  C   UNL     1       5.944  -5.919  -3.309  0.00  0.00    +0.000 A 
ATOM     19  C   UNL     1       5.143  -7.052  -3.458  0.00  0.00    +0.000 A 
ATOM     20  C   UNL     1       4.193  -7.402  -2.486  0.00  0.00    +0.000 A 
ATOM     21  C   UNL     1       4.102  -6.591  -1.344  0.00  0.00    +0.000 A 
BRANCH  20  22
ATOM     22  C   UNL     1       3.376  -8.625  -2.596  0.00  0.00    +0.000 A 
ATOM     23  C   UNL     1       3.938  -9.834  -3.024  0.00  0.00    +0.000 A 
ATOM     24  C   UNL     1       3.148 -10.972  -3.066  0.00  0.00    +0.000 A 
ATOM     25  N   UNL     1       1.848 -10.998  -2.711  0.00  0.00    +0.000 NA
ATOM     26  C   UNL     1       1.316  -9.831  -2.297  0.00  0.00    +0.000 A 
ATOM     27  C   UNL     1       2.024  -8.640  -2.227  0.00  0.00    +0.000 A 
ENDBRANCH  20  22
ENDBRANCH   1  16
TORSDOF 4
