REMARK  Name = 
REMARK  7 active torsions:
REMARK  status: ('A' for Active; 'I' for Inactive)
REMARK    1  A    between atoms: C_2  and  C_20
REMARK    2  A    between atoms: N_3  and  C_4
REMARK    3  A    between atoms: C_4  and  C_5
REMARK    4  A    between atoms: C_8  and  C_9
REMARK    5  A    between atoms: C_9  and  N_10
REMARK    6  A    between atoms: N_10  and  C_11
REMARK    7  A    between atoms: C_11  and  C_12
REMARK                            x       y       z     vdW  Elec       q    Type
REMARK                         _______ _______ _______ _____ _____    ______ ____
ROOT
ATOM      1  C   UNL     1       4.662   0.904   2.930  0.00  0.00    +0.000 C 
ENDROOT
BRANCH   1   2
ATOM      2  C   UNL     1       3.260   0.836   3.564  0.00  0.00    +0.000 C 
ATOM      3  C   UNL     1       3.128  -0.318   4.572  0.00  0.00    +0.000 C 
ATOM      4  C   UNL     1       3.958  -0.082   5.832  0.00  0.00    +0.000 C 
ATOM      5  C   UNL     1       3.607   1.250   6.515  0.00  0.00    +0.000 C 
ATOM      6  C   UNL     1       3.693   2.418   5.518  0.00  0.00    +0.000 C 
ATOM      7  C   UNL     1       2.909   2.175   4.231  0.00  0.00    +0.000 C 
BRANCH   5   8
ATOM      8  C   UNL     1       2.231   1.209   7.225  0.00  0.00    +0.000 C 
BRANCH   8   9
ATOM      9  N   UNL     1       2.097   0.184   8.263  0.00  0.00    +0.000 NA
ATOM     10  H   UNL     1       2.219  -0.742   7.859  0.00  0.00    +0.000 HD
BRANCH   9  11
ATOM     11  C   UNL     1       3.053   0.367   9.354  0.00  0.00    +0.000 C 
BRANCH  11  12
ATOM     12  C   UNL     1       2.987  -0.762  10.348  0.00  0.00    +0.000 A 
ATOM     13  C   UNL     1       4.119  -1.540  10.613  0.00  0.00    +0.000 A 
ATOM     14  C   UNL     1       4.025  -2.547  11.559  0.00  0.00    +0.000 A 
ATOM     15  N   UNL     1       2.899  -2.828  12.245  0.00  0.00    +0.000 NA
ATOM     16  C   UNL     1       1.816  -2.068  11.971  0.00  0.00    +0.000 A 
ATOM     17  C   UNL     1       1.809  -1.038  11.045  0.00  0.00    +0.000 A 
ENDBRANCH  11  12
ENDBRANCH   9  11
ENDBRANCH   8   9
ENDBRANCH   5   8
ENDBRANCH   1   2
BRANCH   1  20
ATOM     18  O   UNL     1       3.887   0.264   0.301  0.00  0.00    +0.000 OA
ATOM     19  C   UNL     1       4.592  -0.528   0.919  0.00  0.00    +0.000 C 
ATOM     20  N   UNL     1       4.996  -0.297   2.206  0.00  0.00    +0.000 N 
ATOM     21  H   UNL     1       5.617  -0.954   2.668  0.00  0.00    +0.000 HD
BRANCH  19  22
ATOM     22  C   UNL     1       5.023  -1.798   0.325  0.00  0.00    +0.000 A 
ATOM     23  C   UNL     1       4.345  -2.305  -0.775  0.00  0.00    +0.000 A 
ATOM     24  S   UNL     1       4.986  -3.774  -1.355  0.00  0.00    +0.000 S 
ATOM     25  C   UNL     1       6.213  -3.767  -0.176  0.00  0.00    +0.000 A 
ATOM     26  N   UNL     1       7.151  -4.750  -0.140  0.00  0.00    +0.000 NA
ATOM     27  C   UNL     1       8.043  -4.606   0.783  0.00  0.00    +0.000 A 
ATOM     28  N   UNL     1       8.075  -3.574   1.684  0.00  0.00    +0.000 N 
ATOM     29  C   UNL     1       7.107  -2.597   1.731  0.00  0.00    +0.000 A 
ATOM     30  O   UNL     1       7.096  -1.766   2.634  0.00  0.00    +0.000 OA
ATOM     31  C   UNL     1       6.114  -2.681   0.676  0.00  0.00    +0.000 A 
ATOM     32  H   UNL     1       8.779  -3.539   2.404  0.00  0.00    +0.000 HD
ENDBRANCH  19  22
ENDBRANCH   1  20
TORSDOF 7
