REMARK  Name = 
REMARK  7 active torsions:
REMARK  status: ('A' for Active; 'I' for Inactive)
REMARK    1  A    between atoms: C_1  and  N_2
REMARK    2  A    between atoms: N_2  and  C_3
REMARK    3  A    between atoms: C_3  and  C_4
REMARK    4  A    between atoms: C_7  and  C_8
REMARK    5  A    between atoms: C_8  and  O_9
REMARK    6  A    between atoms: O_9  and  C_10
REMARK    7  A    between atoms: C_13  and  C_14
REMARK                            x       y       z     vdW  Elec       q    Type
REMARK                         _______ _______ _______ _____ _____    ______ ____
ROOT
ATOM      1  C   UNL     1       8.791  -1.145   1.011  0.00  0.00    +0.000 C 
ENDROOT
BRANCH   1   5
ATOM      2  C   UNL     1       4.456  -1.200   0.898  0.00  0.00    +0.000 A 
ATOM      3  C   UNL     1       5.209  -2.030   0.052  0.00  0.00    +0.000 A 
ATOM      4  C   UNL     1       6.607  -2.024   0.100  0.00  0.00    +0.000 A 
ATOM      5  C   UNL     1       7.287  -1.169   0.977  0.00  0.00    +0.000 A 
ATOM      6  C   UNL     1       6.533  -0.340   1.809  0.00  0.00    +0.000 A 
ATOM      7  F   UNL     1       7.150   0.506   2.646  0.00  0.00    +0.000 F 
ATOM      8  C   UNL     1       5.138  -0.348   1.776  0.00  0.00    +0.000 A 
BRANCH   2   9
ATOM      9  C   UNL     1       2.944  -1.208   0.852  0.00  0.00    +0.000 C 
BRANCH   9  11
ATOM     10  C   UNL     1       0.951  -2.526   1.144  0.00  0.00    +0.000 C 
ATOM     11  N   UNL     1       2.405  -2.528   1.183  0.00  0.00    +0.000 NA
ATOM     12  H   UNL     1       2.755  -3.211   0.514  0.00  0.00    +0.000 HD
ENDBRANCH   9  11
ENDBRANCH   2   9
ENDBRANCH   1   5
BRANCH   1  13
ATOM     13  O   UNL     1       9.268  -2.112   1.949  0.00  0.00    +0.000 OA
BRANCH  13  14
ATOM     14  C   UNL     1      10.624  -2.197   2.105  0.00  0.00    +0.000 A 
ATOM     15  C   UNL     1      11.585  -1.480   1.396  0.00  0.00    +0.000 A 
ATOM     16  C   UNL     1      12.939  -1.671   1.676  0.00  0.00    +0.000 A 
ATOM     17  C   UNL     1      13.291  -2.585   2.661  0.00  0.00    +0.000 A 
ATOM     18  N   UNL     1      12.386  -3.312   3.372  0.00  0.00    +0.000 NA
ATOM     19  C   UNL     1      11.081  -3.093   3.072  0.00  0.00    +0.000 A 
BRANCH  17  20
ATOM     20  C   UNL     1      14.738  -2.797   2.988  0.00  0.00    +0.000 C 
ATOM     21  N   UNL     1      14.993  -3.709   3.975  0.00  0.00    +0.000 N 
ATOM     22  O   UNL     1      15.640  -2.197   2.415  0.00  0.00    +0.000 OA
ATOM     23  H   UNL     1      14.219  -4.178   4.435  0.00  0.00    +0.000 HD
ATOM     24  H   UNL     1      15.945  -3.889   4.256  0.00  0.00    +0.000 HD
ENDBRANCH  17  20
ENDBRANCH  13  14
ENDBRANCH   1  13
TORSDOF 6
