REMARK  Name = 
REMARK  6 active torsions:
REMARK  status: ('A' for Active; 'I' for Inactive)
REMARK    1  A    between atoms: C_1  and  C_2
REMARK    2  A    between atoms: C_4  and  C_5
REMARK    3  A    between atoms: C_4  and  C_6
REMARK    4  A    between atoms: C_13  and  C_14
REMARK    5  A    between atoms: C_15  and  C_16
REMARK    6  A    between atoms: C_19  and  C_20
REMARK                            x       y       z     vdW  Elec       q    Type
REMARK                         _______ _______ _______ _____ _____    ______ ____
ROOT
ATOM      1  C   UNL     1       0.954  -0.064  -0.114  0.00  0.00    +0.000 C 
ATOM      2  C   UNL     1       2.447   0.008   0.179  0.00  0.00    +0.000 C 
ATOM      3  C   UNL     1       3.054  -1.270   0.760  0.00  0.00    +0.000 C 
ATOM      4  C   UNL     1       4.415  -0.857   1.429  0.00  0.00    +0.000 C 
ATOM      5  C   UNL     1       4.401  -1.309   2.914  0.00  0.00    +0.000 C 
ATOM      6  C   UNL     1       4.408   0.724   1.378  0.00  0.00    +0.000 C 
ATOM      7  C   UNL     1       5.304   1.335   0.284  0.00  0.00    +0.000 C 
ATOM      8  C   UNL     1       2.919   1.131   1.116  0.00  0.00    +0.000 C 
ENDROOT
BRANCH   4   9
ATOM      9  C   UNL     1       5.614  -1.550   0.758  0.00  0.00    +0.000 A 
ATOM     10  C   UNL     1       6.912  -1.406   1.239  0.00  0.00    +0.000 A 
ATOM     11  C   UNL     1       7.935  -2.111   0.618  0.00  0.00    +0.000 A 
ATOM     12  F   UNL     1       9.189  -1.984   1.070  0.00  0.00    +0.000 F 
ATOM     13  C   UNL     1       7.683  -2.947  -0.453  0.00  0.00    +0.000 A 
ATOM     14  C   UNL     1       6.378  -3.039  -0.875  0.00  0.00    +0.000 A 
ATOM     15  N   UNL     1       5.361  -2.361  -0.300  0.00  0.00    +0.000 NA
ENDBRANCH   4   9
BRANCH   8  16
ATOM     16  C   UNL     1       2.112   1.402   2.379  0.00  0.00    +0.000 A 
ATOM     17  C   UNL     1       2.041   2.707   2.890  0.00  0.00    +0.000 A 
ATOM     18  C   UNL     1       1.294   2.979   4.039  0.00  0.00    +0.000 A 
ATOM     19  C   UNL     1       0.646   1.926   4.666  0.00  0.00    +0.000 A 
ATOM     20  N   UNL     1       0.684   0.648   4.213  0.00  0.00    +0.000 NA
ATOM     21  C   UNL     1       1.399   0.435   3.087  0.00  0.00    +0.000 A 
BRANCH  19  22
ATOM     22  C   UNL     1      -0.127   2.143   5.928  0.00  0.00    +0.000 C 
ATOM     23  N   UNL     1      -0.675   1.016   6.476  0.00  0.00    +0.000 N 
ATOM     24  O   UNL     1      -0.253   3.244   6.447  0.00  0.00    +0.000 OA
ATOM     25  H   UNL     1      -0.524   0.119   6.024  0.00  0.00    +0.000 HD
ATOM     26  H   UNL     1      -1.176   1.071   7.352  0.00  0.00    +0.000 HD
ENDBRANCH  19  22
ENDBRANCH   8  16
TORSDOF 3
