REMARK  Name = 
REMARK  11 active torsions:
REMARK  status: ('A' for Active; 'I' for Inactive)
REMARK    1  A    between atoms: C_1  and  O_2
REMARK    2  A    between atoms: O_2  and  C_3
REMARK    3  A    between atoms: C_5  and  C_6
REMARK    4  A    between atoms: C_11  and  O_12
REMARK    5  A    between atoms: O_12  and  C_13
REMARK    6  A    between atoms: C_13  and  C_14
REMARK    7  A    between atoms: C_19  and  C_20
REMARK    8  A    between atoms: C_23  and  O_24
REMARK    9  A    between atoms: O_24  and  C_25
REMARK   10  A    between atoms: C_25  and  C_26
REMARK   11  A    between atoms: C_26  and  O_27
REMARK                            x       y       z     vdW  Elec       q    Type
REMARK                         _______ _______ _______ _____ _____    ______ ____
ROOT
ATOM      1  C   UNL     1       4.431  -0.038  -3.562  0.00  0.00    +0.000 A 
ATOM      2  C   UNL     1       4.932   1.002  -4.347  0.00  0.00    +0.000 A 
ATOM      3  C   UNL     1       5.502   0.719  -5.586  0.00  0.00    +0.000 A 
ATOM      4  C   UNL     1       5.609  -0.603  -6.028  0.00  0.00    +0.000 A 
ATOM      5  F   UNL     1       6.204  -0.806  -7.214  0.00  0.00    +0.000 F 
ATOM      6  C   UNL     1       5.145  -1.684  -5.261  0.00  0.00    +0.000 A 
ATOM      7  C   UNL     1       4.530  -1.357  -4.035  0.00  0.00    +0.000 A 
ENDROOT
BRANCH   6   8
ATOM      8  C   UNL     1       5.304  -3.106  -5.658  0.00  0.00    +0.000 A 
ATOM      9  C   UNL     1       5.443  -4.107  -4.675  0.00  0.00    +0.000 A 
ATOM     10  C   UNL     1       5.566  -5.461  -5.000  0.00  0.00    +0.000 A 
ATOM     11  C   UNL     1       5.576  -5.859  -6.331  0.00  0.00    +0.000 A 
ATOM     12  C   UNL     1       5.486  -4.888  -7.326  0.00  0.00    +0.000 A 
ATOM     13  C   UNL     1       5.334  -3.532  -6.995  0.00  0.00    +0.000 A 
BRANCH  11  14
ATOM     14  O   UNL     1       5.715  -7.150  -6.760  0.00  0.00    +0.000 OA
BRANCH  14  15
ATOM     15  C   UNL     1       5.228  -8.151  -5.855  0.00  0.00    +0.000 C 
BRANCH  15  16
ATOM     16  C   UNL     1       5.420  -9.514  -6.513  0.00  0.00    +0.000 C 
BRANCH  16  17
ATOM     17  O   UNL     1       6.811  -9.778  -6.695  0.00  0.00    +0.000 OA
ATOM     18  H   UNL     1       7.171  -9.005  -7.170  0.00  0.00    +0.000 HD
ENDBRANCH  16  17
ENDBRANCH  15  16
ENDBRANCH  14  15
ENDBRANCH  11  14
ENDBRANCH   6   8
BRANCH   1  19
ATOM     19  C   UNL     1       3.810   0.217  -2.209  0.00  0.00    +0.000 C 
BRANCH  19  20
ATOM     20  O   UNL     1       4.814   0.070  -1.206  0.00  0.00    +0.000 OA
BRANCH  20  26
ATOM     21  C   UNL     1       3.184   0.566   0.624  0.00  0.00    +0.000 A 
ATOM     22  C   UNL     1       3.040   0.780   2.002  0.00  0.00    +0.000 A 
ATOM     23  C   UNL     1       4.139   0.728   2.875  0.00  0.00    +0.000 A 
ATOM     24  C   UNL     1       5.405   0.451   2.354  0.00  0.00    +0.000 A 
ATOM     25  C   UNL     1       5.557   0.237   0.979  0.00  0.00    +0.000 A 
ATOM     26  C   UNL     1       4.462   0.295   0.103  0.00  0.00    +0.000 A 
BRANCH  23  27
ATOM     27  C   UNL     1       3.873   0.977   4.320  0.00  0.00    +0.000 C 
ATOM     28  N   UNL     1       4.910   0.908   5.207  0.00  0.00    +0.000 N 
ATOM     29  O   UNL     1       2.746   1.243   4.724  0.00  0.00    +0.000 OA
ATOM     30  H   UNL     1       5.865   0.679   4.976  0.00  0.00    +0.000 HD
ATOM     31  H   UNL     1       4.685   1.077   6.178  0.00  0.00    +0.000 HD
ENDBRANCH  23  27
BRANCH  21  33
ATOM     32  C   UNL     1       0.945   1.261   0.159  0.00  0.00    +0.000 C 
ATOM     33  O   UNL     1       2.111   0.542  -0.226  0.00  0.00    +0.000 OA
ENDBRANCH  21  33
ENDBRANCH  20  26
ENDBRANCH  19  20
ENDBRANCH   1  19
TORSDOF 10
