REMARK  Name = 
REMARK  4 active torsions:
REMARK  status: ('A' for Active; 'I' for Inactive)
REMARK    1  A    between atoms: C_2  and  C_4
REMARK    2  A    between atoms: C_7  and  O_8
REMARK    3  A    between atoms: O_8  and  C_9
REMARK    4  A    between atoms: C_9  and  C_10
REMARK                            x       y       z     vdW  Elec       q    Type
REMARK                         _______ _______ _______ _____ _____    ______ ____
ROOT
ATOM      1  C   UNL     1       2.820   0.794  -1.479  0.00  0.00    +0.000 A 
ATOM      2  C   UNL     1       4.137   0.390  -1.335  0.00  0.00    +0.000 A 
ATOM      3  C   UNL     1       5.018   0.515  -2.418  0.00  0.00    +0.000 A 
ATOM      4  C   UNL     1       4.525   1.057  -3.611  0.00  0.00    +0.000 A 
ATOM      5  C   UNL     1       3.183   1.401  -3.652  0.00  0.00    +0.000 A 
ATOM      6  N   UNL     1       2.308   1.303  -2.638  0.00  0.00    +0.000 NA
ENDROOT
BRANCH   1   8
ATOM      7  N   UNL     1       0.565   1.082  -0.571  0.00  0.00    +0.000 N 
ATOM      8  C   UNL     1       1.854   0.688  -0.344  0.00  0.00    +0.000 C 
ATOM      9  O   UNL     1       2.188   0.242   0.756  0.00  0.00    +0.000 OA
ATOM     10  H   UNL     1      -0.101   0.902   0.159  0.00  0.00    +0.000 HD
ATOM     11  H   UNL     1       0.234   1.217  -1.522  0.00  0.00    +0.000 HD
ENDBRANCH   1   8
BRANCH   4  12
ATOM     12  O   UNL     1       5.339   1.217  -4.709  0.00  0.00    +0.000 OA
BRANCH  12  13
ATOM     13  C   UNL     1       4.915   2.296  -5.587  0.00  0.00    +0.000 C 
BRANCH  13  14
ATOM     14  C   UNL     1       6.101   2.851  -6.330  0.00  0.00    +0.000 A 
ATOM     15  C   UNL     1       6.137   4.206  -6.698  0.00  0.00    +0.000 A 
ATOM     16  C   UNL     1       7.224   4.719  -7.408  0.00  0.00    +0.000 A 
ATOM     17  C   UNL     1       8.278   3.881  -7.766  0.00  0.00    +0.000 A 
ATOM     18  C   UNL     1       8.232   2.537  -7.417  0.00  0.00    +0.000 A 
ATOM     19  F   UNL     1       9.240   1.729  -7.771  0.00  0.00    +0.000 F 
ATOM     20  C   UNL     1       7.158   2.017  -6.716  0.00  0.00    +0.000 A 
ENDBRANCH  13  14
ENDBRANCH  12  13
ENDBRANCH   4  12
TORSDOF 4
