REMARK  Name = 
REMARK  4 active torsions:
REMARK  status: ('A' for Active; 'I' for Inactive)
REMARK    1  A    between atoms: C_2  and  C_3
REMARK    2  A    between atoms: C_6  and  C_7
REMARK    3  A    between atoms: C_7  and  N_8
REMARK    4  A    between atoms: C_13  and  C_14
REMARK                            x       y       z     vdW  Elec       q    Type
REMARK                         _______ _______ _______ _____ _____    ______ ____
ROOT
ATOM      1  N   UNL     1      -4.250   1.479  -0.235  0.00  0.00    +0.000 N 
ATOM      2  C   UNL     1      -5.063   2.074   0.694  0.00  0.00    +0.000 A 
ATOM      3  N   UNL     1      -5.287   3.336   0.405  0.00  0.00    +0.000 NA
ATOM      4  C   UNL     1      -4.580   3.575  -0.747  0.00  0.00    +0.000 A 
ATOM      5  C   UNL     1      -4.432   4.776  -1.462  0.00  0.00    +0.000 A 
ATOM      6  C   UNL     1      -3.631   4.781  -2.615  0.00  0.00    +0.000 A 
ATOM      7  C   UNL     1      -3.008   3.595  -3.040  0.00  0.00    +0.000 A 
ATOM      8  C   UNL     1      -3.149   2.391  -2.341  0.00  0.00    +0.000 A 
ATOM      9  C   UNL     1      -3.935   2.424  -1.186  0.00  0.00    +0.000 A 
ENDROOT
BRANCH   6  10
ATOM     10  C   UNL     1      -3.390   6.009  -3.426  0.00  0.00    +0.000 C 
ATOM     11  N   UNL     1      -3.974   7.180  -3.037  0.00  0.00    +0.000 N 
ATOM     12  O   UNL     1      -2.682   5.983  -4.426  0.00  0.00    +0.000 OA
ATOM     13  H   UNL     1      -4.579   7.297  -2.240  0.00  0.00    +0.000 HD
ATOM     14  H   UNL     1      -3.797   7.990  -3.617  0.00  0.00    +0.000 HD
ENDBRANCH   6  10
BRANCH   1  15
ATOM     15  C   UNL     1      -3.692   0.143  -0.124  0.00  0.00    +0.000 C 
BRANCH  15  19
ATOM     16  C   UNL     1      -6.382  -2.855  -1.528  0.00  0.00    +0.000 A 
ATOM     17  C   UNL     1      -5.907  -1.913  -2.438  0.00  0.00    +0.000 A 
ATOM     18  C   UNL     1      -5.001  -0.942  -2.010  0.00  0.00    +0.000 A 
ATOM     19  C   UNL     1      -4.617  -0.915  -0.669  0.00  0.00    +0.000 A 
ATOM     20  N   UNL     1      -5.048  -1.849   0.218  0.00  0.00    +0.000 NA
ATOM     21  C   UNL     1      -5.911  -2.796  -0.228  0.00  0.00    +0.000 A 
BRANCH  16  23
ATOM     22  N   UNL     1      -8.116  -4.647  -2.219  0.00  0.00    +0.000 NA
ATOM     23  C   UNL     1      -7.335  -3.844  -1.910  0.00  0.00    +0.000 C 
ENDBRANCH  16  23
ENDBRANCH  15  19
ENDBRANCH   1  15
TORSDOF 4
