REMARK  Name = 
REMARK  6 active torsions:
REMARK  status: ('A' for Active; 'I' for Inactive)
REMARK    1  A    between atoms: C_2  and  C_19
REMARK    2  A    between atoms: N_3  and  C_4
REMARK    3  A    between atoms: C_4  and  C_5
REMARK    4  A    between atoms: C_8  and  C_9
REMARK    5  A    between atoms: C_9  and  O_10
REMARK    6  A    between atoms: C_9  and  C_11
REMARK                            x       y       z     vdW  Elec       q    Type
REMARK                         _______ _______ _______ _____ _____    ______ ____
ROOT
ATOM      1  C   UNL     1       2.287  -2.363  -0.557  0.00  0.00    +0.000 C 
ENDROOT
BRANCH   1   2
ATOM      2  C   UNL     1       3.286  -3.475  -0.800  0.00  0.00    +0.000 A 
ATOM      3  C   UNL     1       4.576  -3.196  -1.247  0.00  0.00    +0.000 A 
ATOM      4  C   UNL     1       5.465  -4.252  -1.479  0.00  0.00    +0.000 A 
ATOM      5  C   UNL     1       5.060  -5.574  -1.261  0.00  0.00    +0.000 A 
ATOM      6  C   UNL     1       3.751  -5.755  -0.828  0.00  0.00    +0.000 A 
ATOM      7  N   UNL     1       2.873  -4.749  -0.578  0.00  0.00    +0.000 NA
BRANCH   5   8
ATOM      8  C   UNL     1       5.984  -6.763  -1.455  0.00  0.00    +0.000 C 
BRANCH   8   9
ATOM      9  C   UNL     1       7.188  -6.751  -0.525  0.00  0.00    +0.000 A 
ATOM     10  C   UNL     1       7.004  -6.789   0.863  0.00  0.00    +0.000 A 
ATOM     11  C   UNL     1       8.107  -6.643   1.691  0.00  0.00    +0.000 A 
ATOM     12  N   UNL     1       9.371  -6.502   1.243  0.00  0.00    +0.000 NA
ATOM     13  C   UNL     1       9.543  -6.531  -0.094  0.00  0.00    +0.000 A 
ATOM     14  C   UNL     1       8.503  -6.658  -1.002  0.00  0.00    +0.000 A 
ENDBRANCH   8   9
BRANCH   8  15
ATOM     15  O   UNL     1       6.414  -6.814  -2.817  0.00  0.00    +0.000 OA
ATOM     16  H   UNL     1       6.583  -5.902  -3.102  0.00  0.00    +0.000 HD
ENDBRANCH   8  15
ENDBRANCH   5   8
ENDBRANCH   1   2
BRANCH   1  19
ATOM     17  O   UNL     1       0.710  -0.250   0.459  0.00  0.00    +0.000 OA
ATOM     18  C   UNL     1       1.516  -0.797   1.190  0.00  0.00    +0.000 C 
ATOM     19  N   UNL     1       2.282  -1.872   0.799  0.00  0.00    +0.000 N 
ATOM     20  H   UNL     1       2.795  -2.403   1.488  0.00  0.00    +0.000 HD
BRANCH  18  21
ATOM     21  C   UNL     1       1.724  -0.389   2.583  0.00  0.00    +0.000 A 
ATOM     22  C   UNL     1       0.712   0.163   3.350  0.00  0.00    +0.000 A 
ATOM     23  S   UNL     1       1.202   0.508   4.952  0.00  0.00    +0.000 S 
ATOM     24  C   UNL     1       2.786  -0.040   4.651  0.00  0.00    +0.000 A 
ATOM     25  N   UNL     1       3.738  -0.037   5.621  0.00  0.00    +0.000 NA
ATOM     26  C   UNL     1       4.885  -0.497   5.241  0.00  0.00    +0.000 A 
ATOM     27  N   UNL     1       5.170  -0.953   3.979  0.00  0.00    +0.000 N 
ATOM     28  C   UNL     1       4.269  -0.891   2.952  0.00  0.00    +0.000 A 
ATOM     29  O   UNL     1       4.610  -1.195   1.807  0.00  0.00    +0.000 OA
ATOM     30  C   UNL     1       2.943  -0.458   3.341  0.00  0.00    +0.000 A 
ATOM     31  H   UNL     1       6.097  -1.263   3.731  0.00  0.00    +0.000 HD
ENDBRANCH  18  21
ENDBRANCH   1  19
TORSDOF 6
