REMARK  Name = 
REMARK  10 active torsions:
REMARK  status: ('A' for Active; 'I' for Inactive)
REMARK    1  A    between atoms: N_1  and  C_2
REMARK    2  A    between atoms: C_2  and  C_3
REMARK    3  A    between atoms: C_3  and  N_4
REMARK    4  A    between atoms: C_3  and  C_21
REMARK    5  A    between atoms: N_4  and  C_5
REMARK    6  A    between atoms: C_5  and  C_6
REMARK    7  A    between atoms: C_10  and  C_11
REMARK    8  A    between atoms: C_11  and  O_12
REMARK    9  A    between atoms: O_12  and  C_13
REMARK   10  A    between atoms: C_13  and  C_14
REMARK                            x       y       z     vdW  Elec       q    Type
REMARK                         _______ _______ _______ _____ _____    ______ ____
ROOT
ATOM      1  N   UNL     1       2.438   0.083   0.116  0.00  0.00    +0.000 NA
ATOM      2  H   UNL     1       2.234  -0.889   0.354  0.00  0.00    +0.000 HD
ENDROOT
BRANCH   1   3
ATOM      3  C   UNL     1       2.966   0.746   1.328  0.00  0.00    +0.000 C 
BRANCH   3   4
ATOM      4  C   UNL     1       1.931   0.559   2.434  0.00  0.00    +0.000 A 
ATOM      5  C   UNL     1       0.555   0.529   2.252  0.00  0.00    +0.000 A 
ATOM      6  S   UNL     1      -0.320   0.309   3.701  0.00  0.00    +0.000 S 
ATOM      7  C   UNL     1       1.108   0.257   4.626  0.00  0.00    +0.000 A 
ATOM      8  N   UNL     1       1.069   0.084   5.975  0.00  0.00    +0.000 NA
ATOM      9  C   UNL     1       2.230   0.076   6.541  0.00  0.00    +0.000 A 
ATOM     10  N   UNL     1       3.425   0.225   5.883  0.00  0.00    +0.000 N 
ATOM     11  C   UNL     1       3.518   0.389   4.519  0.00  0.00    +0.000 A 
ATOM     12  O   UNL     1       4.609   0.487   3.961  0.00  0.00    +0.000 OA
ATOM     13  C   UNL     1       2.235   0.405   3.838  0.00  0.00    +0.000 A 
ATOM     14  H   UNL     1       4.298   0.205   6.388  0.00  0.00    +0.000 HD
ENDBRANCH   3   4
BRANCH   3  15
ATOM     15  C   UNL     1       3.293   2.256   1.094  0.00  0.00    +0.000 C 
BRANCH  15  16
ATOM     16  N   UNL     1       3.868   2.960   2.248  0.00  0.00    +0.000 NA
ATOM     17  H   UNL     1       4.171   3.889   1.958  0.00  0.00    +0.000 HD
ATOM     18  H   UNL     1       4.705   2.463   2.564  0.00  0.00    +0.000 HD
ENDBRANCH  15  16
ENDBRANCH   3  15
ENDBRANCH   1   3
BRANCH   1  19
ATOM     19  C   UNL     1       3.382   0.085  -1.000  0.00  0.00    +0.000 C 
BRANCH  19  20
ATOM     20  C   UNL     1       2.823  -0.658  -2.186  0.00  0.00    +0.000 A 
ATOM     21  C   UNL     1       1.628  -0.258  -2.789  0.00  0.00    +0.000 A 
ATOM     22  C   UNL     1       1.168  -0.965  -3.887  0.00  0.00    +0.000 A 
ATOM     23  N   UNL     1       1.809  -2.027  -4.423  0.00  0.00    +0.000 NA
ATOM     24  C   UNL     1       2.963  -2.418  -3.827  0.00  0.00    +0.000 A 
ATOM     25  C   UNL     1       3.501  -1.753  -2.725  0.00  0.00    +0.000 A 
BRANCH  24  26
ATOM     26  C   UNL     1       3.672  -3.627  -4.390  0.00  0.00    +0.000 C 
BRANCH  26  27
ATOM     27  O   UNL     1       3.835  -4.595  -3.353  0.00  0.00    +0.000 OA
BRANCH  27  28
ATOM     28  C   UNL     1       4.465  -5.782  -3.825  0.00  0.00    +0.000 C 
BRANCH  28  29
ATOM     29  C   UNL     1       4.580  -6.777  -2.705  0.00  0.00    +0.000 A 
ATOM     30  C   UNL     1       3.639  -6.864  -1.674  0.00  0.00    +0.000 A 
ATOM     31  C   UNL     1       3.788  -7.822  -0.675  0.00  0.00    +0.000 A 
ATOM     32  C   UNL     1       4.872  -8.679  -0.747  0.00  0.00    +0.000 A 
ATOM     33  N   UNL     1       5.791  -8.645  -1.735  0.00  0.00    +0.000 NA
ATOM     34  C   UNL     1       5.621  -7.701  -2.689  0.00  0.00    +0.000 A 
ENDBRANCH  28  29
ENDBRANCH  27  28
ENDBRANCH  26  27
ENDBRANCH  24  26
ENDBRANCH  19  20
ENDBRANCH   1  19
TORSDOF 10
