REMARK  Name = 
REMARK  5 active torsions:
REMARK  status: ('A' for Active; 'I' for Inactive)
REMARK    1  A    between atoms: C_2  and  C_4
REMARK    2  A    between atoms: N_8  and  CA_9
REMARK    3  A    between atoms: CA_9  and  C_10
REMARK    4  A    between atoms: CA_9  and  C_12
REMARK    5  A    between atoms: C_10  and  O_11
REMARK                            x       y       z     vdW  Elec       q    Type
REMARK                         _______ _______ _______ _____ _____    ______ ____
ROOT
ATOM      1  C   UNL     1       2.562  -1.328   5.787  0.00  0.00    +0.000 A 
ATOM      2  C   UNL     1       2.200  -0.156   5.126  0.00  0.00    +0.000 A 
ATOM      3  C   UNL     1       3.101   0.910   5.079  0.00  0.00    +0.000 A 
ATOM      4  C   UNL     1       4.328   0.801   5.717  0.00  0.00    +0.000 A 
ATOM      5  N   UNL     1       5.254   1.794   5.805  0.00  0.00    +0.000 N 
ATOM      6  N   UNL     1       4.696  -0.333   6.344  0.00  0.00    +0.000 NA
ATOM      7  C   UNL     1       3.821  -1.369   6.365  0.00  0.00    +0.000 A 
ATOM      8  H   UNL     1       5.998   1.538   6.437  0.00  0.00    +0.000 HD
ENDROOT
BRANCH   1  10
ATOM      9  N   UNL     1       0.581  -2.600   5.138  0.00  0.00    +0.000 N 
ATOM     10  C   UNL     1       1.672  -2.499   5.956  0.00  0.00    +0.000 C 
ATOM     11  O   UNL     1       1.900  -3.354   6.797  0.00  0.00    +0.000 OA
ATOM     12  H   UNL     1       0.020  -3.434   5.248  0.00  0.00    +0.000 HD
ATOM     13  H   UNL     1       0.446  -2.046   4.310  0.00  0.00    +0.000 HD
ENDBRANCH   1  10
BRANCH   5  14
ATOM     14  CA  UNL     1       5.300   3.068   5.101  0.00  0.00    +0.000 C 
BRANCH  14  15
ATOM     15  C   UNL     1       6.231   4.052   5.808  0.00  0.00    +0.000 A 
ATOM     16  C   UNL     1       5.952   5.429   5.737  0.00  0.00    +0.000 A 
ATOM     17  C   UNL     1       6.743   6.359   6.416  0.00  0.00    +0.000 A 
ATOM     18  C   UNL     1       7.826   5.931   7.179  0.00  0.00    +0.000 A 
ATOM     19  C   UNL     1       8.148   4.579   7.225  0.00  0.00    +0.000 A 
ATOM     20  C   UNL     1       7.372   3.650   6.527  0.00  0.00    +0.000 A 
ENDBRANCH  14  15
BRANCH  14  21
ATOM     21  C   UNL     1       5.709   2.864   3.622  0.00  0.00    +0.000 C 
BRANCH  21  22
ATOM     22  O   UNL     1       6.980   2.223   3.488  0.00  0.00    +0.000 OA
ATOM     23  H   UNL     1       6.990   1.516   4.160  0.00  0.00    +0.000 HD
ENDBRANCH  21  22
ENDBRANCH  14  21
ENDBRANCH   5  14
TORSDOF 5
