REMARK  Name = 
REMARK  9 active torsions:
REMARK  status: ('A' for Active; 'I' for Inactive)
REMARK    1  A    between atoms: N_1  and  C_2
REMARK    2  A    between atoms: C_2  and  C_3
REMARK    3  A    between atoms: C_3  and  C_4
REMARK    4  A    between atoms: C_4  and  N_5
REMARK    5  A    between atoms: C_4  and  C_18
REMARK    6  A    between atoms: C_6  and  C_8
REMARK    7  A    between atoms: C_21  and  O_22
REMARK    8  A    between atoms: O_22  and  C_23
REMARK    9  A    between atoms: C_23  and  C_24
REMARK                            x       y       z     vdW  Elec       q    Type
REMARK                         _______ _______ _______ _____ _____    ______ ____
ROOT
ATOM      1  C   UNL     1       4.418   0.635  -1.240  0.00  0.00    +0.000 C 
ENDROOT
BRANCH   1   2
ATOM      2  C   UNL     1       5.056   1.304  -2.462  0.00  0.00    +0.000 A 
ATOM      3  C   UNL     1       5.395   2.667  -2.400  0.00  0.00    +0.000 A 
ATOM      4  C   UNL     1       5.844   3.361  -3.531  0.00  0.00    +0.000 A 
ATOM      5  C   UNL     1       6.008   2.692  -4.741  0.00  0.00    +0.000 A 
ATOM      6  C   UNL     1       5.698   1.333  -4.812  0.00  0.00    +0.000 A 
ATOM      7  C   UNL     1       5.222   0.643  -3.689  0.00  0.00    +0.000 A 
BRANCH   5   8
ATOM      8  O   UNL     1       6.401   3.264  -5.919  0.00  0.00    +0.000 OA
BRANCH   8   9
ATOM      9  C   UNL     1       7.198   4.451  -5.820  0.00  0.00    +0.000 C 
BRANCH   9  10
ATOM     10  C   UNL     1       7.581   4.949  -7.200  0.00  0.00    +0.000 A 
ATOM     11  C   UNL     1       6.693   4.844  -8.271  0.00  0.00    +0.000 A 
ATOM     12  C   UNL     1       7.071   5.337  -9.517  0.00  0.00    +0.000 A 
ATOM     13  C   UNL     1       8.313   5.939  -9.663  0.00  0.00    +0.000 A 
ATOM     14  C   UNL     1       9.128   6.029  -8.547  0.00  0.00    +0.000 A 
ATOM     15  N   UNL     1       8.791   5.556  -7.326  0.00  0.00    +0.000 NA
ENDBRANCH   9  10
ENDBRANCH   8   9
ENDBRANCH   5   8
ENDBRANCH   1   2
BRANCH   1  16
ATOM     16  N   UNL     1       4.873  -0.743  -1.101  0.00  0.00    +0.000 N 
ATOM     17  C   UNL     1       4.578  -1.539  -0.020  0.00  0.00    +0.000 C 
ATOM     18  O   UNL     1       3.823  -1.194   0.884  0.00  0.00    +0.000 OA
ATOM     19  H   UNL     1       5.714  -0.970  -1.619  0.00  0.00    +0.000 HD
BRANCH  17  20
ATOM     20  C   UNL     1       5.195  -2.871  -0.025  0.00  0.00    +0.000 A 
ATOM     21  C   UNL     1       4.564  -3.945   0.589  0.00  0.00    +0.000 A 
ATOM     22  S   UNL     1       5.451  -5.402   0.485  0.00  0.00    +0.000 S 
ATOM     23  C   UNL     1       6.725  -4.633  -0.343  0.00  0.00    +0.000 A 
ATOM     24  N   UNL     1       7.849  -5.314  -0.695  0.00  0.00    +0.000 NA
ATOM     25  C   UNL     1       8.745  -4.591  -1.288  0.00  0.00    +0.000 A 
ATOM     26  N   UNL     1       8.611  -3.259  -1.573  0.00  0.00    +0.000 N 
ATOM     27  C   UNL     1       7.477  -2.544  -1.281  0.00  0.00    +0.000 A 
ATOM     28  O   UNL     1       7.354  -1.376  -1.629  0.00  0.00    +0.000 OA
ATOM     29  C   UNL     1       6.459  -3.298  -0.577  0.00  0.00    +0.000 A 
ATOM     30  H   UNL     1       9.336  -2.757  -2.068  0.00  0.00    +0.000 HD
ENDBRANCH  17  20
ENDBRANCH   1  16
BRANCH   1  31
ATOM     31  C   UNL     1       2.877   0.718  -1.302  0.00  0.00    +0.000 C 
BRANCH  31  32
ATOM     32  C   UNL     1       2.356   2.152  -1.419  0.00  0.00    +0.000 C 
BRANCH  32  33
ATOM     33  N   UNL     1       0.899   2.182  -1.402  0.00  0.00    +0.000 NA
ATOM     34  H   UNL     1       0.585   3.148  -1.484  0.00  0.00    +0.000 HD
ATOM     35  H   UNL     1       0.559   1.842  -0.503  0.00  0.00    +0.000 HD
ENDBRANCH  32  33
ENDBRANCH  31  32
ENDBRANCH   1  31
TORSDOF 9
