REMARK  Name = 
REMARK  7 active torsions:
REMARK  status: ('A' for Active; 'I' for Inactive)
REMARK    1  A    between atoms: C_1  and  C_2
REMARK    2  A    between atoms: C_2  and  N_3
REMARK    3  A    between atoms: C_2  and  C_21
REMARK    4  A    between atoms: C_4  and  C_6
REMARK    5  A    between atoms: C_9  and  C_10
REMARK    6  A    between atoms: C_10  and  N_11
REMARK    7  A    between atoms: C_12  and  C_14
REMARK                            x       y       z     vdW  Elec       q    Type
REMARK                         _______ _______ _______ _____ _____    ______ ____
ROOT
ATOM      1  N   UNL     1       1.233   0.892   2.469  0.00  0.00    +0.000 N 
ATOM      2  C   UNL     1       2.575   0.566   2.521  0.00  0.00    +0.000 C 
ATOM      3  O   UNL     1       3.314   0.575   1.541  0.00  0.00    +0.000 OA
ATOM      4  H   UNL     1       0.739   0.922   3.355  0.00  0.00    +0.000 HD
ENDROOT
BRANCH   2   5
ATOM      5  C   UNL     1       3.107   0.203   3.877  0.00  0.00    +0.000 A 
ATOM      6  C   UNL     1       4.430  -0.209   4.003  0.00  0.00    +0.000 A 
ATOM      7  C   UNL     1       4.916  -0.514   5.273  0.00  0.00    +0.000 A 
ATOM      8  C   UNL     1       4.071  -0.412   6.381  0.00  0.00    +0.000 A 
ATOM      9  C   UNL     1       2.761   0.009   6.151  0.00  0.00    +0.000 A 
ATOM     10  N   UNL     1       2.252   0.319   4.931  0.00  0.00    +0.000 NA
BRANCH   8  11
ATOM     11  C   UNL     1       4.549  -0.751   7.764  0.00  0.00    +0.000 C 
BRANCH  11  12
ATOM     12  N   UNL     1       5.091   0.382   8.466  0.00  0.00    +0.000 N 
ATOM     13  C   UNL     1       5.567   0.250   9.753  0.00  0.00    +0.000 C 
ATOM     14  O   UNL     1       5.535  -0.806  10.377  0.00  0.00    +0.000 OA
ATOM     15  H   UNL     1       5.193   1.295   8.031  0.00  0.00    +0.000 HD
BRANCH  13  16
ATOM     16  C   UNL     1       6.115   1.489  10.306  0.00  0.00    +0.000 A 
ATOM     17  C   UNL     1       6.645   1.664  11.570  0.00  0.00    +0.000 A 
ATOM     18  N   UNL     1       7.026   2.973  11.631  0.00  0.00    +0.000 N 
ATOM     19  C   UNL     1       6.725   3.549  10.428  0.00  0.00    +0.000 A 
ATOM     20  N   UNL     1       6.171   2.686   9.604  0.00  0.00    +0.000 NA
ATOM     21  H   UNL     1       7.454   3.440  12.420  0.00  0.00    +0.000 HD
ENDBRANCH  13  16
ENDBRANCH  11  12
ENDBRANCH   8  11
ENDBRANCH   2   5
BRANCH   1  23
ATOM     22  C   UNL     1       0.825   2.850   1.022  0.00  0.00    +0.000 C 
ATOM     23  C   UNL     1       0.607   1.350   1.241  0.00  0.00    +0.000 C 
BRANCH  23  24
ATOM     24  C   UNL     1      -0.868   1.013   1.273  0.00  0.00    +0.000 A 
ATOM     25  C   UNL     1      -1.769   1.512   2.202  0.00  0.00    +0.000 A 
ATOM     26  S   UNL     1      -3.379   1.017   1.919  0.00  0.00    +0.000 S 
ATOM     27  C   UNL     1      -2.926   0.121   0.544  0.00  0.00    +0.000 A 
ATOM     28  N   UNL     1      -3.853  -0.542  -0.199  0.00  0.00    +0.000 NA
ATOM     29  C   UNL     1      -3.367  -1.169  -1.218  0.00  0.00    +0.000 A 
ATOM     30  N   UNL     1      -2.038  -1.201  -1.557  0.00  0.00    +0.000 N 
ATOM     31  C   UNL     1      -1.063  -0.541  -0.843  0.00  0.00    +0.000 A 
ATOM     32  O   UNL     1       0.111  -0.581  -1.194  0.00  0.00    +0.000 OA
ATOM     33  C   UNL     1      -1.564   0.186   0.312  0.00  0.00    +0.000 A 
ATOM     34  H   UNL     1      -1.720  -1.712  -2.367  0.00  0.00    +0.000 HD
ENDBRANCH  23  24
ENDBRANCH   1  23
TORSDOF 6
