REMARK  Name = 
REMARK  8 active torsions:
REMARK  status: ('A' for Active; 'I' for Inactive)
REMARK    1  A    between atoms: N_1  and  C_2
REMARK    2  A    between atoms: C_2  and  C_3
REMARK    3  A    between atoms: C_3  and  N_4
REMARK    4  A    between atoms: C_3  and  C_17
REMARK    5  A    between atoms: C_5  and  C_7
REMARK    6  A    between atoms: C_20  and  O_21
REMARK    7  A    between atoms: O_21  and  C_22
REMARK    8  A    between atoms: C_22  and  C_23
REMARK                            x       y       z     vdW  Elec       q    Type
REMARK                         _______ _______ _______ _____ _____    ______ ____
ROOT
ATOM      1  C   UNL     1       2.957  -0.957  -0.937  0.00  0.00    +0.000 C 
ENDROOT
BRANCH   1   2
ATOM      2  C   UNL     1       4.480  -1.005  -1.041  0.00  0.00    +0.000 A 
ATOM      3  C   UNL     1       5.184  -2.198  -0.832  0.00  0.00    +0.000 A 
ATOM      4  C   UNL     1       6.578  -2.229  -0.962  0.00  0.00    +0.000 A 
ATOM      5  C   UNL     1       7.281  -1.077  -1.316  0.00  0.00    +0.000 A 
ATOM      6  C   UNL     1       6.590   0.122  -1.485  0.00  0.00    +0.000 A 
ATOM      7  C   UNL     1       5.202   0.154  -1.369  0.00  0.00    +0.000 A 
BRANCH   5   8
ATOM      8  O   UNL     1       8.634  -1.224  -1.480  0.00  0.00    +0.000 OA
BRANCH   8   9
ATOM      9  C   UNL     1       9.250  -0.216  -2.292  0.00  0.00    +0.000 C 
BRANCH   9  10
ATOM     10  C   UNL     1      10.572  -0.679  -2.857  0.00  0.00    +0.000 A 
ATOM     11  C   UNL     1      11.440  -1.475  -2.114  0.00  0.00    +0.000 A 
ATOM     12  C   UNL     1      12.653  -1.854  -2.682  0.00  0.00    +0.000 A 
ATOM     13  C   UNL     1      12.973  -1.420  -3.963  0.00  0.00    +0.000 A 
ATOM     14  C   UNL     1      12.067  -0.613  -4.625  0.00  0.00    +0.000 A 
ATOM     15  N   UNL     1      10.884  -0.231  -4.102  0.00  0.00    +0.000 NA
ENDBRANCH   9  10
ENDBRANCH   8   9
ENDBRANCH   5   8
ENDBRANCH   1   2
BRANCH   1  16
ATOM     16  N   UNL     1       2.435  -0.618  -2.256  0.00  0.00    +0.000 N 
ATOM     17  C   UNL     1       1.100  -0.586  -2.557  0.00  0.00    +0.000 C 
ATOM     18  O   UNL     1       0.220  -0.707  -1.712  0.00  0.00    +0.000 OA
ATOM     19  H   UNL     1       3.084  -0.769  -3.023  0.00  0.00    +0.000 HD
BRANCH  17  20
ATOM     20  C   UNL     1       0.772  -0.333  -3.964  0.00  0.00    +0.000 A 
ATOM     21  C   UNL     1      -0.408   0.315  -4.299  0.00  0.00    +0.000 A 
ATOM     22  S   UNL     1      -0.616   0.521  -5.980  0.00  0.00    +0.000 S 
ATOM     23  C   UNL     1       0.840  -0.293  -6.317  0.00  0.00    +0.000 A 
ATOM     24  N   UNL     1       1.247  -0.508  -7.598  0.00  0.00    +0.000 NA
ATOM     25  C   UNL     1       2.349  -1.172  -7.702  0.00  0.00    +0.000 A 
ATOM     26  N   UNL     1       3.093  -1.628  -6.645  0.00  0.00    +0.000 N 
ATOM     27  C   UNL     1       2.749  -1.387  -5.336  0.00  0.00    +0.000 A 
ATOM     28  O   UNL     1       3.478  -1.724  -4.413  0.00  0.00    +0.000 OA
ATOM     29  C   UNL     1       1.494  -0.682  -5.163  0.00  0.00    +0.000 A 
ATOM     30  H   UNL     1       3.964  -2.117  -6.794  0.00  0.00    +0.000 HD
ENDBRANCH  17  20
ENDBRANCH   1  16
BRANCH   1  31
ATOM     31  C   UNL     1       2.504   0.047   0.167  0.00  0.00    +0.000 C 
BRANCH  31  32
ATOM     32  N   UNL     1       3.041  -0.240   1.506  0.00  0.00    +0.000 NA
ATOM     33  H   UNL     1       2.886   0.573   2.100  0.00  0.00    +0.000 HD
ATOM     34  H   UNL     1       4.053  -0.361   1.448  0.00  0.00    +0.000 HD
ENDBRANCH  31  32
ENDBRANCH   1  31
TORSDOF 8
