REMARK  Name = 
REMARK  8 active torsions:
REMARK  status: ('A' for Active; 'I' for Inactive)
REMARK    1  A    between atoms: C_1  and  C_2
REMARK    2  A    between atoms: C_2  and  C_3
REMARK    3  A    between atoms: C_2  and  C_4
REMARK    4  A    between atoms: C_2  and  C_5
REMARK    5  A    between atoms: C_8  and  C_9
REMARK    6  A    between atoms: C_9  and  N_10
REMARK    7  A    between atoms: N_10  and  C_11
REMARK    8  A    between atoms: C_14  and  C_15
REMARK                            x       y       z     vdW  Elec       q    Type
REMARK                         _______ _______ _______ _____ _____    ______ ____
ROOT
ATOM      1  N   UNL     1       4.739   4.936   3.541  0.00  0.00    +0.000 N 
ATOM      2  H   UNL     1       5.490   4.495   3.008  0.00  0.00    +0.000 HD
ENDROOT
BRANCH   1   3
ATOM      3  C   UNL     1       5.238   5.930   4.381  0.00  0.00    +0.000 A 
ATOM      4  C   UNL     1       4.769   6.192   5.674  0.00  0.00    +0.000 A 
ATOM      5  C   UNL     1       5.294   7.250   6.433  0.00  0.00    +0.000 A 
ATOM      6  C   UNL     1       6.281   8.087   5.900  0.00  0.00    +0.000 A 
ATOM      7  C   UNL     1       6.720   7.868   4.592  0.00  0.00    +0.000 A 
ATOM      8  C   UNL     1       6.197   6.804   3.850  0.00  0.00    +0.000 A 
BRANCH   6   9
ATOM      9  C   UNL     1       6.798   9.209   6.725  0.00  0.00    +0.000 C 
ATOM     10  N   UNL     1       8.041   9.695   6.423  0.00  0.00    +0.000 N 
ATOM     11  O   UNL     1       6.155   9.672   7.659  0.00  0.00    +0.000 OA
ATOM     12  H   UNL     1       8.686   9.220   5.809  0.00  0.00    +0.000 HD
ATOM     13  H   UNL     1       8.413  10.402   7.043  0.00  0.00    +0.000 HD
ENDBRANCH   6   9
ENDBRANCH   1   3
BRANCH   1  14
ATOM     14  C   UNL     1       3.776   3.946   4.017  0.00  0.00    +0.000 C 
BRANCH  14  18
ATOM     15  C   UNL     1       2.854   0.974   1.032  0.00  0.00    +0.000 A 
ATOM     16  C   UNL     1       2.577   2.328   0.786  0.00  0.00    +0.000 A 
ATOM     17  C   UNL     1       2.887   3.306   1.734  0.00  0.00    +0.000 A 
ATOM     18  C   UNL     1       3.474   2.922   2.935  0.00  0.00    +0.000 A 
ATOM     19  N   UNL     1       3.787   1.630   3.192  0.00  0.00    +0.000 NA
ATOM     20  C   UNL     1       3.474   0.704   2.250  0.00  0.00    +0.000 A 
BRANCH  15  22
ATOM     21  C   UNL     1       3.155   0.156  -1.336  0.00  0.00    +0.000 C 
ATOM     22  C   UNL     1       2.471  -0.114   0.021  0.00  0.00    +0.000 C 
ATOM     23  C   UNL     1       0.940  -0.119  -0.186  0.00  0.00    +0.000 C 
ATOM     24  C   UNL     1       2.873  -1.539   0.468  0.00  0.00    +0.000 C 
ENDBRANCH  15  22
ENDBRANCH  14  18
ENDBRANCH   1  14
TORSDOF 5
