REMARK  Name = 
REMARK  5 active torsions:
REMARK  status: ('A' for Active; 'I' for Inactive)
REMARK    1  A    between atoms: C_2  and  C_4
REMARK    2  A    between atoms: C_7  and  O_8
REMARK    3  A    between atoms: O_8  and  C_9
REMARK    4  A    between atoms: C_9  and  C_10
REMARK    5  A    between atoms: C_12  and  N_13
REMARK                            x       y       z     vdW  Elec       q    Type
REMARK                         _______ _______ _______ _____ _____    ______ ____
ROOT
ATOM      1  C   UNL     1       5.317  -4.663   3.338  0.00  0.00    +0.000 C 
ENDROOT
BRANCH   1   2
ATOM      2  C   UNL     1       6.349  -5.355   4.205  0.00  0.00    +0.000 A 
ATOM      3  C   UNL     1       7.281  -4.630   4.953  0.00  0.00    +0.000 A 
ATOM      4  C   UNL     1       8.219  -5.292   5.752  0.00  0.00    +0.000 A 
ATOM      5  C   UNL     1       8.148  -6.687   5.777  0.00  0.00    +0.000 A 
ATOM      6  C   UNL     1       7.175  -7.339   5.039  0.00  0.00    +0.000 A 
ATOM      7  N   UNL     1       6.277  -6.708   4.257  0.00  0.00    +0.000 NA
BRANCH   4   8
ATOM      8  N   UNL     1       9.166  -4.623   6.499  0.00  0.00    +0.000 N 
ATOM      9  C   UNL     1       8.947  -3.288   7.073  0.00  0.00    +0.000 C 
ATOM     10  C   UNL     1       9.968  -2.286   6.517  0.00  0.00    +0.000 C 
ATOM     11  O   UNL     1      11.317  -2.753   6.690  0.00  0.00    +0.000 OA
ATOM     12  C   UNL     1      11.498  -4.003   6.004  0.00  0.00    +0.000 C 
ATOM     13  C   UNL     1      10.561  -5.093   6.551  0.00  0.00    +0.000 C 
ENDBRANCH   4   8
ENDBRANCH   1   2
BRANCH   1  14
ATOM     14  O   UNL     1       5.801  -3.416   2.830  0.00  0.00    +0.000 OA
BRANCH  14  18
ATOM     15  C   UNL     1       3.469  -1.083   0.270  0.00  0.00    +0.000 A 
ATOM     16  C   UNL     1       2.925  -2.276   0.761  0.00  0.00    +0.000 A 
ATOM     17  C   UNL     1       3.672  -3.088   1.627  0.00  0.00    +0.000 A 
ATOM     18  C   UNL     1       4.963  -2.713   2.008  0.00  0.00    +0.000 A 
ATOM     19  C   UNL     1       5.498  -1.518   1.519  0.00  0.00    +0.000 A 
ATOM     20  C   UNL     1       4.760  -0.709   0.651  0.00  0.00    +0.000 A 
BRANCH  15  22
ATOM     21  N   UNL     1       1.370  -0.236  -0.640  0.00  0.00    +0.000 N 
ATOM     22  C   UNL     1       2.735  -0.215  -0.686  0.00  0.00    +0.000 C 
ATOM     23  O   UNL     1       3.326   0.518  -1.470  0.00  0.00    +0.000 OA
ATOM     24  H   UNL     1       0.896   0.437  -1.230  0.00  0.00    +0.000 HD
ATOM     25  H   UNL     1       0.859  -0.613   0.144  0.00  0.00    +0.000 HD
ENDBRANCH  15  22
ENDBRANCH  14  18
ENDBRANCH   1  14
TORSDOF 5
