REMARK  Name = 
REMARK  7 active torsions:
REMARK  status: ('A' for Active; 'I' for Inactive)
REMARK    1  A    between atoms: C_1  and  C_2
REMARK    2  A    between atoms: C_2  and  C_3
REMARK    3  A    between atoms: C_2  and  C_15
REMARK    4  A    between atoms: C_3  and  N_4
REMARK    5  A    between atoms: N_4  and  C_5
REMARK    6  A    between atoms: C_8  and  C_9
REMARK    7  A    between atoms: C_19  and  C_20
REMARK                            x       y       z     vdW  Elec       q    Type
REMARK                         _______ _______ _______ _____ _____    ______ ____
ROOT
ATOM      1  C   UNL     1       2.986   1.343  -0.693  0.00  0.00    +0.000 C 
ENDROOT
BRANCH   1   3
ATOM      2  C   UNL     1       0.856   0.045  -0.042  0.00  0.00    +0.000 C 
ATOM      3  C   UNL     1       2.295   0.367   0.211  0.00  0.00    +0.000 C 
BRANCH   3   4
ATOM      4  C   UNL     1       2.894   0.111   1.526  0.00  0.00    +0.000 A 
ATOM      5  C   UNL     1       4.211  -0.345   1.644  0.00  0.00    +0.000 A 
ATOM      6  C   UNL     1       4.801  -0.477   2.902  0.00  0.00    +0.000 A 
ATOM      7  C   UNL     1       4.080  -0.137   4.047  0.00  0.00    +0.000 A 
ATOM      8  C   UNL     1       2.756   0.311   3.946  0.00  0.00    +0.000 A 
ATOM      9  C   UNL     1       2.164   0.409   2.684  0.00  0.00    +0.000 A 
BRANCH   8  10
ATOM     10  C   UNL     1       2.049   0.728   5.189  0.00  0.00    +0.000 C 
ATOM     11  N   UNL     1       0.762   1.181   5.098  0.00  0.00    +0.000 N 
ATOM     12  O   UNL     1       2.607   0.693   6.281  0.00  0.00    +0.000 OA
ATOM     13  H   UNL     1       0.206   1.218   4.260  0.00  0.00    +0.000 HD
ATOM     14  H   UNL     1       0.326   1.477   5.962  0.00  0.00    +0.000 HD
ENDBRANCH   8  10
ENDBRANCH   3   4
ENDBRANCH   1   3
BRANCH   1  15
ATOM     15  N   UNL     1       2.444   2.670  -0.415  0.00  0.00    +0.000 N 
ATOM     16  H   UNL     1       2.329   2.848   0.580  0.00  0.00    +0.000 HD
BRANCH  15  17
ATOM     17  C   UNL     1       3.004   3.779  -1.071  0.00  0.00    +0.000 A 
ATOM     18  C   UNL     1       2.490   5.049  -0.766  0.00  0.00    +0.000 A 
ATOM     19  C   UNL     1       2.921   6.200  -1.448  0.00  0.00    +0.000 A 
ATOM     20  C   UNL     1       3.879   6.099  -2.462  0.00  0.00    +0.000 A 
ATOM     21  C   UNL     1       4.404   4.843  -2.771  0.00  0.00    +0.000 A 
ATOM     22  C   UNL     1       3.961   3.710  -2.096  0.00  0.00    +0.000 A 
ATOM     23  F   UNL     1       4.505   2.537  -2.456  0.00  0.00    +0.000 F 
BRANCH  20  24
ATOM     24  C   UNL     1       4.370   7.253  -3.267  0.00  0.00    +0.000 C 
ATOM     25  N   UNL     1       3.859   8.495  -3.021  0.00  0.00    +0.000 N 
ATOM     26  O   UNL     1       5.210   7.104  -4.146  0.00  0.00    +0.000 OA
ATOM     27  H   UNL     1       3.149   8.715  -2.343  0.00  0.00    +0.000 HD
ATOM     28  H   UNL     1       4.200   9.243  -3.612  0.00  0.00    +0.000 HD
ENDBRANCH  20  24
ENDBRANCH  15  17
ENDBRANCH   1  15
TORSDOF 6
