REMARK  Name = 
REMARK  10 active torsions:
REMARK  status: ('A' for Active; 'I' for Inactive)
REMARK    1  A    between atoms: C_1  and  O_2
REMARK    2  A    between atoms: O_2  and  C_3
REMARK    3  A    between atoms: C_6  and  C_7
REMARK    4  A    between atoms: C_11  and  C_12
REMARK    5  A    between atoms: C_12  and  C_13
REMARK    6  A    between atoms: C_12  and  C_14
REMARK    7  A    between atoms: C_12  and  C_15
REMARK    8  A    between atoms: C_15  and  N_16
REMARK    9  A    between atoms: N_16  and  C_17
REMARK   10  A    between atoms: C_20  and  C_21
REMARK                            x       y       z     vdW  Elec       q    Type
REMARK                         _______ _______ _______ _____ _____    ______ ____
ROOT
ATOM      1  C   UNL     1       7.053   5.428   5.226  0.00  0.00    +0.000 C 
ATOM      2  C   UNL     1       8.591   5.540   5.099  0.00  0.00    +0.000 C 
ATOM      3  C   UNL     1       6.545   6.629   6.058  0.00  0.00    +0.000 C 
ENDROOT
BRANCH   1   8
ATOM      4  C   UNL     1       5.101   4.496   2.014  0.00  0.00    +0.000 A 
ATOM      5  C   UNL     1       5.333   5.669   1.302  0.00  0.00    +0.000 A 
ATOM      6  N   UNL     1       6.075   6.709   1.749  0.00  0.00    +0.000 NA
ATOM      7  C   UNL     1       6.603   6.591   2.988  0.00  0.00    +0.000 A 
ATOM      8  C   UNL     1       6.446   5.481   3.817  0.00  0.00    +0.000 A 
ATOM      9  C   UNL     1       5.702   4.425   3.277  0.00  0.00    +0.000 A 
BRANCH   4  13
ATOM     10  C   UNL     1       2.947   1.213   0.447  0.00  0.00    +0.000 A 
ATOM     11  C   UNL     1       2.863   1.439   1.807  0.00  0.00    +0.000 A 
ATOM     12  C   UNL     1       3.542   2.539   2.330  0.00  0.00    +0.000 A 
ATOM     13  C   UNL     1       4.306   3.374   1.494  0.00  0.00    +0.000 A 
ATOM     14  C   UNL     1       4.304   3.043   0.141  0.00  0.00    +0.000 A 
ATOM     15  N   UNL     1       3.640   2.000  -0.398  0.00  0.00    +0.000 NA
BRANCH  10  17
ATOM     16  C   UNL     1       2.451  -0.017  -1.461  0.00  0.00    +0.000 C 
ATOM     17  O   UNL     1       2.295   0.104  -0.048  0.00  0.00    +0.000 OA
ENDBRANCH  10  17
ENDBRANCH   4  13
ENDBRANCH   1   8
BRANCH   1  18
ATOM     18  C   UNL     1       6.762   4.104   6.021  0.00  0.00    +0.000 C 
BRANCH  18  19
ATOM     19  N   UNL     1       5.330   3.869   6.213  0.00  0.00    +0.000 N 
ATOM     20  H   UNL     1       4.750   4.697   6.302  0.00  0.00    +0.000 HD
BRANCH  19  21
ATOM     21  C   UNL     1       4.816   2.755   6.860  0.00  0.00    +0.000 A 
ATOM     22  C   UNL     1       5.596   1.700   7.337  0.00  0.00    +0.000 A 
ATOM     23  C   UNL     1       5.005   0.579   7.934  0.00  0.00    +0.000 A 
ATOM     24  C   UNL     1       3.614   0.482   8.039  0.00  0.00    +0.000 A 
ATOM     25  C   UNL     1       2.818   1.501   7.514  0.00  0.00    +0.000 A 
ATOM     26  C   UNL     1       3.421   2.619   6.927  0.00  0.00    +0.000 A 
BRANCH  24  27
ATOM     27  C   UNL     1       3.034  -0.731   8.672  0.00  0.00    +0.000 C 
ATOM     28  N   UNL     1       1.789  -0.617   9.230  0.00  0.00    +0.000 N 
ATOM     29  O   UNL     1       3.650  -1.781   8.729  0.00  0.00    +0.000 OA
ATOM     30  H   UNL     1       1.331   0.268   9.386  0.00  0.00    +0.000 HD
ATOM     31  H   UNL     1       1.450  -1.424   9.738  0.00  0.00    +0.000 HD
ENDBRANCH  24  27
ENDBRANCH  19  21
ENDBRANCH  18  19
ENDBRANCH   1  18
TORSDOF 7
