REMARK  Name = 
REMARK  5 active torsions:
REMARK  status: ('A' for Active; 'I' for Inactive)
REMARK    1  A    between atoms: C_2  and  C_17
REMARK    2  A    between atoms: N_3  and  C_4
REMARK    3  A    between atoms: C_4  and  C_5
REMARK    4  A    between atoms: C_8  and  C_9
REMARK    5  A    between atoms: C_9  and  C_10
REMARK                            x       y       z     vdW  Elec       q    Type
REMARK                         _______ _______ _______ _____ _____    ______ ____
ROOT
ATOM      1  O   UNL     1       0.734   0.039  -0.560  0.00  0.00    +0.000 OA
ATOM      2  C   UNL     1       0.909   0.403  -1.717  0.00  0.00    +0.000 C 
ATOM      3  N   UNL     1       1.798   1.394  -2.053  0.00  0.00    +0.000 N 
ATOM      4  H   UNL     1       1.761   1.800  -2.983  0.00  0.00    +0.000 HD
ENDROOT
BRANCH   2   5
ATOM      5  C   UNL     1       0.213  -0.235  -2.843  0.00  0.00    +0.000 A 
ATOM      6  C   UNL     1      -0.266  -1.531  -2.724  0.00  0.00    +0.000 A 
ATOM      7  S   UNL     1      -1.002  -2.117  -4.148  0.00  0.00    +0.000 S 
ATOM      8  C   UNL     1      -0.753  -0.638  -4.957  0.00  0.00    +0.000 A 
ATOM      9  N   UNL     1      -1.174  -0.455  -6.233  0.00  0.00    +0.000 NA
ATOM     10  C   UNL     1      -0.958   0.729  -6.705  0.00  0.00    +0.000 A 
ATOM     11  N   UNL     1      -0.356   1.743  -6.013  0.00  0.00    +0.000 N 
ATOM     12  C   UNL     1       0.117   1.599  -4.731  0.00  0.00    +0.000 A 
ATOM     13  O   UNL     1       0.691   2.516  -4.156  0.00  0.00    +0.000 OA
ATOM     14  C   UNL     1      -0.113   0.285  -4.150  0.00  0.00    +0.000 A 
ATOM     15  H   UNL     1      -0.207   2.649  -6.439  0.00  0.00    +0.000 HD
ENDBRANCH   2   5
BRANCH   3  16
ATOM     16  C   UNL     1       2.447   2.189  -1.045  0.00  0.00    +0.000 C 
BRANCH  16  17
ATOM     17  C   UNL     1       3.309   3.265  -1.657  0.00  0.00    +0.000 A 
ATOM     18  C   UNL     1       2.783   4.538  -1.913  0.00  0.00    +0.000 A 
ATOM     19  C   UNL     1       3.598   5.563  -2.408  0.00  0.00    +0.000 A 
ATOM     20  C   UNL     1       4.953   5.331  -2.675  0.00  0.00    +0.000 A 
ATOM     21  C   UNL     1       5.456   4.035  -2.496  0.00  0.00    +0.000 A 
ATOM     22  C   UNL     1       4.643   3.012  -1.996  0.00  0.00    +0.000 A 
BRANCH  20  23
ATOM     23  C   UNL     1       5.862   6.454  -3.130  0.00  0.00    +0.000 C 
BRANCH  23  24
ATOM     24  C   UNL     1       6.382   7.348  -1.984  0.00  0.00    +0.000 C 
ATOM     25  C   UNL     1       7.233   8.505  -2.513  0.00  0.00    +0.000 C 
ATOM     26  C   UNL     1       8.665   8.074  -2.270  0.00  0.00    +0.000 C 
ATOM     27  N   UNL     1       8.619   7.301  -1.032  0.00  0.00    +0.000 NA
ATOM     28  C   UNL     1       7.313   6.626  -1.003  0.00  0.00    +0.000 C 
ATOM     29  H   UNL     1       8.678   7.937  -0.237  0.00  0.00    +0.000 HD
ENDBRANCH  23  24
ENDBRANCH  20  23
ENDBRANCH  16  17
ENDBRANCH   3  16
TORSDOF 5
