REMARK  Name = 
REMARK  4 active torsions:
REMARK  status: ('A' for Active; 'I' for Inactive)
REMARK    1  A    between atoms: C_2  and  C_4
REMARK    2  A    between atoms: C_7  and  C_8
REMARK    3  A    between atoms: C_8  and  S_9
REMARK    4  A    between atoms: S_9  and  C_10
REMARK                            x       y       z     vdW  Elec       q    Type
REMARK                         _______ _______ _______ _____ _____    ______ ____
ROOT
ATOM      1  S   UNL     1       6.405  -4.286   2.954  0.00  0.00    +0.000 S 
ENDROOT
BRANCH   1   2
ATOM      2  C   UNL     1       7.082  -5.887   3.387  0.00  0.00    +0.000 A 
ATOM      3  C   UNL     1       6.565  -7.117   3.009  0.00  0.00    +0.000 A 
ATOM      4  C   UNL     1       7.250  -8.255   3.402  0.00  0.00    +0.000 A 
ATOM      5  N   UNL     1       8.391  -8.250   4.127  0.00  0.00    +0.000 NA
ATOM      6  C   UNL     1       8.887  -7.062   4.527  0.00  0.00    +0.000 A 
ATOM      7  N   UNL     1      10.065  -7.020   5.254  0.00  0.00    +0.000 N 
ATOM      8  C   UNL     1      11.052  -8.082   5.081  0.00  0.00    +0.000 C 
ATOM      9  C   UNL     1      11.182  -8.944   6.334  0.00  0.00    +0.000 C 
ATOM     10  C   UNL     1      11.385  -8.086   7.579  0.00  0.00    +0.000 C 
ATOM     11  C   UNL     1      10.258  -7.067   7.708  0.00  0.00    +0.000 C 
ATOM     12  C   UNL     1      10.153  -6.194   6.455  0.00  0.00    +0.000 C 
ATOM     13  C   UNL     1       8.247  -5.876   4.164  0.00  0.00    +0.000 A 
ENDBRANCH   1   2
BRANCH   1  14
ATOM     14  C   UNL     1       4.945  -4.679   1.929  0.00  0.00    +0.000 C 
BRANCH  14  18
ATOM     15  C   UNL     1       2.918  -1.231   0.523  0.00  0.00    +0.000 A 
ATOM     16  C   UNL     1       3.935  -1.826  -0.186  0.00  0.00    +0.000 A 
ATOM     17  N   UNL     1       4.601  -2.927   0.236  0.00  0.00    +0.000 NA
ATOM     18  C   UNL     1       4.242  -3.432   1.439  0.00  0.00    +0.000 A 
ATOM     19  N   UNL     1       3.271  -2.904   2.216  0.00  0.00    +0.000 NA
ATOM     20  C   UNL     1       2.640  -1.803   1.744  0.00  0.00    +0.000 A 
BRANCH  15  22
ATOM     21  N   UNL     1       2.045   0.127  -1.292  0.00  0.00    +0.000 N 
ATOM     22  C   UNL     1       2.161  -0.061   0.058  0.00  0.00    +0.000 C 
ATOM     23  O   UNL     1       1.612   0.694   0.850  0.00  0.00    +0.000 OA
ATOM     24  H   UNL     1       1.425   0.874  -1.585  0.00  0.00    +0.000 HD
ATOM     25  H   UNL     1       2.250  -0.591  -1.974  0.00  0.00    +0.000 HD
ENDBRANCH  15  22
ENDBRANCH  14  18
ENDBRANCH   1  14
TORSDOF 4
