REMARK  Name = 
REMARK  5 active torsions:
REMARK  status: ('A' for Active; 'I' for Inactive)
REMARK    1  A    between atoms: N_1  and  C_2
REMARK    2  A    between atoms: C_2  and  C_3
REMARK    3  A    between atoms: C_6  and  C_7
REMARK    4  A    between atoms: C_7  and  N_8
REMARK    5  A    between atoms: C_13  and  C_14
REMARK                            x       y       z     vdW  Elec       q    Type
REMARK                         _______ _______ _______ _____ _____    ______ ____
ROOT
ATOM      1  N   UNL     1       1.746   4.659   4.659  0.00  0.00    +0.000 N 
ATOM      2  C   UNL     1       0.701   5.539   4.772  0.00  0.00    +0.000 A 
ATOM      3  C   UNL     1       0.034   5.258   5.943  0.00  0.00    +0.000 A 
ATOM      4  C   UNL     1       0.711   4.183   6.579  0.00  0.00    +0.000 A 
ATOM      5  C   UNL     1       0.471   3.442   7.759  0.00  0.00    +0.000 A 
ATOM      6  C   UNL     1       1.349   2.409   8.124  0.00  0.00    +0.000 A 
ATOM      7  C   UNL     1       2.491   2.168   7.353  0.00  0.00    +0.000 A 
ATOM      8  C   UNL     1       2.760   2.904   6.195  0.00  0.00    +0.000 A 
ATOM      9  C   UNL     1       1.829   3.880   5.798  0.00  0.00    +0.000 A 
ENDROOT
BRANCH   6  10
ATOM     10  C   UNL     1       1.114   1.518   9.298  0.00  0.00    +0.000 C 
ATOM     11  N   UNL     1       0.004   1.722  10.068  0.00  0.00    +0.000 N 
ATOM     12  O   UNL     1       1.883   0.604   9.574  0.00  0.00    +0.000 OA
ATOM     13  H   UNL     1      -0.696   2.428   9.910  0.00  0.00    +0.000 HD
ATOM     14  H   UNL     1      -0.135   1.078  10.836  0.00  0.00    +0.000 HD
ENDBRANCH   6  10
BRANCH   1  15
ATOM     15  C   UNL     1       2.618   4.575   3.497  0.00  0.00    +0.000 C 
BRANCH  15  19
ATOM     16  C   UNL     1       3.053   1.196   0.763  0.00  0.00    +0.000 C 
ATOM     17  C   UNL     1       2.029   1.035   1.893  0.00  0.00    +0.000 C 
ATOM     18  C   UNL     1       2.154   2.117   2.961  0.00  0.00    +0.000 C 
ATOM     19  C   UNL     1       2.162   3.559   2.418  0.00  0.00    +0.000 C 
ATOM     20  C   UNL     1       3.063   3.711   1.179  0.00  0.00    +0.000 C 
ATOM     21  C   UNL     1       2.881   2.594   0.152  0.00  0.00    +0.000 C 
BRANCH  16  22
ATOM     22  C   UNL     1       4.514   0.959   1.205  0.00  0.00    +0.000 C 
BRANCH  22  23
ATOM     23  N   UNL     1       4.735  -0.398   1.690  0.00  0.00    +0.000 NA
ATOM     24  H   UNL     1       5.703  -0.494   1.997  0.00  0.00    +0.000 HD
ATOM     25  H   UNL     1       4.615  -1.060   0.925  0.00  0.00    +0.000 HD
ENDBRANCH  22  23
ENDBRANCH  16  22
ENDBRANCH  15  19
ENDBRANCH   1  15
TORSDOF 5
