REMARK  Name = 
REMARK  5 active torsions:
REMARK  status: ('A' for Active; 'I' for Inactive)
REMARK    1  A    between atoms: C_2  and  C_4
REMARK    2  A    between atoms: C_7  and  N_8
REMARK    3  A    between atoms: N_8  and  C_9
REMARK    4  A    between atoms: C_9  and  C_10
REMARK    5  A    between atoms: C_14  and  C_15
REMARK                            x       y       z     vdW  Elec       q    Type
REMARK                         _______ _______ _______ _____ _____    ______ ____
ROOT
ATOM      1  C   UNL     1       4.945   5.984   0.476  0.00  0.00    +0.000 C 
ATOM      2  C   UNL     1       4.877   6.217   1.981  0.00  0.00    +0.000 C 
ATOM      3  C   UNL     1       3.647   6.377   1.150  0.00  0.00    +0.000 C 
ENDROOT
BRANCH   1   4
ATOM      4  C   UNL     1       5.668   7.015  -0.389  0.00  0.00    +0.000 A 
ATOM      5  C   UNL     1       6.931   7.519  -0.043  0.00  0.00    +0.000 A 
ATOM      6  C   UNL     1       7.633   8.369  -0.899  0.00  0.00    +0.000 A 
ATOM      7  C   UNL     1       7.091   8.716  -2.137  0.00  0.00    +0.000 A 
ATOM      8  C   UNL     1       5.828   8.252  -2.532  0.00  0.00    +0.000 A 
ATOM      9  C   UNL     1       5.131   7.429  -1.625  0.00  0.00    +0.000 A 
BRANCH   8  10
ATOM     10  C   UNL     1       5.294   8.537  -3.879  0.00  0.00    +0.000 A 
ATOM     11  C   UNL     1       3.933   8.706  -4.139  0.00  0.00    +0.000 A 
ATOM     12  C   UNL     1       3.504   8.875  -5.455  0.00  0.00    +0.000 A 
ATOM     13  C   UNL     1       4.440   8.875  -6.480  0.00  0.00    +0.000 A 
ATOM     14  C   UNL     1       5.772   8.723  -6.143  0.00  0.00    +0.000 A 
ATOM     15  N   UNL     1       6.215   8.563  -4.877  0.00  0.00    +0.000 NA
ENDBRANCH   8  10
ENDBRANCH   1   4
BRANCH   1  16
ATOM     16  N   UNL     1       5.239   4.586   0.095  0.00  0.00    +0.000 N 
ATOM     17  H   UNL     1       6.231   4.357   0.129  0.00  0.00    +0.000 HD
BRANCH  16  21
ATOM     18  C   UNL     1       3.345   2.247  -2.885  0.00  0.00    +0.000 A 
ATOM     19  C   UNL     1       2.813   3.497  -2.555  0.00  0.00    +0.000 A 
ATOM     20  C   UNL     1       3.423   4.284  -1.569  0.00  0.00    +0.000 A 
ATOM     21  C   UNL     1       4.599   3.869  -0.939  0.00  0.00    +0.000 A 
ATOM     22  C   UNL     1       5.097   2.595  -1.255  0.00  0.00    +0.000 A 
ATOM     23  C   UNL     1       4.480   1.788  -2.215  0.00  0.00    +0.000 A 
BRANCH  18  25
ATOM     24  N   UNL     1       2.029   1.974  -4.914  0.00  0.00    +0.000 N 
ATOM     25  C   UNL     1       2.717   1.367  -3.903  0.00  0.00    +0.000 C 
ATOM     26  O   UNL     1       2.843   0.149  -3.870  0.00  0.00    +0.000 OA
ATOM     27  H   UNL     1       1.723   1.368  -5.665  0.00  0.00    +0.000 HD
ATOM     28  H   UNL     1       2.149   2.954  -5.124  0.00  0.00    +0.000 HD
ENDBRANCH  18  25
ENDBRANCH  16  21
ENDBRANCH   1  16
TORSDOF 5
