REMARK  Name = 
REMARK  3 active torsions:
REMARK  status: ('A' for Active; 'I' for Inactive)
REMARK    1  A    between atoms: C_2  and  C_4
REMARK    2  A    between atoms: N_8  and  C_9
REMARK    3  A    between atoms: C_9  and  C_10
REMARK                            x       y       z     vdW  Elec       q    Type
REMARK                         _______ _______ _______ _____ _____    ______ ____
ROOT
ATOM      1  C   UNL     1       8.598  -1.879  -1.343  0.00  0.00    +0.000 A 
ATOM      2  C   UNL     1       8.764  -3.198  -1.748  0.00  0.00    +0.000 A 
ATOM      3  C   UNL     1       7.687  -4.082  -1.647  0.00  0.00    +0.000 A 
ATOM      4  C   UNL     1       6.465  -3.636  -1.151  0.00  0.00    +0.000 A 
ATOM      5  N   UNL     1       5.345  -4.463  -1.021  0.00  0.00    +0.000 N 
ATOM      6  N   UNL     1       6.296  -2.359  -0.743  0.00  0.00    +0.000 NA
ATOM      7  C   UNL     1       7.360  -1.514  -0.835  0.00  0.00    +0.000 A 
ATOM      8  H   UNL     1       4.557  -3.893  -0.731  0.00  0.00    +0.000 HD
ENDROOT
BRANCH   1  10
ATOM      9  N   UNL     1      10.660  -1.062  -2.339  0.00  0.00    +0.000 N 
ATOM     10  C   UNL     1       9.676  -0.874  -1.403  0.00  0.00    +0.000 C 
ATOM     11  O   UNL     1       9.681   0.107  -0.672  0.00  0.00    +0.000 OA
ATOM     12  H   UNL     1      11.348  -0.324  -2.426  0.00  0.00    +0.000 HD
ATOM     13  H   UNL     1      10.572  -1.713  -3.104  0.00  0.00    +0.000 HD
ENDBRANCH   1  10
BRANCH   5  14
ATOM     14  C   UNL     1       5.137  -5.672  -1.852  0.00  0.00    +0.000 C 
ATOM     15  C   UNL     1       5.097  -5.507  -3.367  0.00  0.00    +0.000 C 
ATOM     16  C   UNL     1       3.843  -5.832  -2.640  0.00  0.00    +0.000 C 
ATOM     17  F   UNL     1       3.327  -7.104  -2.826  0.00  0.00    +0.000 F 
BRANCH  14  18
ATOM     18  C   UNL     1       5.699  -6.972  -1.257  0.00  0.00    +0.000 A 
ATOM     19  C   UNL     1       4.989  -7.658  -0.261  0.00  0.00    +0.000 A 
ATOM     20  C   UNL     1       5.459  -8.880   0.219  0.00  0.00    +0.000 A 
ATOM     21  C   UNL     1       6.641  -9.383  -0.292  0.00  0.00    +0.000 A 
ATOM     22  F   UNL     1       7.115 -10.561   0.128  0.00  0.00    +0.000 F 
ATOM     23  C   UNL     1       7.315  -8.650  -1.249  0.00  0.00    +0.000 A 
ATOM     24  N   UNL     1       6.877  -7.465  -1.739  0.00  0.00    +0.000 NA
ENDBRANCH  14  18
ENDBRANCH   5  14
TORSDOF 3
