REMARK  Name = 
REMARK  6 active torsions:
REMARK  status: ('A' for Active; 'I' for Inactive)
REMARK    1  A    between atoms: C_2  and  C_19
REMARK    2  A    between atoms: N_3  and  C_4
REMARK    3  A    between atoms: C_4  and  C_5
REMARK    4  A    between atoms: C_8  and  C_9
REMARK    5  A    between atoms: C_9  and  N_10
REMARK    6  A    between atoms: N_10  and  C_11
REMARK                            x       y       z     vdW  Elec       q    Type
REMARK                         _______ _______ _______ _____ _____    ______ ____
ROOT
ATOM      1  C   UNL     1       2.338  -0.617  -2.454  0.00  0.00    +0.000 C 
ENDROOT
BRANCH   1   2
ATOM      2  C   UNL     1       3.370  -0.563  -3.556  0.00  0.00    +0.000 A 
ATOM      3  C   UNL     1       3.844   0.660  -4.055  0.00  0.00    +0.000 A 
ATOM      4  C   UNL     1       4.775   0.688  -5.100  0.00  0.00    +0.000 A 
ATOM      5  C   UNL     1       5.230  -0.503  -5.684  0.00  0.00    +0.000 A 
ATOM      6  C   UNL     1       4.748  -1.722  -5.190  0.00  0.00    +0.000 A 
ATOM      7  C   UNL     1       3.820  -1.751  -4.146  0.00  0.00    +0.000 A 
BRANCH   5   8
ATOM      8  C   UNL     1       6.214  -0.477  -6.830  0.00  0.00    +0.000 C 
BRANCH   8   9
ATOM      9  N   UNL     1       7.582  -0.538  -6.325  0.00  0.00    +0.000 N 
ATOM     10  H   UNL     1       7.686  -1.232  -5.587  0.00  0.00    +0.000 HD
BRANCH   9  11
ATOM     11  C   UNL     1       8.621  -0.590  -7.261  0.00  0.00    +0.000 A 
ATOM     12  C   UNL     1       8.592  -0.022  -8.526  0.00  0.00    +0.000 A 
ATOM     13  N   UNL     1       9.623  -0.011  -9.403  0.00  0.00    +0.000 NA
ATOM     14  C   UNL     1      10.758  -0.571  -8.966  0.00  0.00    +0.000 A 
ATOM     15  N   UNL     1      10.945  -1.121  -7.760  0.00  0.00    +0.000 NA
ATOM     16  C   UNL     1       9.871  -1.097  -6.935  0.00  0.00    +0.000 A 
ENDBRANCH   9  11
ENDBRANCH   8   9
ENDBRANCH   5   8
ENDBRANCH   1   2
BRANCH   1  19
ATOM     17  O   UNL     1       0.488  -2.739  -3.029  0.00  0.00    +0.000 OA
ATOM     18  C   UNL     1       0.252  -1.591  -3.362  0.00  0.00    +0.000 C 
ATOM     19  N   UNL     1       1.020  -0.496  -3.018  0.00  0.00    +0.000 N 
ATOM     20  H   UNL     1       0.853   0.364  -3.517  0.00  0.00    +0.000 HD
BRANCH  18  21
ATOM     21  C   UNL     1      -0.757  -1.228  -4.352  0.00  0.00    +0.000 A 
ATOM     22  C   UNL     1      -0.997  -1.984  -5.486  0.00  0.00    +0.000 A 
ATOM     23  S   UNL     1      -1.771  -1.058  -6.708  0.00  0.00    +0.000 S 
ATOM     24  C   UNL     1      -1.913   0.293  -5.675  0.00  0.00    +0.000 A 
ATOM     25  N   UNL     1      -2.347   1.506  -6.109  0.00  0.00    +0.000 NA
ATOM     26  C   UNL     1      -2.442   2.399  -5.178  0.00  0.00    +0.000 A 
ATOM     27  N   UNL     1      -2.194   2.178  -3.845  0.00  0.00    +0.000 N 
ATOM     28  C   UNL     1      -1.766   0.965  -3.359  0.00  0.00    +0.000 A 
ATOM     29  O   UNL     1      -1.618   0.762  -2.160  0.00  0.00    +0.000 OA
ATOM     30  C   UNL     1      -1.520  -0.017  -4.392  0.00  0.00    +0.000 A 
ATOM     31  H   UNL     1      -2.375   2.892  -3.155  0.00  0.00    +0.000 HD
ENDBRANCH  18  21
ENDBRANCH   1  19
TORSDOF 6
