REMARK  Name = 
REMARK  7 active torsions:
REMARK  status: ('A' for Active; 'I' for Inactive)
REMARK    1  A    between atoms: C_1  and  C_2
REMARK    2  A    between atoms: C_6  and  C_7
REMARK    3  A    between atoms: N_8  and  C_9
REMARK    4  A    between atoms: C_13  and  C_14
REMARK    5  A    between atoms: C_14  and  O_15
REMARK    6  A    between atoms: O_15  and  C_16
REMARK    7  A    between atoms: C_19  and  C_20
REMARK                            x       y       z     vdW  Elec       q    Type
REMARK                         _______ _______ _______ _____ _____    ______ ____
ROOT
ATOM      1  C   UNL     1      -0.040   1.634   2.120  0.00  0.00    +0.000 A 
ATOM      2  C   UNL     1       0.530   2.911   2.135  0.00  0.00    +0.000 A 
ATOM      3  C   UNL     1       0.487   3.676   3.290  0.00  0.00    +0.000 A 
ATOM      4  N   UNL     1      -0.081   3.273   4.443  0.00  0.00    +0.000 NA
ATOM      5  C   UNL     1      -0.624   2.033   4.448  0.00  0.00    +0.000 A 
ATOM      6  C   UNL     1      -0.613   1.203   3.324  0.00  0.00    +0.000 A 
ENDROOT
BRANCH   1  14
ATOM      7  C   UNL     1       1.023   1.685  -1.140  0.00  0.00    +0.000 C 
ATOM      8  C   UNL     1       1.193   0.844   0.126  0.00  0.00    +0.000 C 
ATOM      9  C   UNL     1       1.640  -0.588  -0.198  0.00  0.00    +0.000 C 
ATOM     10  C   UNL     1       0.500  -1.462  -0.700  0.00  0.00    +0.000 C 
ATOM     11  C   UNL     1      -0.611  -1.493   0.339  0.00  0.00    +0.000 C 
ATOM     12  C   UNL     1      -1.131  -0.097   0.694  0.00  0.00    +0.000 C 
ATOM     13  C   UNL     1      -2.084   0.467  -0.360  0.00  0.00    +0.000 C 
ATOM     14  N   UNL     1      -0.022   0.840   0.973  0.00  0.00    +0.000 N 
ENDBRANCH   1  14
BRANCH   5  15
ATOM     15  C   UNL     1      -1.259   1.557   5.735  0.00  0.00    +0.000 C 
BRANCH  15  16
ATOM     16  O   UNL     1      -0.290   0.854   6.517  0.00  0.00    +0.000 OA
BRANCH  16  17
ATOM     17  C   UNL     1      -0.709   0.362   7.721  0.00  0.00    +0.000 A 
ATOM     18  C   UNL     1      -1.989   0.484   8.265  0.00  0.00    +0.000 A 
ATOM     19  C   UNL     1      -2.291  -0.095   9.505  0.00  0.00    +0.000 A 
ATOM     20  C   UNL     1      -1.308  -0.802  10.219  0.00  0.00    +0.000 A 
ATOM     21  C   UNL     1      -0.032  -0.904   9.669  0.00  0.00    +0.000 A 
ATOM     22  F   UNL     1       0.947  -1.567  10.306  0.00  0.00    +0.000 F 
ATOM     23  C   UNL     1       0.269  -0.329   8.438  0.00  0.00    +0.000 A 
BRANCH  20  24
ATOM     24  C   UNL     1      -1.670  -1.413  11.523  0.00  0.00    +0.000 C 
ATOM     25  N   UNL     1      -0.702  -2.099  12.202  0.00  0.00    +0.000 N 
ATOM     26  O   UNL     1      -2.802  -1.314  11.984  0.00  0.00    +0.000 OA
ATOM     27  H   UNL     1       0.245  -2.203  11.858  0.00  0.00    +0.000 HD
ATOM     28  H   UNL     1      -0.945  -2.519  13.090  0.00  0.00    +0.000 HD
ENDBRANCH  20  24
ENDBRANCH  16  17
ENDBRANCH  15  16
ENDBRANCH   5  15
TORSDOF 5
