REMARK  Name = 
REMARK  4 active torsions:
REMARK  status: ('A' for Active; 'I' for Inactive)
REMARK    1  A    between atoms: N_1  and  C_2
REMARK    2  A    between atoms: C_2  and  C_3
REMARK    3  A    between atoms: C_6  and  C_7
REMARK    4  A    between atoms: C_7  and  N_8
REMARK                            x       y       z     vdW  Elec       q    Type
REMARK                         _______ _______ _______ _____ _____    ______ ____
ROOT
ATOM      1  C   UNL     1       3.350   0.407   1.296  0.00  0.00    +0.000 A 
ATOM      2  C   UNL     1       2.318   0.355   2.230  0.00  0.00    +0.000 A 
ATOM      3  C   UNL     1       2.587   0.682   3.558  0.00  0.00    +0.000 A 
ATOM      4  C   UNL     1       3.883   1.046   3.934  0.00  0.00    +0.000 A 
ATOM      5  C   UNL     1       4.839   1.104   2.927  0.00  0.00    +0.000 A 
ATOM      6  N   UNL     1       4.607   0.791   1.633  0.00  0.00    +0.000 NA
ENDROOT
BRANCH   1   7
ATOM      7  C   UNL     1       3.110  -0.007  -0.140  0.00  0.00    +0.000 C 
BRANCH   7   8
ATOM      8  N   UNL     1       2.066   0.782  -0.801  0.00  0.00    +0.000 NA
ATOM      9  H   UNL     1       2.037   0.517  -1.784  0.00  0.00    +0.000 HD
ATOM     10  H   UNL     1       2.360   1.759  -0.785  0.00  0.00    +0.000 HD
ENDBRANCH   7   8
ENDBRANCH   1   7
BRANCH   4  11
ATOM     11  C   UNL     1       4.247   1.308   5.366  0.00  0.00    +0.000 C 
BRANCH  11  12
ATOM     12  N   UNL     1       4.118   2.702   5.746  0.00  0.00    +0.000 N 
ATOM     13  C   UNL     1       2.995   3.259   6.297  0.00  0.00    +0.000 A 
ATOM     14  N   UNL     1       3.217   4.476   6.735  0.00  0.00    +0.000 NA
ATOM     15  C   UNL     1       4.540   4.721   6.462  0.00  0.00    +0.000 A 
ATOM     16  C   UNL     1       5.314   5.854   6.753  0.00  0.00    +0.000 A 
ATOM     17  C   UNL     1       6.664   5.864   6.382  0.00  0.00    +0.000 A 
ATOM     18  C   UNL     1       7.230   4.769   5.727  0.00  0.00    +0.000 A 
ATOM     19  C   UNL     1       6.476   3.627   5.434  0.00  0.00    +0.000 A 
ATOM     20  C   UNL     1       5.130   3.632   5.823  0.00  0.00    +0.000 A 
ENDBRANCH  11  12
ENDBRANCH   4  11
TORSDOF 4
