REMARK  Name = 
REMARK  7 active torsions:
REMARK  status: ('A' for Active; 'I' for Inactive)
REMARK    1  A    between atoms: C_1  and  C_2
REMARK    2  A    between atoms: C_2  and  C_3
REMARK    3  A    between atoms: C_7  and  C_8
REMARK    4  A    between atoms: C_8  and  C_9
REMARK    5  A    between atoms: C_9  and  N_10
REMARK    6  A    between atoms: C_14  and  C_15
REMARK    7  A    between atoms: C_23  and  O_24
REMARK                            x       y       z     vdW  Elec       q    Type
REMARK                         _______ _______ _______ _____ _____    ______ ____
ROOT
ATOM      1  C   UNL     1       2.923   0.300   1.450  0.00  0.00    +0.000 A 
ATOM      2  C   UNL     1       2.661   1.569   1.984  0.00  0.00    +0.000 A 
ATOM      3  C   UNL     1       2.978   1.874   3.309  0.00  0.00    +0.000 A 
ATOM      4  C   UNL     1       3.549   0.908   4.141  0.00  0.00    +0.000 A 
ATOM      5  C   UNL     1       3.822  -0.371   3.648  0.00  0.00    +0.000 A 
ATOM      6  C   UNL     1       3.537  -0.631   2.296  0.00  0.00    +0.000 A 
ENDROOT
BRANCH   1   8
ATOM      7  C   UNL     1       0.905   0.013   0.049  0.00  0.00    +0.000 C 
ATOM      8  C   UNL     1       2.450  -0.088   0.032  0.00  0.00    +0.000 C 
ATOM      9  C   UNL     1       3.055   0.890  -1.009  0.00  0.00    +0.000 C 
ATOM     10  C   UNL     1       2.735   0.521  -2.462  0.00  0.00    +0.000 C 
ATOM     11  C   UNL     1       3.103  -0.919  -2.809  0.00  0.00    +0.000 C 
ATOM     12  C   UNL     1       2.513  -1.913  -1.815  0.00  0.00    +0.000 C 
ATOM     13  C   UNL     1       2.846  -1.544  -0.370  0.00  0.00    +0.000 C 
BRANCH  11  14
ATOM     14  O   UNL     1       4.521  -1.066  -2.862  0.00  0.00    +0.000 OA
ATOM     15  H   UNL     1       4.898  -0.811  -2.004  0.00  0.00    +0.000 HD
ENDBRANCH  11  14
ENDBRANCH   1   8
BRANCH   5  16
ATOM     16  C   UNL     1       4.344  -1.465   4.568  0.00  0.00    +0.000 C 
BRANCH  16  17
ATOM     17  C   UNL     1       4.581  -2.808   3.860  0.00  0.00    +0.000 C 
BRANCH  17  18
ATOM     18  N   UNL     1       5.039  -3.865   4.760  0.00  0.00    +0.000 N 
ATOM     19  C   UNL     1       5.237  -5.076   4.057  0.00  0.00    +0.000 A 
ATOM     20  C   UNL     1       5.675  -6.196   4.756  0.00  0.00    +0.000 A 
ATOM     21  C   UNL     1       5.864  -7.399   4.070  0.00  0.00    +0.000 A 
ATOM     22  C   UNL     1       5.606  -7.467   2.700  0.00  0.00    +0.000 A 
ATOM     23  C   UNL     1       5.182  -6.306   2.083  0.00  0.00    +0.000 A 
ATOM     24  N   UNL     1       5.005  -5.128   2.727  0.00  0.00    +0.000 NA
ATOM     25  H   UNL     1       4.367  -4.044   5.503  0.00  0.00    +0.000 HD
BRANCH  22  26
ATOM     26  C   UNL     1       5.781  -8.754   1.982  0.00  0.00    +0.000 C 
ATOM     27  N   UNL     1       5.511  -8.811   0.646  0.00  0.00    +0.000 N 
ATOM     28  O   UNL     1       6.151  -9.755   2.577  0.00  0.00    +0.000 OA
ATOM     29  H   UNL     1       5.208  -8.052   0.060  0.00  0.00    +0.000 HD
ATOM     30  H   UNL     1       5.640  -9.715   0.205  0.00  0.00    +0.000 HD
ENDBRANCH  22  26
ENDBRANCH  17  18
ENDBRANCH  16  17
ENDBRANCH   5  16
TORSDOF 6
