REMARK  Name = 
REMARK  6 active torsions:
REMARK  status: ('A' for Active; 'I' for Inactive)
REMARK    1  A    between atoms: C_2  and  C_20
REMARK    2  A    between atoms: N_3  and  C_4
REMARK    3  A    between atoms: C_4  and  C_5
REMARK    4  A    between atoms: C_8  and  C_9
REMARK    5  A    between atoms: C_9  and  C_10
REMARK    6  A    between atoms: C_10  and  C_11
REMARK                            x       y       z     vdW  Elec       q    Type
REMARK                         _______ _______ _______ _____ _____    ______ ____
ROOT
ATOM      1  C   UNL     1       2.322   1.579  -1.961  0.00  0.00    +0.000 C 
ENDROOT
BRANCH   1   2
ATOM      2  C   UNL     1       3.266   2.336  -2.858  0.00  0.00    +0.000 A 
ATOM      3  C   UNL     1       3.119   3.717  -3.027  0.00  0.00    +0.000 A 
ATOM      4  C   UNL     1       3.984   4.430  -3.863  0.00  0.00    +0.000 A 
ATOM      5  C   UNL     1       5.015   3.778  -4.551  0.00  0.00    +0.000 A 
ATOM      6  C   UNL     1       5.146   2.391  -4.401  0.00  0.00    +0.000 A 
ATOM      7  C   UNL     1       4.276   1.675  -3.570  0.00  0.00    +0.000 A 
BRANCH   5   8
ATOM      8  C   UNL     1       5.933   4.533  -5.487  0.00  0.00    +0.000 C 
BRANCH   8   9
ATOM      9  C   UNL     1       6.719   5.654  -4.803  0.00  0.00    +0.000 C 
BRANCH   9  10
ATOM     10  C   UNL     1       7.637   6.378  -5.776  0.00  0.00    +0.000 C 
ATOM     11  O   UNL     1       7.755   6.026  -6.949  0.00  0.00    +0.000 OA
ATOM     12  N   UNL     1       8.314   7.470  -5.274  0.00  0.00    +0.000 N 
ATOM     13  C   UNL     1       8.325   7.961  -3.909  0.00  0.00    +0.000 C 
ATOM     14  C   UNL     1       8.574   9.448  -4.082  0.00  0.00    +0.000 C 
ATOM     15  C   UNL     1       9.516   9.514  -5.280  0.00  0.00    +0.000 C 
ATOM     16  C   UNL     1       9.148   8.298  -6.128  0.00  0.00    +0.000 C 
ENDBRANCH   9  10
ENDBRANCH   8   9
ENDBRANCH   5   8
ENDBRANCH   1   2
BRANCH   1  19
ATOM     17  O   UNL     1      -0.167   2.898  -2.204  0.00  0.00    +0.000 OA
ATOM     18  C   UNL     1       0.013   1.839  -2.800  0.00  0.00    +0.000 C 
ATOM     19  N   UNL     1       1.168   1.109  -2.682  0.00  0.00    +0.000 N 
ATOM     20  H   UNL     1       1.340   0.358  -3.341  0.00  0.00    +0.000 HD
BRANCH  18  21
ATOM     21  C   UNL     1      -1.034   1.242  -3.637  0.00  0.00    +0.000 A 
ATOM     22  C   UNL     1      -2.368   1.553  -3.413  0.00  0.00    +0.000 A 
ATOM     23  S   UNL     1      -3.442   0.737  -4.458  0.00  0.00    +0.000 S 
ATOM     24  C   UNL     1      -2.159  -0.023  -5.277  0.00  0.00    +0.000 A 
ATOM     25  N   UNL     1      -2.389  -0.863  -6.321  0.00  0.00    +0.000 NA
ATOM     26  C   UNL     1      -1.322  -1.334  -6.877  0.00  0.00    +0.000 A 
ATOM     27  N   UNL     1      -0.043  -1.047  -6.476  0.00  0.00    +0.000 N 
ATOM     28  C   UNL     1       0.233  -0.271  -5.379  0.00  0.00    +0.000 A 
ATOM     29  O   UNL     1       1.384  -0.155  -4.963  0.00  0.00    +0.000 OA
ATOM     30  C   UNL     1      -0.929   0.323  -4.747  0.00  0.00    +0.000 A 
ATOM     31  H   UNL     1       0.752  -1.471  -6.931  0.00  0.00    +0.000 HD
ENDBRANCH  18  21
ENDBRANCH   1  19
TORSDOF 6
