REMARK  Name = 
REMARK  9 active torsions:
REMARK  status: ('A' for Active; 'I' for Inactive)
REMARK    1  A    between atoms: C_1  and  O_2
REMARK    2  A    between atoms: O_2  and  C_3
REMARK    3  A    between atoms: C_10  and  C_11
REMARK    4  A    between atoms: N_13  and  C_14
REMARK    5  A    between atoms: C_14  and  C_15
REMARK    6  A    between atoms: C_18  and  C_19
REMARK    7  A    between atoms: C_19  and  N_20
REMARK    8  A    between atoms: N_20  and  C_21
REMARK    9  A    between atoms: C_21  and  C_22
REMARK                            x       y       z     vdW  Elec       q    Type
REMARK                         _______ _______ _______ _____ _____    ______ ____
ROOT
ATOM      1  C   UNL     1       2.404  -3.005   1.637  0.00  0.00    +0.000 A 
ATOM      2  C   UNL     1       1.627  -4.070   2.111  0.00  0.00    +0.000 A 
ATOM      3  C   UNL     1       0.662  -3.864   3.104  0.00  0.00    +0.000 A 
ATOM      4  C   UNL     1       0.441  -2.587   3.641  0.00  0.00    +0.000 A 
ATOM      5  C   UNL     1       1.220  -1.523   3.166  0.00  0.00    +0.000 A 
ATOM      6  C   UNL     1       2.188  -1.729   2.175  0.00  0.00    +0.000 A 
ENDROOT
BRANCH   1   7
ATOM      7  C   UNL     1       3.406  -3.222   0.528  0.00  0.00    +0.000 C 
BRANCH   7  10
ATOM      8  C   UNL     1       3.469  -3.191  -1.942  0.00  0.00    +0.000 C 
ATOM      9  O   UNL     1       4.660  -3.491  -1.957  0.00  0.00    +0.000 OA
ATOM     10  N   UNL     1       2.788  -3.042  -0.765  0.00  0.00    +0.000 N 
ATOM     11  H   UNL     1       1.796  -2.859  -0.777  0.00  0.00    +0.000 HD
BRANCH   8  19
ATOM     12  C   UNL     1       0.194  -2.364  -2.622  0.00  0.00    +0.000 A 
ATOM     13  N   UNL     1      -0.979  -1.967  -3.155  0.00  0.00    +0.000 NA
ATOM     14  C   UNL     1      -1.045  -1.801  -4.478  0.00  0.00    +0.000 A 
ATOM     15  N   UNL     1      -0.067  -2.000  -5.360  0.00  0.00    +0.000 NA
ATOM     16  C   UNL     1       1.085  -2.384  -4.787  0.00  0.00    +0.000 A 
ATOM     17  S   UNL     1       2.441  -2.695  -5.761  0.00  0.00    +0.000 S 
ATOM     18  C   UNL     1       3.396  -3.061  -4.404  0.00  0.00    +0.000 A 
ATOM     19  C   UNL     1       2.720  -2.952  -3.193  0.00  0.00    +0.000 A 
ATOM     20  C   UNL     1       1.326  -2.577  -3.429  0.00  0.00    +0.000 A 
BRANCH  12  22
ATOM     21  C   UNL     1      -0.944  -2.258  -0.565  0.00  0.00    +0.000 C 
ATOM     22  O   UNL     1       0.255  -2.584  -1.262  0.00  0.00    +0.000 OA
ENDBRANCH  12  22
ENDBRANCH   8  19
ENDBRANCH   7  10
ENDBRANCH   1   7
BRANCH   4  23
ATOM     23  C   UNL     1      -0.622  -2.364   4.698  0.00  0.00    +0.000 C 
BRANCH  23  24
ATOM     24  N   UNL     1      -0.337  -3.152   5.893  0.00  0.00    +0.000 NA
ATOM     25  H   UNL     1       0.583  -2.887   6.246  0.00  0.00    +0.000 HD
BRANCH  24  26
ATOM     26  C   UNL     1      -1.323  -2.938   6.953  0.00  0.00    +0.000 C 
BRANCH  26  27
ATOM     27  C   UNL     1      -0.955  -3.758   8.165  0.00  0.00    +0.000 A 
ATOM     28  C   UNL     1      -0.851  -5.155   8.077  0.00  0.00    +0.000 A 
ATOM     29  C   UNL     1      -0.415  -5.907   9.171  0.00  0.00    +0.000 A 
ATOM     30  C   UNL     1      -0.093  -5.274  10.371  0.00  0.00    +0.000 A 
ATOM     31  C   UNL     1      -0.229  -3.891  10.483  0.00  0.00    +0.000 A 
ATOM     32  C   UNL     1      -0.662  -3.147   9.387  0.00  0.00    +0.000 A 
ATOM     33  F   UNL     1      -0.773  -1.817   9.518  0.00  0.00    +0.000 F 
ENDBRANCH  26  27
ENDBRANCH  24  26
ENDBRANCH  23  24
ENDBRANCH   4  23
TORSDOF 8
