REMARK  Name = 
REMARK  7 active torsions:
REMARK  status: ('A' for Active; 'I' for Inactive)
REMARK    1  A    between atoms: N_1  and  C_2
REMARK    2  A    between atoms: C_2  and  C_3
REMARK    3  A    between atoms: C_7  and  C_8
REMARK    4  A    between atoms: C_8  and  C_9
REMARK    5  A    between atoms: C_9  and  C_10
REMARK    6  A    between atoms: C_10  and  C_11
REMARK    7  A    between atoms: C_14  and  C_15
REMARK                            x       y       z     vdW  Elec       q    Type
REMARK                         _______ _______ _______ _____ _____    ______ ____
ROOT
ATOM      1  C   UNL     1       3.464   2.013   5.877  0.00  0.00    +0.000 C 
ENDROOT
BRANCH   1   2
ATOM      2  C   UNL     1       3.532   0.893   4.835  0.00  0.00    +0.000 C 
BRANCH   2   7
ATOM      3  C   UNL     1       2.358   2.418   1.537  0.00  0.00    +0.000 A 
ATOM      4  C   UNL     1       3.584   2.682   0.913  0.00  0.00    +0.000 A 
ATOM      5  C   UNL     1       4.782   2.336   1.536  0.00  0.00    +0.000 A 
ATOM      6  C   UNL     1       4.769   1.733   2.794  0.00  0.00    +0.000 A 
ATOM      7  C   UNL     1       3.556   1.461   3.437  0.00  0.00    +0.000 A 
ATOM      8  C   UNL     1       2.356   1.803   2.797  0.00  0.00    +0.000 A 
BRANCH   3   9
ATOM      9  C   UNL     1       1.065   2.872   0.913  0.00  0.00    +0.000 C 
BRANCH   9  10
ATOM     10  N   UNL     1       0.671   4.172   1.443  0.00  0.00    +0.000 NA
ATOM     11  H   UNL     1      -0.094   4.547   0.888  0.00  0.00    +0.000 HD
ATOM     12  H   UNL     1       1.452   4.819   1.340  0.00  0.00    +0.000 HD
ENDBRANCH   9  10
ENDBRANCH   3   9
ENDBRANCH   2   7
ENDBRANCH   1   2
BRANCH   1  13
ATOM     13  C   UNL     1       3.408   1.459   7.301  0.00  0.00    +0.000 C 
BRANCH  13  14
ATOM     14  C   UNL     1       3.339   2.567   8.327  0.00  0.00    +0.000 A 
ATOM     15  C   UNL     1       2.104   3.127   8.681  0.00  0.00    +0.000 A 
ATOM     16  C   UNL     1       2.039   4.171   9.608  0.00  0.00    +0.000 A 
ATOM     17  C   UNL     1       3.208   4.665  10.198  0.00  0.00    +0.000 A 
ATOM     18  C   UNL     1       4.446   4.122   9.836  0.00  0.00    +0.000 A 
ATOM     19  C   UNL     1       4.508   3.080   8.905  0.00  0.00    +0.000 A 
BRANCH  17  20
ATOM     20  C   UNL     1       3.086   5.780  11.175  0.00  0.00    +0.000 C 
ATOM     21  N   UNL     1       4.083   5.921  12.101  0.00  0.00    +0.000 N 
ATOM     22  O   UNL     1       2.114   6.526  11.185  0.00  0.00    +0.000 OA
ATOM     23  H   UNL     1       4.763   5.198  12.283  0.00  0.00    +0.000 HD
ATOM     24  H   UNL     1       3.924   6.613  12.823  0.00  0.00    +0.000 HD
ENDBRANCH  17  20
ENDBRANCH  13  14
ENDBRANCH   1  13
TORSDOF 7
