REMARK  Name = 
REMARK  3 active torsions:
REMARK  status: ('A' for Active; 'I' for Inactive)
REMARK    1  A    between atoms: C_2  and  C_4
REMARK    2  A    between atoms: N_8  and  C_9
REMARK    3  A    between atoms: C_9  and  C_10
REMARK                            x       y       z     vdW  Elec       q    Type
REMARK                         _______ _______ _______ _____ _____    ______ ____
ROOT
ATOM      1  C   UNL     1       3.267  -1.403   0.226  0.00  0.00    +0.000 A 
ATOM      2  C   UNL     1       3.711  -1.124   1.515  0.00  0.00    +0.000 A 
ATOM      3  C   UNL     1       4.503  -2.065   2.179  0.00  0.00    +0.000 A 
ATOM      4  C   UNL     1       4.801  -3.285   1.570  0.00  0.00    +0.000 A 
ATOM      5  N   UNL     1       5.552  -4.214   2.285  0.00  0.00    +0.000 N 
ATOM      6  N   UNL     1       4.345  -3.573   0.336  0.00  0.00    +0.000 NA
ATOM      7  C   UNL     1       3.608  -2.635  -0.311  0.00  0.00    +0.000 A 
ATOM      8  H   UNL     1       6.503  -3.894   2.441  0.00  0.00    +0.000 HD
ENDROOT
BRANCH   1  10
ATOM      9  N   UNL     1       2.514   0.851  -0.290  0.00  0.00    +0.000 N 
ATOM     10  C   UNL     1       2.436  -0.482  -0.576  0.00  0.00    +0.000 C 
ATOM     11  O   UNL     1       1.729  -0.893  -1.490  0.00  0.00    +0.000 OA
ATOM     12  H   UNL     1       2.017   1.472  -0.916  0.00  0.00    +0.000 HD
ATOM     13  H   UNL     1       3.254   1.246   0.269  0.00  0.00    +0.000 HD
ENDBRANCH   1  10
BRANCH   5  14
ATOM     14  C   UNL     1       5.489  -5.613   1.870  0.00  0.00    +0.000 C 
BRANCH  14  15
ATOM     15  C   UNL     1       6.448  -6.031   0.769  0.00  0.00    +0.000 A 
ATOM     16  C   UNL     1       6.016  -6.093  -0.556  0.00  0.00    +0.000 A 
ATOM     17  C   UNL     1       6.869  -6.607  -1.530  0.00  0.00    +0.000 A 
ATOM     18  C   UNL     1       8.128  -7.056  -1.160  0.00  0.00    +0.000 A 
ATOM     19  C   UNL     1       8.490  -6.955   0.172  0.00  0.00    +0.000 A 
ATOM     20  N   UNL     1       7.691  -6.446   1.139  0.00  0.00    +0.000 NA
ENDBRANCH  14  15
ENDBRANCH   5  14
TORSDOF 3
