REMARK  Name = 
REMARK  5 active torsions:
REMARK  status: ('A' for Active; 'I' for Inactive)
REMARK    1  A    between atoms: N_1  and  C_2
REMARK    2  A    between atoms: C_2  and  C_3
REMARK    3  A    between atoms: C_6  and  C_7
REMARK    4  A    between atoms: C_7  and  N_8
REMARK    5  A    between atoms: C_13  and  C_14
REMARK                            x       y       z     vdW  Elec       q    Type
REMARK                         _______ _______ _______ _____ _____    ______ ____
ROOT
ATOM      1  N   UNL     1       4.631   6.456   1.289  0.00  0.00    +0.000 N 
ATOM      2  C   UNL     1       5.963   6.682   1.009  0.00  0.00    +0.000 A 
ATOM      3  C   UNL     1       6.035   7.775   0.175  0.00  0.00    +0.000 A 
ATOM      4  C   UNL     1       4.829   8.485   0.384  0.00  0.00    +0.000 A 
ATOM      5  C   UNL     1       4.434   9.823   0.204  0.00  0.00    +0.000 A 
ATOM      6  C   UNL     1       3.161  10.196   0.649  0.00  0.00    +0.000 A 
ATOM      7  C   UNL     1       2.322   9.190   1.124  0.00  0.00    +0.000 A 
ATOM      8  N   UNL     1       2.647   7.874   1.315  0.00  0.00    +0.000 NA
ATOM      9  C   UNL     1       3.930   7.607   0.991  0.00  0.00    +0.000 A 
ENDROOT
BRANCH   6  10
ATOM     10  C   UNL     1       2.834  11.646   0.678  0.00  0.00    +0.000 C 
ATOM     11  N   UNL     1       1.578  12.043   1.073  0.00  0.00    +0.000 N 
ATOM     12  O   UNL     1       3.661  12.496   0.393  0.00  0.00    +0.000 OA
ATOM     13  H   UNL     1       0.828  11.427   1.352  0.00  0.00    +0.000 HD
ATOM     14  H   UNL     1       1.413  13.027   1.142  0.00  0.00    +0.000 HD
ENDBRANCH   6  10
BRANCH   1  15
ATOM     15  C   UNL     1       4.145   5.345   2.099  0.00  0.00    +0.000 C 
BRANCH  15  19
ATOM     16  C   UNL     1       2.921   1.635   0.332  0.00  0.00    +0.000 A 
ATOM     17  C   UNL     1       2.274   2.814  -0.038  0.00  0.00    +0.000 A 
ATOM     18  C   UNL     1       2.714   4.052   0.450  0.00  0.00    +0.000 A 
ATOM     19  C   UNL     1       3.798   4.090   1.329  0.00  0.00    +0.000 A 
ATOM     20  N   UNL     1       4.458   2.958   1.672  0.00  0.00    +0.000 NA
ATOM     21  C   UNL     1       4.017   1.774   1.176  0.00  0.00    +0.000 A 
BRANCH  16  22
ATOM     22  C   UNL     1       2.397   0.264  -0.012  0.00  0.00    +0.000 C 
BRANCH  22  23
ATOM     23  N   UNL     1       1.759   0.186  -1.323  0.00  0.00    +0.000 NA
ATOM     24  H   UNL     1       1.443  -0.770  -1.482  0.00  0.00    +0.000 HD
ATOM     25  H   UNL     1       2.456   0.375  -2.040  0.00  0.00    +0.000 HD
ENDBRANCH  22  23
ENDBRANCH  16  22
ENDBRANCH  15  19
ENDBRANCH   1  15
TORSDOF 5
