REMARK  Name = 
REMARK  4 active torsions:
REMARK  status: ('A' for Active; 'I' for Inactive)
REMARK    1  A    between atoms: N_1  and  C_2
REMARK    2  A    between atoms: C_4  and  N_5
REMARK    3  A    between atoms: C_4  and  C_16
REMARK    4  A    between atoms: C_9  and  C_10
REMARK                            x       y       z     vdW  Elec       q    Type
REMARK                         _______ _______ _______ _____ _____    ______ ____
ROOT
ATOM      1  C   UNL     1       1.946   0.477   0.462  0.00  0.00    +0.000 C 
ATOM      2  C   UNL     1       2.750  -0.793   0.767  0.00  0.00    +0.000 C 
ATOM      3  C   UNL     1       4.046   0.058   1.016  0.00  0.00    +0.000 C 
ATOM      4  C   UNL     1       3.141   1.338   0.883  0.00  0.00    +0.000 C 
ENDROOT
BRANCH   3   5
ATOM      5  N   UNL     1       4.431  -0.103   2.427  0.00  0.00    +0.000 N 
ATOM      6  C   UNL     1       5.175   0.871   3.143  0.00  0.00    +0.000 A 
ATOM      7  C   UNL     1       5.142   0.847   4.531  0.00  0.00    +0.000 A 
ATOM      8  C   UNL     1       5.843   1.812   5.256  0.00  0.00    +0.000 A 
ATOM      9  C   UNL     1       6.609   2.763   4.577  0.00  0.00    +0.000 A 
ATOM     10  C   UNL     1       6.614   2.693   3.196  0.00  0.00    +0.000 A 
ATOM     11  N   UNL     1       5.896   1.797   2.477  0.00  0.00    +0.000 NA
ATOM     12  H   UNL     1       4.921  -0.990   2.552  0.00  0.00    +0.000 HD
BRANCH   9  13
ATOM     13  C   UNL     1       7.399   3.831   5.274  0.00  0.00    +0.000 C 
ATOM     14  F   UNL     1       7.224   3.845   6.620  0.00  0.00    +0.000 F 
ATOM     15  F   UNL     1       8.741   3.698   5.071  0.00  0.00    +0.000 F 
ATOM     16  F   UNL     1       7.079   5.078   4.839  0.00  0.00    +0.000 F 
ENDBRANCH   9  13
ENDBRANCH   3   5
BRANCH   3  17
ATOM     17  C   UNL     1       5.291  -0.135   0.108  0.00  0.00    +0.000 C 
ATOM     18  C   UNL     1       5.141   0.181  -1.377  0.00  0.00    +0.000 C 
ATOM     19  C   UNL     1       4.524  -0.942  -2.192  0.00  0.00    +0.000 C 
ATOM     20  C   UNL     1       5.164  -2.279  -1.871  0.00  0.00    +0.000 C 
ATOM     21  C   UNL     1       5.337  -2.518  -0.377  0.00  0.00    +0.000 C 
ATOM     22  O   UNL     1       5.910  -1.421   0.320  0.00  0.00    +0.000 OA
ENDBRANCH   3  17
BRANCH   1  23
ATOM     23  N   UNL     1       1.715   0.614  -0.975  0.00  0.00    +0.000 NA
ATOM     24  H   UNL     1       1.401  -0.229  -1.454  0.00  0.00    +0.000 HD
ATOM     25  H   UNL     1       2.466   1.021  -1.529  0.00  0.00    +0.000 HD
ENDBRANCH   1  23
TORSDOF 4
