REMARK  Name = 
REMARK  6 active torsions:
REMARK  status: ('A' for Active; 'I' for Inactive)
REMARK    1  A    between atoms: C_2  and  C_25
REMARK    2  A    between atoms: N_3  and  C_4
REMARK    3  A    between atoms: C_4  and  C_5
REMARK    4  A    between atoms: C_8  and  C_9
REMARK    5  A    between atoms: C_9  and  N_10
REMARK    6  A    between atoms: C_11  and  C_13
REMARK                            x       y       z     vdW  Elec       q    Type
REMARK                         _______ _______ _______ _____ _____    ______ ____
ROOT
ATOM      1  C   UNL     1       3.280   2.707  -2.331  0.00  0.00    +0.000 A 
ATOM      2  C   UNL     1       2.981   4.075  -2.369  0.00  0.00    +0.000 A 
ATOM      3  C   UNL     1       3.821   4.973  -3.038  0.00  0.00    +0.000 A 
ATOM      4  C   UNL     1       4.967   4.516  -3.703  0.00  0.00    +0.000 A 
ATOM      5  C   UNL     1       5.271   3.148  -3.654  0.00  0.00    +0.000 A 
ATOM      6  C   UNL     1       4.431   2.251  -2.986  0.00  0.00    +0.000 A 
ENDROOT
BRANCH   1   7
ATOM      7  C   UNL     1       2.368   1.742  -1.619  0.00  0.00    +0.000 C 
BRANCH   7  10
ATOM      8  O   UNL     1       0.384  -0.029  -0.865  0.00  0.00    +0.000 OA
ATOM      9  C   UNL     1       0.387   0.352  -2.034  0.00  0.00    +0.000 C 
ATOM     10  N   UNL     1       1.349   1.225  -2.497  0.00  0.00    +0.000 N 
ATOM     11  H   UNL     1       1.310   1.537  -3.458  0.00  0.00    +0.000 HD
BRANCH   9  12
ATOM     12  C   UNL     1      -0.618  -0.073  -3.001  0.00  0.00    +0.000 A 
ATOM     13  C   UNL     1      -1.707  -0.892  -2.753  0.00  0.00    +0.000 A 
ATOM     14  C   UNL     1      -2.507  -1.112  -3.911  0.00  0.00    +0.000 A 
ATOM     15  C   UNL     1      -2.000  -0.463  -5.013  0.00  0.00    +0.000 A 
ATOM     16  S   UNL     1      -0.576   0.409  -4.646  0.00  0.00    +0.000 S 
ENDBRANCH   9  12
ENDBRANCH   7  10
ENDBRANCH   1   7
BRANCH   4  17
ATOM     17  C   UNL     1       5.876   5.470  -4.438  0.00  0.00    +0.000 C 
BRANCH  17  18
ATOM     18  N   UNL     1       6.913   5.983  -3.580  0.00  0.00    +0.000 N 
ATOM     19  C   UNL     1       7.821   6.908  -4.032  0.00  0.00    +0.000 C 
ATOM     20  O   UNL     1       7.772   7.369  -5.170  0.00  0.00    +0.000 OA
ATOM     21  H   UNL     1       7.133   5.440  -2.752  0.00  0.00    +0.000 HD
BRANCH  19  22
ATOM     22  C   UNL     1       8.822   7.370  -3.062  0.00  0.00    +0.000 A 
ATOM     23  C   UNL     1       9.415   8.616  -3.217  0.00  0.00    +0.000 A 
ATOM     24  S   UNL     1      10.509   9.013  -1.969  0.00  0.00    +0.000 S 
ATOM     25  C   UNL     1      10.272   7.509  -1.209  0.00  0.00    +0.000 A 
ATOM     26  N   UNL     1      10.951   7.183  -0.076  0.00  0.00    +0.000 NA
ATOM     27  C   UNL     1      10.702   5.995   0.372  0.00  0.00    +0.000 A 
ATOM     28  N   UNL     1       9.829   5.111  -0.207  0.00  0.00    +0.000 N 
ATOM     29  C   UNL     1       9.097   5.409  -1.330  0.00  0.00    +0.000 A 
ATOM     30  O   UNL     1       8.287   4.613  -1.795  0.00  0.00    +0.000 OA
ATOM     31  C   UNL     1       9.354   6.725  -1.884  0.00  0.00    +0.000 A 
ATOM     32  H   UNL     1       9.669   4.200   0.197  0.00  0.00    +0.000 HD
ENDBRANCH  19  22
ENDBRANCH  17  18
ENDBRANCH   4  17
TORSDOF 6
