REMARK  Name = 
REMARK  4 active torsions:
REMARK  status: ('A' for Active; 'I' for Inactive)
REMARK    1  A    between atoms: C_2  and  C_4
REMARK    2  A    between atoms: C_7  and  C_8
REMARK    3  A    between atoms: C_8  and  C_9
REMARK    4  A    between atoms: C_9  and  C_10
REMARK                            x       y       z     vdW  Elec       q    Type
REMARK                         _______ _______ _______ _____ _____    ______ ____
ROOT
ATOM      1  C   UNL     1       3.255   0.757   0.912  0.00  0.00    +0.000 A 
ATOM      2  C   UNL     1       2.519   1.365   1.916  0.00  0.00    +0.000 A 
ATOM      3  C   UNL     1       3.196   2.147   2.848  0.00  0.00    +0.000 A 
ATOM      4  C   UNL     1       4.585   2.291   2.769  0.00  0.00    +0.000 A 
ATOM      5  C   UNL     1       5.226   1.658   1.702  0.00  0.00    +0.000 A 
ATOM      6  N   UNL     1       4.604   0.889   0.776  0.00  0.00    +0.000 NA
ENDROOT
BRANCH   1   8
ATOM      7  N   UNL     1       3.353  -0.700  -1.024  0.00  0.00    +0.000 N 
ATOM      8  C   UNL     1       2.550  -0.104  -0.092  0.00  0.00    +0.000 C 
ATOM      9  O   UNL     1       1.338  -0.275  -0.082  0.00  0.00    +0.000 OA
ATOM     10  H   UNL     1       2.943  -1.304  -1.721  0.00  0.00    +0.000 HD
ATOM     11  H   UNL     1       4.354  -0.543  -0.997  0.00  0.00    +0.000 HD
ENDBRANCH   1   8
BRANCH   4  12
ATOM     12  C   UNL     1       5.379   3.137   3.738  0.00  0.00    +0.000 C 
BRANCH  12  13
ATOM     13  C   UNL     1       4.828   3.152   5.173  0.00  0.00    +0.000 C 
BRANCH  13  14
ATOM     14  C   UNL     1       5.673   3.972   6.113  0.00  0.00    +0.000 A 
ATOM     15  C   UNL     1       5.404   5.329   6.311  0.00  0.00    +0.000 A 
ATOM     16  C   UNL     1       6.196   6.042   7.198  0.00  0.00    +0.000 A 
ATOM     17  N   UNL     1       7.225   5.503   7.885  0.00  0.00    +0.000 NA
ATOM     18  C   UNL     1       7.471   4.192   7.676  0.00  0.00    +0.000 A 
ATOM     19  C   UNL     1       6.736   3.396   6.811  0.00  0.00    +0.000 A 
ENDBRANCH  13  14
ENDBRANCH  12  13
ENDBRANCH   4  12
TORSDOF 4
