REMARK  Name = 
REMARK  5 active torsions:
REMARK  status: ('A' for Active; 'I' for Inactive)
REMARK    1  A    between atoms: C_2  and  C_4
REMARK    2  A    between atoms: C_7  and  O_8
REMARK    3  A    between atoms: O_8  and  C_9
REMARK    4  A    between atoms: C_9  and  C_10
REMARK    5  A    between atoms: C_15  and  C_16
REMARK                            x       y       z     vdW  Elec       q    Type
REMARK                         _______ _______ _______ _____ _____    ______ ____
ROOT
ATOM      1  C   UNL     1       5.238  -5.345  -2.311  0.00  0.00    +0.000 C 
ENDROOT
BRANCH   1   2
ATOM      2  C   UNL     1       6.185  -6.526  -2.386  0.00  0.00    +0.000 A 
ATOM      3  C   UNL     1       5.714  -7.839  -2.390  0.00  0.00    +0.000 A 
ATOM      4  C   UNL     1       6.611  -8.900  -2.469  0.00  0.00    +0.000 A 
ATOM      5  C   UNL     1       7.992  -8.671  -2.566  0.00  0.00    +0.000 A 
ATOM      6 CL   UNL     1       8.980 -10.097  -2.544  0.00  0.00    +0.000 Cl
ATOM      7  C   UNL     1       8.511  -7.359  -2.627  0.00  0.00    +0.000 A 
ATOM      8  C   UNL     1       7.569  -6.304  -2.534  0.00  0.00    +0.000 A 
BRANCH   7   9
ATOM      9  C   UNL     1       9.952  -7.045  -2.808  0.00  0.00    +0.000 A 
ATOM     10  C   UNL     1      10.566  -5.926  -2.237  0.00  0.00    +0.000 A 
ATOM     11  C   UNL     1      11.916  -5.674  -2.488  0.00  0.00    +0.000 A 
ATOM     12  C   UNL     1      12.637  -6.553  -3.282  0.00  0.00    +0.000 A 
ATOM     13  C   UNL     1      11.968  -7.639  -3.810  0.00  0.00    +0.000 A 
ATOM     14  N   UNL     1      10.654  -7.882  -3.610  0.00  0.00    +0.000 NA
ENDBRANCH   7   9
ENDBRANCH   1   2
BRANCH   1  15
ATOM     15  O   UNL     1       4.065  -5.688  -1.564  0.00  0.00    +0.000 OA
BRANCH  15  19
ATOM     16  C   UNL     1       1.330  -2.624  -1.305  0.00  0.00    +0.000 A 
ATOM     17  C   UNL     1       1.043  -3.856  -0.715  0.00  0.00    +0.000 A 
ATOM     18  C   UNL     1       1.977  -4.889  -0.815  0.00  0.00    +0.000 A 
ATOM     19  C   UNL     1       3.163  -4.648  -1.496  0.00  0.00    +0.000 A 
ATOM     20  N   UNL     1       3.460  -3.469  -2.081  0.00  0.00    +0.000 NA
ATOM     21  C   UNL     1       2.534  -2.487  -1.982  0.00  0.00    +0.000 A 
BRANCH  16  23
ATOM     22  N   UNL     1      -0.450  -1.381  -0.209  0.00  0.00    +0.000 N 
ATOM     23  C   UNL     1       0.420  -1.461  -1.259  0.00  0.00    +0.000 C 
ATOM     24  O   UNL     1       0.466  -0.582  -2.107  0.00  0.00    +0.000 OA
ATOM     25  H   UNL     1      -0.980  -0.519  -0.135  0.00  0.00    +0.000 HD
ATOM     26  H   UNL     1      -0.352  -1.937   0.629  0.00  0.00    +0.000 HD
ENDBRANCH  16  23
ENDBRANCH  15  19
ENDBRANCH   1  15
TORSDOF 5
