REMARK  Name = 
REMARK  5 active torsions:
REMARK  status: ('A' for Active; 'I' for Inactive)
REMARK    1  A    between atoms: N_1  and  C_2
REMARK    2  A    between atoms: C_2  and  C_3
REMARK    3  A    between atoms: C_3  and  C_4
REMARK    4  A    between atoms: C_7  and  C_8
REMARK    5  A    between atoms: C_8  and  N_9
REMARK                            x       y       z     vdW  Elec       q    Type
REMARK                         _______ _______ _______ _____ _____    ______ ____
ROOT
ATOM      1  C   UNL     1       4.505   1.373  -0.073  0.00  0.00    +0.000 A 
ATOM      2  C   UNL     1       5.170   2.605  -0.089  0.00  0.00    +0.000 A 
ATOM      3  C   UNL     1       6.565   2.661  -0.032  0.00  0.00    +0.000 A 
ATOM      4  C   UNL     1       7.327   1.485   0.032  0.00  0.00    +0.000 A 
ATOM      5  C   UNL     1       6.658   0.252   0.024  0.00  0.00    +0.000 A 
ATOM      6  C   UNL     1       5.263   0.197  -0.033  0.00  0.00    +0.000 A 
ENDROOT
BRANCH   1   7
ATOM      7  C   UNL     1       2.995   1.315  -0.077  0.00  0.00    +0.000 C 
BRANCH   7   8
ATOM      8  C   UNL     1       2.402   1.294  -1.489  0.00  0.00    +0.000 C 
BRANCH   8   9
ATOM      9  N   UNL     1       0.940   1.275  -1.437  0.00  0.00    +0.000 NA
ATOM     10  H   UNL     1       0.566   1.290  -2.385  0.00  0.00    +0.000 HD
ATOM     11  H   UNL     1       0.599   2.122  -0.983  0.00  0.00    +0.000 HD
ENDBRANCH   8   9
ENDBRANCH   7   8
ENDBRANCH   1   7
BRANCH   4  12
ATOM     12  C   UNL     1       8.831   1.544   0.109  0.00  0.00    +0.000 C 
BRANCH  12  13
ATOM     13  N   UNL     1       9.317   1.588   1.478  0.00  0.00    +0.000 N 
ATOM     14  C   UNL     1       9.585   0.488   2.248  0.00  0.00    +0.000 A 
ATOM     15  N   UNL     1      10.155   0.812   3.386  0.00  0.00    +0.000 NA
ATOM     16  C   UNL     1      10.262   2.184   3.358  0.00  0.00    +0.000 A 
ATOM     17  C   UNL     1      10.810   3.067   4.295  0.00  0.00    +0.000 A 
ATOM     18  N   UNL     1      10.819   4.406   4.054  0.00  0.00    +0.000 NA
ATOM     19  C   UNL     1      10.287   4.861   2.896  0.00  0.00    +0.000 A 
ATOM     20  C   UNL     1       9.724   4.067   1.905  0.00  0.00    +0.000 A 
ATOM     21  C   UNL     1       9.735   2.699   2.173  0.00  0.00    +0.000 A 
ENDBRANCH  12  13
ENDBRANCH   4  12
TORSDOF 5
