REMARK  Name = 
REMARK  6 active torsions:
REMARK  status: ('A' for Active; 'I' for Inactive)
REMARK    1  A    between atoms: C_1  and  C_2
REMARK    2  A    between atoms: N_7  and  C_8
REMARK    3  A    between atoms: C_12  and  C_13
REMARK    4  A    between atoms: C_13  and  N_14
REMARK    5  A    between atoms: N_14  and  C_15
REMARK    6  A    between atoms: C_18  and  C_19
REMARK                            x       y       z     vdW  Elec       q    Type
REMARK                         _______ _______ _______ _____ _____    ______ ____
ROOT
ATOM      1  C   UNL     1       6.686  -4.648  -0.130  0.00  0.00    +0.000 C 
ATOM      2  C   UNL     1       8.055  -4.381   0.463  0.00  0.00    +0.000 C 
ATOM      3  C   UNL     1       7.693  -3.728  -0.827  0.00  0.00    +0.000 C 
ENDROOT
BRANCH   1   8
ATOM      4  C   UNL     1       3.610  -2.361   0.387  0.00  0.00    +0.000 A 
ATOM      5  C   UNL     1       3.274  -2.696   1.703  0.00  0.00    +0.000 A 
ATOM      6  C   UNL     1       3.995  -3.655   2.421  0.00  0.00    +0.000 A 
ATOM      7  C   UNL     1       5.086  -4.293   1.836  0.00  0.00    +0.000 A 
ATOM      8  C   UNL     1       5.477  -3.991   0.527  0.00  0.00    +0.000 A 
ATOM      9  C   UNL     1       4.708  -3.036  -0.170  0.00  0.00    +0.000 A 
BRANCH   4  16
ATOM     10  C   UNL     1       3.395  -0.527  -2.598  0.00  0.00    +0.000 C 
ATOM     11  C   UNL     1       2.661  -1.597  -1.786  0.00  0.00    +0.000 C 
ATOM     12  C   UNL     1       1.136  -1.555  -2.039  0.00  0.00    +0.000 C 
ATOM     13  O   UNL     1       0.518  -0.378  -1.492  0.00  0.00    +0.000 OA
ATOM     14  C   UNL     1       0.721  -0.331  -0.069  0.00  0.00    +0.000 C 
ATOM     15  C   UNL     1       2.212  -0.282   0.285  0.00  0.00    +0.000 C 
ATOM     16  N   UNL     1       2.926  -1.406  -0.342  0.00  0.00    +0.000 N 
ENDBRANCH   4  16
ENDBRANCH   1   8
BRANCH   1  17
ATOM     17  N   UNL     1       6.359  -5.835  -0.926  0.00  0.00    +0.000 N 
ATOM     18  H   UNL     1       5.744  -5.664  -1.718  0.00  0.00    +0.000 HD
BRANCH  17  19
ATOM     19  C   UNL     1       6.335  -7.176  -0.509  0.00  0.00    +0.000 A 
ATOM     20  C   UNL     1       6.727  -7.625   0.753  0.00  0.00    +0.000 A 
ATOM     21  C   UNL     1       6.792  -9.002   1.041  0.00  0.00    +0.000 A 
ATOM     22  C   UNL     1       6.494  -9.946   0.051  0.00  0.00    +0.000 A 
ATOM     23  C   UNL     1       6.111  -9.506  -1.217  0.00  0.00    +0.000 A 
ATOM     24  C   UNL     1       6.034  -8.139  -1.486  0.00  0.00    +0.000 A 
BRANCH  22  25
ATOM     25  C   UNL     1       6.622 -11.413   0.260  0.00  0.00    +0.000 C 
ATOM     26  N   UNL     1       6.520 -11.885   1.540  0.00  0.00    +0.000 N 
ATOM     27  O   UNL     1       6.778 -12.186  -0.676  0.00  0.00    +0.000 OA
ATOM     28  H   UNL     1       6.141 -11.331   2.292  0.00  0.00    +0.000 HD
ATOM     29  H   UNL     1       6.503 -12.892   1.636  0.00  0.00    +0.000 HD
ENDBRANCH  22  25
ENDBRANCH  17  19
ENDBRANCH   1  17
TORSDOF 5
