REMARK  Name = 
REMARK  8 active torsions:
REMARK  status: ('A' for Active; 'I' for Inactive)
REMARK    1  A    between atoms: C_1  and  C_2
REMARK    2  A    between atoms: C_2  and  C_3
REMARK    3  A    between atoms: C_2  and  C_4
REMARK    4  A    between atoms: C_6  and  N_7
REMARK    5  A    between atoms: N_7  and  C_8
REMARK    6  A    between atoms: C_8  and  C_9
REMARK    7  A    between atoms: C_13  and  C_14
REMARK    8  A    between atoms: C_23  and  C_24
REMARK                            x       y       z     vdW  Elec       q    Type
REMARK                         _______ _______ _______ _____ _____    ______ ____
ROOT
ATOM      1  N   UNL     1       2.190  -4.927   0.198  0.00  0.00    +0.000 N 
ATOM      2  H   UNL     1       2.199  -5.662  -0.502  0.00  0.00    +0.000 HD
ENDROOT
BRANCH   1   5
ATOM      3  C   UNL     1       3.260  -1.397  -0.264  0.00  0.00    +0.000 A 
ATOM      4  C   UNL     1       2.673  -2.537   0.298  0.00  0.00    +0.000 A 
ATOM      5  C   UNL     1       2.732  -3.772  -0.354  0.00  0.00    +0.000 A 
ATOM      6  N   UNL     1       3.378  -3.917  -1.527  0.00  0.00    +0.000 NA
ATOM      7  C   UNL     1       3.975  -2.803  -2.053  0.00  0.00    +0.000 A 
ATOM      8  C   UNL     1       3.938  -1.545  -1.469  0.00  0.00    +0.000 A 
BRANCH   7   9
ATOM      9  C   UNL     1       4.728  -2.969  -3.340  0.00  0.00    +0.000 C 
ATOM     10  N   UNL     1       4.738  -4.234  -3.861  0.00  0.00    +0.000 N 
ATOM     11  O   UNL     1       5.304  -2.044  -3.897  0.00  0.00    +0.000 OA
ATOM     12  H   UNL     1       4.286  -4.988  -3.355  0.00  0.00    +0.000 HD
ATOM     13  H   UNL     1       5.262  -4.418  -4.703  0.00  0.00    +0.000 HD
ENDBRANCH   7   9
BRANCH   3  15
ATOM     14  C   UNL     1       4.506   0.517   0.805  0.00  0.00    +0.000 C 
ATOM     15  C   UNL     1       3.139  -0.059   0.436  0.00  0.00    +0.000 C 
ATOM     16  C   UNL     1       2.335   0.928  -0.414  0.00  0.00    +0.000 C 
ENDBRANCH   3  15
ENDBRANCH   1   5
BRANCH   1  17
ATOM     17  C   UNL     1       0.983  -4.823   0.995  0.00  0.00    +0.000 C 
BRANCH  17  18
ATOM     18  C   UNL     1       0.516  -6.184   1.444  0.00  0.00    +0.000 A 
ATOM     19  C   UNL     1       1.005  -6.763   2.616  0.00  0.00    +0.000 A 
ATOM     20  C   UNL     1       0.496  -7.989   3.010  0.00  0.00    +0.000 A 
ATOM     21  N   UNL     1      -0.442  -8.670   2.318  0.00  0.00    +0.000 NA
ATOM     22  C   UNL     1      -0.892  -8.130   1.158  0.00  0.00    +0.000 A 
ATOM     23  C   UNL     1      -0.437  -6.891   0.703  0.00  0.00    +0.000 A 
BRANCH  22  24
ATOM     24  C   UNL     1      -1.877  -8.934   0.410  0.00  0.00    +0.000 A 
ATOM     25  C   UNL     1      -2.820  -9.739   1.080  0.00  0.00    +0.000 A 
ATOM     26  C   UNL     1      -3.745 -10.521   0.377  0.00  0.00    +0.000 A 
ATOM     27  C   UNL     1      -3.741 -10.515  -1.014  0.00  0.00    +0.000 A 
ATOM     28  C   UNL     1      -2.818  -9.728  -1.686  0.00  0.00    +0.000 A 
ATOM     29  F   UNL     1      -2.806  -9.721  -3.026  0.00  0.00    +0.000 F 
ATOM     30  C   UNL     1      -1.897  -8.947  -0.995  0.00  0.00    +0.000 A 
ENDBRANCH  22  24
ENDBRANCH  17  18
ENDBRANCH   1  17
TORSDOF 6
