REMARK  Name = 
REMARK  8 active torsions:
REMARK  status: ('A' for Active; 'I' for Inactive)
REMARK    1  A    between atoms: C_1  and  O_2
REMARK    2  A    between atoms: O_2  and  C_3
REMARK    3  A    between atoms: C_10  and  C_11
REMARK    4  A    between atoms: N_13  and  C_14
REMARK    5  A    between atoms: C_14  and  C_15
REMARK    6  A    between atoms: C_18  and  N_19
REMARK    7  A    between atoms: N_19  and  C_20
REMARK    8  A    between atoms: C_20  and  C_21
REMARK                            x       y       z     vdW  Elec       q    Type
REMARK                         _______ _______ _______ _____ _____    ______ ____
ROOT
ATOM      1  C   UNL     1       3.034  -2.432   2.387  0.00  0.00    +0.000 C 
ENDROOT
BRANCH   1   2
ATOM      2  C   UNL     1       1.967  -1.641   3.103  0.00  0.00    +0.000 A 
ATOM      3  C   UNL     1       0.891  -2.284   3.727  0.00  0.00    +0.000 A 
ATOM      4  C   UNL     1      -0.092  -1.549   4.411  0.00  0.00    +0.000 A 
ATOM      5  C   UNL     1      -0.059  -0.153   4.456  0.00  0.00    +0.000 A 
ATOM      6  C   UNL     1       1.014   0.483   3.813  0.00  0.00    +0.000 A 
ATOM      7  C   UNL     1       2.010  -0.244   3.142  0.00  0.00    +0.000 A 
BRANCH   5   8
ATOM      8  N   UNL     1      -0.951   0.635   5.188  0.00  0.00    +0.000 N 
ATOM      9  H   UNL     1      -1.215   1.475   4.678  0.00  0.00    +0.000 HD
BRANCH   8  10
ATOM     10  C   UNL     1      -2.079   0.043   5.914  0.00  0.00    +0.000 C 
BRANCH  10  11
ATOM     11  C   UNL     1      -2.911   1.146   6.611  0.00  0.00    +0.000 C 
ATOM     12  C   UNL     1      -4.059   0.590   7.442  0.00  0.00    +0.000 C 
ATOM     13  C   UNL     1      -4.949   1.803   7.636  0.00  0.00    +0.000 C 
ATOM     14  C   UNL     1      -4.744   2.629   6.375  0.00  0.00    +0.000 C 
ATOM     15  N   UNL     1      -3.605   2.041   5.663  0.00  0.00    +0.000 NA
ATOM     16  H   UNL     1      -2.973   2.774   5.346  0.00  0.00    +0.000 HD
ENDBRANCH  10  11
ENDBRANCH   8  10
ENDBRANCH   5   8
ENDBRANCH   1   2
BRANCH   1  19
ATOM     17  C   UNL     1       3.473  -3.362   0.145  0.00  0.00    +0.000 C 
ATOM     18  O   UNL     1       4.520  -3.880   0.520  0.00  0.00    +0.000 OA
ATOM     19  N   UNL     1       2.690  -2.636   1.000  0.00  0.00    +0.000 N 
ATOM     20  H   UNL     1       1.853  -2.183   0.663  0.00  0.00    +0.000 HD
BRANCH  17  28
ATOM     21  C   UNL     1       0.653  -2.291  -1.520  0.00  0.00    +0.000 A 
ATOM     22  N   UNL     1      -0.320  -1.984  -2.400  0.00  0.00    +0.000 NA
ATOM     23  C   UNL     1      -0.180  -2.402  -3.660  0.00  0.00    +0.000 A 
ATOM     24  N   UNL     1       0.829  -3.108  -4.164  0.00  0.00    +0.000 NA
ATOM     25  C   UNL     1       1.781  -3.385  -3.255  0.00  0.00    +0.000 A 
ATOM     26  S   UNL     1       3.146  -4.280  -3.720  0.00  0.00    +0.000 S 
ATOM     27  C   UNL     1       3.797  -4.196  -2.151  0.00  0.00    +0.000 A 
ATOM     28  C   UNL     1       3.005  -3.494  -1.249  0.00  0.00    +0.000 A 
ATOM     29  C   UNL     1       1.793  -3.015  -1.914  0.00  0.00    +0.000 A 
BRANCH  21  31
ATOM     30  C   UNL     1      -0.830  -1.606   0.156  0.00  0.00    +0.000 C 
ATOM     31  O   UNL     1       0.523  -1.833  -0.226  0.00  0.00    +0.000 OA
ENDBRANCH  21  31
ENDBRANCH  17  28
ENDBRANCH   1  19
TORSDOF 7
