REMARK  Name = 
REMARK  4 active torsions:
REMARK  status: ('A' for Active; 'I' for Inactive)
REMARK    1  A    between atoms: C_1  and  N_2
REMARK    2  A    between atoms: C_4  and  N_5
REMARK    3  A    between atoms: C_4  and  C_15
REMARK    4  A    between atoms: C_9  and  C_10
REMARK                            x       y       z     vdW  Elec       q    Type
REMARK                         _______ _______ _______ _____ _____    ______ ____
ROOT
ATOM      1  N   UNL     1       4.620  -0.023   2.595  0.00  0.00    +0.000 N 
ATOM      2  C   UNL     1       3.902   0.209   3.757  0.00  0.00    +0.000 A 
ATOM      3  N   UNL     1       2.612  -0.141   3.822  0.00  0.00    +0.000 NA
ATOM      4  C   UNL     1       1.942   0.127   4.964  0.00  0.00    +0.000 A 
ATOM      5  C   UNL     1       2.523   0.721   6.052  0.00  0.00    +0.000 A 
ATOM      6  C   UNL     1       3.847   1.051   5.899  0.00  0.00    +0.000 A 
ATOM      7  N   UNL     1       4.553   0.794   4.772  0.00  0.00    +0.000 NA
ATOM      8  H   UNL     1       5.533   0.416   2.674  0.00  0.00    +0.000 HD
ENDROOT
BRANCH   1  12
ATOM      9  C   UNL     1       0.932   0.048   0.168  0.00  0.00    +0.000 C 
ATOM     10  N   UNL     1       2.382   0.057   0.048  0.00  0.00    +0.000 NA
ATOM     11  C   UNL     1       3.003  -1.013   0.894  0.00  0.00    +0.000 C 
ATOM     12  C   UNL     1       4.136   0.018   1.228  0.00  0.00    +0.000 C 
ATOM     13  C   UNL     1       2.999   1.067   0.959  0.00  0.00    +0.000 C 
BRANCH  12  14
ATOM     14  C   UNL     1       5.403   0.058   0.232  0.00  0.00    +0.000 A 
ATOM     15  C   UNL     1       5.349  -0.238  -1.134  0.00  0.00    +0.000 A 
ATOM     16  C   UNL     1       6.504  -0.194  -1.905  0.00  0.00    +0.000 A 
ATOM     17  C   UNL     1       7.706   0.147  -1.302  0.00  0.00    +0.000 A 
ATOM     18  C   UNL     1       7.695   0.437   0.051  0.00  0.00    +0.000 A 
ATOM     19  N   UNL     1       6.584   0.410   0.824  0.00  0.00    +0.000 NA
ENDBRANCH  12  14
ENDBRANCH   1  12
BRANCH   5  20
ATOM     20  C   UNL     1       1.728   0.988   7.259  0.00  0.00    +0.000 C 
ATOM     21  N   UNL     1       2.378   1.054   8.457  0.00  0.00    +0.000 N 
ATOM     22  O   UNL     1       0.511   1.117   7.190  0.00  0.00    +0.000 OA
ATOM     23  H   UNL     1       3.355   0.844   8.600  0.00  0.00    +0.000 HD
ATOM     24  H   UNL     1       1.797   1.161   9.282  0.00  0.00    +0.000 HD
ENDBRANCH   5  20
TORSDOF 3
