REMARK  Name = 
REMARK  7 active torsions:
REMARK  status: ('A' for Active; 'I' for Inactive)
REMARK    1  A    between atoms: C_1  and  O_2
REMARK    2  A    between atoms: O_2  and  C_3
REMARK    3  A    between atoms: C_6  and  C_7
REMARK    4  A    between atoms: C_11  and  C_12
REMARK    5  A    between atoms: C_12  and  O_13
REMARK    6  A    between atoms: O_13  and  C_14
REMARK    7  A    between atoms: C_17  and  C_18
REMARK                            x       y       z     vdW  Elec       q    Type
REMARK                         _______ _______ _______ _____ _____    ______ ____
ROOT
ATOM      1  C   UNL     1       5.422  -4.634  -1.463  0.00  0.00    +0.000 A 
ATOM      2  C   UNL     1       5.929  -4.852  -2.756  0.00  0.00    +0.000 A 
ATOM      3  C   UNL     1       6.739  -5.954  -3.046  0.00  0.00    +0.000 A 
ATOM      4  C   UNL     1       7.058  -6.871  -2.048  0.00  0.00    +0.000 A 
ATOM      5  C   UNL     1       6.578  -6.688  -0.749  0.00  0.00    +0.000 A 
ATOM      6  C   UNL     1       5.755  -5.581  -0.475  0.00  0.00    +0.000 A 
ENDROOT
BRANCH   1  10
ATOM      7  C   UNL     1       3.049  -1.153  -0.480  0.00  0.00    +0.000 A 
ATOM      8  C   UNL     1       2.794  -2.375   0.135  0.00  0.00    +0.000 A 
ATOM      9  C   UNL     1       3.551  -3.506  -0.201  0.00  0.00    +0.000 A 
ATOM     10  C   UNL     1       4.593  -3.447  -1.143  0.00  0.00    +0.000 A 
ATOM     11  C   UNL     1       4.830  -2.203  -1.752  0.00  0.00    +0.000 A 
ATOM     12  C   UNL     1       4.066  -1.075  -1.428  0.00  0.00    +0.000 A 
BRANCH   7  14
ATOM     13  C   UNL     1       1.325  -0.024   0.698  0.00  0.00    +0.000 C 
ATOM     14  O   UNL     1       2.388   0.021  -0.245  0.00  0.00    +0.000 OA
ENDBRANCH   7  14
ENDBRANCH   1  10
BRANCH   5  15
ATOM     15  C   UNL     1       6.914  -7.672   0.345  0.00  0.00    +0.000 C 
BRANCH  15  16
ATOM     16  O   UNL     1       5.918  -8.691   0.347  0.00  0.00    +0.000 OA
BRANCH  16  17
ATOM     17  C   UNL     1       6.014  -9.660   1.306  0.00  0.00    +0.000 A 
ATOM     18  C   UNL     1       7.007  -9.764   2.280  0.00  0.00    +0.000 A 
ATOM     19  C   UNL     1       6.975 -10.813   3.208  0.00  0.00    +0.000 A 
ATOM     20  C   UNL     1       5.952 -11.771   3.173  0.00  0.00    +0.000 A 
ATOM     21  C   UNL     1       4.967 -11.655   2.192  0.00  0.00    +0.000 A 
ATOM     22  F   UNL     1       3.962 -12.542   2.109  0.00  0.00    +0.000 F 
ATOM     23  C   UNL     1       4.994 -10.613   1.268  0.00  0.00    +0.000 A 
BRANCH  20  24
ATOM     24  C   UNL     1       5.967 -12.861   4.182  0.00  0.00    +0.000 C 
ATOM     25  N   UNL     1       4.968 -13.791   4.147  0.00  0.00    +0.000 N 
ATOM     26  O   UNL     1       6.851 -12.932   5.029  0.00  0.00    +0.000 OA
ATOM     27  H   UNL     1       4.219 -13.773   3.466  0.00  0.00    +0.000 HD
ATOM     28  H   UNL     1       4.981 -14.531   4.835  0.00  0.00    +0.000 HD
ENDBRANCH  20  24
ENDBRANCH  16  17
ENDBRANCH  15  16
ENDBRANCH   5  15
TORSDOF 6
