REMARK  Name = 
REMARK  7 active torsions:
REMARK  status: ('A' for Active; 'I' for Inactive)
REMARK    1  A    between atoms: C_2  and  C_4
REMARK    2  A    between atoms: C_7  and  O_8
REMARK    3  A    between atoms: O_8  and  C_9
REMARK    4  A    between atoms: C_9  and  C_10
REMARK    5  A    between atoms: C_10  and  C_13
REMARK    6  A    between atoms: C_17  and  C_18
REMARK    7  A    between atoms: C_22  and  C_23
REMARK                            x       y       z     vdW  Elec       q    Type
REMARK                         _______ _______ _______ _____ _____    ______ ____
ROOT
ATOM      1  C   UNL     1       4.937   7.112  -4.450  0.00  0.00    +0.000 A 
ATOM      2  C   UNL     1       3.612   7.440  -4.139  0.00  0.00    +0.000 A 
ATOM      3  C   UNL     1       3.220   8.776  -4.035  0.00  0.00    +0.000 A 
ATOM      4  C   UNL     1       4.150   9.801  -4.217  0.00  0.00    +0.000 A 
ATOM      5  C   UNL     1       5.490   9.514  -4.522  0.00  0.00    +0.000 A 
ATOM      6  C   UNL     1       5.853   8.157  -4.664  0.00  0.00    +0.000 A 
ENDROOT
BRANCH   5   7
ATOM      7  C   UNL     1       6.492  10.594  -4.632  0.00  0.00    +0.000 A 
ATOM      8  C   UNL     1       7.580  10.508  -5.502  0.00  0.00    +0.000 A 
ATOM      9  C   UNL     1       8.537  11.516  -5.510  0.00  0.00    +0.000 A 
ATOM     10  C   UNL     1       8.389  12.597  -4.653  0.00  0.00    +0.000 A 
ATOM     11  C   UNL     1       7.278  12.627  -3.824  0.00  0.00    +0.000 A 
ATOM     12  N   UNL     1       6.322  11.653  -3.796  0.00  0.00    +0.000 NA
BRANCH  11  13
ATOM     13  C   UNL     1       7.101  13.785  -2.888  0.00  0.00    +0.000 C 
ATOM     14  N   UNL     1       5.982  13.753  -2.098  0.00  0.00    +0.000 N 
ATOM     15  O   UNL     1       7.899  14.708  -2.816  0.00  0.00    +0.000 OA
ATOM     16  H   UNL     1       5.352  12.958  -2.153  0.00  0.00    +0.000 HD
ATOM     17  H   UNL     1       5.826  14.494  -1.431  0.00  0.00    +0.000 HD
ENDBRANCH  11  13
ENDBRANCH   5   7
BRANCH   1  18
ATOM     18  C   UNL     1       5.411   5.658  -4.492  0.00  0.00    +0.000 C 
ATOM     19  F   UNL     1       6.411   5.485  -5.410  0.00  0.00    +0.000 F 
ATOM     20  F   UNL     1       4.415   4.808  -4.874  0.00  0.00    +0.000 F 
BRANCH  18  21
ATOM     21  C   UNL     1       5.937   5.228  -3.110  0.00  0.00    +0.000 C 
BRANCH  21  22
ATOM     22  O   UNL     1       6.372   3.846  -3.064  0.00  0.00    +0.000 OA
BRANCH  22  26
ATOM     23  C   UNL     1       7.770   2.880   0.704  0.00  0.00    +0.000 A 
ATOM     24  C   UNL     1       7.767   1.900  -0.291  0.00  0.00    +0.000 A 
ATOM     25  C   UNL     1       7.288   2.221  -1.568  0.00  0.00    +0.000 A 
ATOM     26  C   UNL     1       6.833   3.513  -1.800  0.00  0.00    +0.000 A 
ATOM     27  N   UNL     1       6.821   4.468  -0.845  0.00  0.00    +0.000 NA
ATOM     28  C   UNL     1       7.275   4.133   0.384  0.00  0.00    +0.000 A 
BRANCH  23  30
ATOM     29  N   UNL     1       9.244   1.714   2.232  0.00  0.00    +0.000 N 
ATOM     30  C   UNL     1       8.259   2.649   2.077  0.00  0.00    +0.000 C 
ATOM     31  O   UNL     1       7.837   3.295   3.025  0.00  0.00    +0.000 OA
ATOM     32  H   UNL     1       9.654   1.644   3.156  0.00  0.00    +0.000 HD
ATOM     33  H   UNL     1       9.789   1.372   1.454  0.00  0.00    +0.000 HD
ENDBRANCH  23  30
ENDBRANCH  22  26
ENDBRANCH  21  22
ENDBRANCH  18  21
ENDBRANCH   1  18
TORSDOF 7
