REMARK  Name = 
REMARK  5 active torsions:
REMARK  status: ('A' for Active; 'I' for Inactive)
REMARK    1  A    between atoms: C_2  and  C_3
REMARK    2  A    between atoms: C_6  and  N_7
REMARK    3  A    between atoms: N_7  and  C_8
REMARK    4  A    between atoms: C_8  and  C_9
REMARK    5  A    between atoms: C_13  and  C_14
REMARK                            x       y       z     vdW  Elec       q    Type
REMARK                         _______ _______ _______ _____ _____    ______ ____
ROOT
ATOM      1  C   UNL     1       8.557  -0.882  -0.606  0.00  0.00    +0.000 C 
ATOM      2  C   UNL     1       8.349  -1.667  -1.896  0.00  0.00    +0.000 C 
ATOM      3  C   UNL     1       8.942  -2.341  -0.705  0.00  0.00    +0.000 C 
ENDROOT
BRANCH   1   4
ATOM      4  C   UNL     1       9.630   0.199  -0.574  0.00  0.00    +0.000 A 
ATOM      5  C   UNL     1       9.653   1.215  -1.542  0.00  0.00    +0.000 A 
ATOM      6  C   UNL     1      10.437   2.353  -1.375  0.00  0.00    +0.000 A 
ATOM      7  C   UNL     1      11.240   2.483  -0.242  0.00  0.00    +0.000 A 
ATOM      8  C   UNL     1      11.309   1.466   0.725  0.00  0.00    +0.000 A 
ATOM      9  C   UNL     1      10.497   0.331   0.528  0.00  0.00    +0.000 A 
BRANCH   8  10
ATOM     10  C   UNL     1      12.166   1.598   1.926  0.00  0.00    +0.000 A 
ATOM     11  C   UNL     1      12.328   2.836   2.580  0.00  0.00    +0.000 A 
ATOM     12  C   UNL     1      13.147   2.966   3.708  0.00  0.00    +0.000 A 
ATOM     13  C   UNL     1      13.817   1.856   4.213  0.00  0.00    +0.000 A 
ATOM     14  C   UNL     1      13.658   0.628   3.586  0.00  0.00    +0.000 A 
ATOM     15  F   UNL     1      14.293  -0.446   4.072  0.00  0.00    +0.000 F 
ATOM     16  C   UNL     1      12.851   0.496   2.458  0.00  0.00    +0.000 A 
ENDBRANCH   8  10
ENDBRANCH   1   4
BRANCH   1  17
ATOM     17  N   UNL     1       7.309  -0.398  -0.000  0.00  0.00    +0.000 N 
ATOM     18  H   UNL     1       7.033   0.545  -0.271  0.00  0.00    +0.000 HD
BRANCH  17  22
ATOM     19  C   UNL     1       5.823  -0.811   3.787  0.00  0.00    +0.000 A 
ATOM     20  C   UNL     1       5.588   0.309   3.013  0.00  0.00    +0.000 A 
ATOM     21  N   UNL     1       6.140   0.475   1.786  0.00  0.00    +0.000 NA
ATOM     22  C   UNL     1       6.943  -0.518   1.338  0.00  0.00    +0.000 A 
ATOM     23  C   UNL     1       7.217  -1.614   2.153  0.00  0.00    +0.000 A 
ATOM     24  N   UNL     1       6.667  -1.793   3.386  0.00  0.00    +0.000 NA
BRANCH  19  26
ATOM     25  N   UNL     1       4.504  -1.122   5.997  0.00  0.00    +0.000 NA
ATOM     26  C   UNL     1       5.126  -1.004   5.019  0.00  0.00    +0.000 C 
ENDBRANCH  19  26
ENDBRANCH  17  22
ENDBRANCH   1  17
TORSDOF 5
