REMARK  Name = 
REMARK  11 active torsions:
REMARK  status: ('A' for Active; 'I' for Inactive)
REMARK    1  A    between atoms: N_1  and  C_2
REMARK    2  A    between atoms: C_2  and  C_3
REMARK    3  A    between atoms: C_3  and  N_4
REMARK    4  A    between atoms: C_3  and  C_20
REMARK    5  A    between atoms: C_5  and  C_7
REMARK    6  A    between atoms: N_13  and  C_14
REMARK    7  A    between atoms: C_14  and  C_15
REMARK    8  A    between atoms: C_15  and  O_16
REMARK    9  A    between atoms: C_23  and  O_24
REMARK   10  A    between atoms: O_24  and  C_25
REMARK   11  A    between atoms: C_25  and  C_26
REMARK                            x       y       z     vdW  Elec       q    Type
REMARK                         _______ _______ _______ _____ _____    ______ ____
ROOT
ATOM      1  C   UNL     1       2.921  -0.042  -1.505  0.00  0.00    +0.000 C 
ENDROOT
BRANCH   1   2
ATOM      2  C   UNL     1       4.443  -0.020  -1.447  0.00  0.00    +0.000 A 
ATOM      3  C   UNL     1       5.158  -1.228  -1.427  0.00  0.00    +0.000 A 
ATOM      4  C   UNL     1       6.554  -1.225  -1.358  0.00  0.00    +0.000 A 
ATOM      5  C   UNL     1       7.253  -0.019  -1.308  0.00  0.00    +0.000 A 
ATOM      6  C   UNL     1       6.545   1.180  -1.248  0.00  0.00    +0.000 A 
ATOM      7  C   UNL     1       5.153   1.179  -1.321  0.00  0.00    +0.000 A 
BRANCH   5   8
ATOM      8  O   UNL     1       8.618  -0.115  -1.325  0.00  0.00    +0.000 OA
BRANCH   8   9
ATOM      9  C   UNL     1       9.282   1.071  -1.780  0.00  0.00    +0.000 C 
BRANCH   9  10
ATOM     10  C   UNL     1      10.684   0.760  -2.239  0.00  0.00    +0.000 A 
ATOM     11  C   UNL     1      10.898  -0.200  -3.226  0.00  0.00    +0.000 A 
ATOM     12  C   UNL     1      12.190  -0.394  -3.702  0.00  0.00    +0.000 A 
ATOM     13  C   UNL     1      13.228   0.366  -3.181  0.00  0.00    +0.000 A 
ATOM     14  C   UNL     1      12.932   1.298  -2.201  0.00  0.00    +0.000 A 
ATOM     15  N   UNL     1      11.688   1.516  -1.724  0.00  0.00    +0.000 NA
ENDBRANCH   9  10
ENDBRANCH   8   9
ENDBRANCH   5   8
ENDBRANCH   1   2
BRANCH   1  16
ATOM     16  N   UNL     1       2.429  -0.054  -0.137  0.00  0.00    +0.000 N 
ATOM     17  C   UNL     1       1.191  -0.514   0.209  0.00  0.00    +0.000 C 
ATOM     18  O   UNL     1       0.390  -0.916  -0.631  0.00  0.00    +0.000 OA
ATOM     19  H   UNL     1       3.101   0.184   0.586  0.00  0.00    +0.000 HD
BRANCH  17  20
ATOM     20  C   UNL     1       0.847  -0.462   1.637  0.00  0.00    +0.000 A 
ATOM     21  C   UNL     1      -0.488  -0.496   2.016  0.00  0.00    +0.000 A 
ATOM     22  S   UNL     1      -0.722  -0.446   3.703  0.00  0.00    +0.000 S 
ATOM     23  C   UNL     1       0.953  -0.410   3.989  0.00  0.00    +0.000 A 
ATOM     24  N   UNL     1       1.441  -0.404   5.257  0.00  0.00    +0.000 NA
ATOM     25  C   UNL     1       2.732  -0.434   5.337  0.00  0.00    +0.000 A 
ATOM     26  N   UNL     1       3.598  -0.437   4.264  0.00  0.00    +0.000 N 
ATOM     27  C   UNL     1       3.132  -0.340   2.957  0.00  0.00    +0.000 A 
ATOM     28  O   UNL     1       3.877  -0.166   1.999  0.00  0.00    +0.000 OA
ATOM     29  C   UNL     1       1.684  -0.396   2.817  0.00  0.00    +0.000 A 
BRANCH  26  30
ATOM     30  C   UNL     1       5.042  -0.423   4.490  0.00  0.00    +0.000 C 
BRANCH  30  31
ATOM     31  C   UNL     1       5.612   0.997   4.516  0.00  0.00    +0.000 C 
BRANCH  31  32
ATOM     32  O   UNL     1       5.079   1.725   5.619  0.00  0.00    +0.000 OA
ATOM     33  H   UNL     1       4.221   2.092   5.341  0.00  0.00    +0.000 HD
ENDBRANCH  31  32
ENDBRANCH  30  31
ENDBRANCH  26  30
ENDBRANCH  17  20
ENDBRANCH   1  16
BRANCH   1  34
ATOM     34  C   UNL     1       2.287   1.129  -2.319  0.00  0.00    +0.000 C 
BRANCH  34  35
ATOM     35  N   UNL     1       2.718   1.197  -3.722  0.00  0.00    +0.000 NA
ATOM     36  H   UNL     1       2.249   1.976  -4.181  0.00  0.00    +0.000 HD
ATOM     37  H   UNL     1       2.410   0.354  -4.207  0.00  0.00    +0.000 HD
ENDBRANCH  34  35
ENDBRANCH   1  34
TORSDOF 11
