REMARK  Name = 
REMARK  3 active torsions:
REMARK  status: ('A' for Active; 'I' for Inactive)
REMARK    1  A    between atoms: C_2  and  C_4
REMARK    2  A    between atoms: N_8  and  C_9
REMARK    3  A    between atoms: C_9  and  C_10
REMARK                            x       y       z     vdW  Elec       q    Type
REMARK                         _______ _______ _______ _____ _____    ______ ____
ROOT
ATOM      1  C   UNL     1       4.127  -3.110  -1.057  0.00  0.00    +0.000 A 
ATOM      2  C   UNL     1       3.361  -4.062  -0.433  0.00  0.00    +0.000 A 
ATOM      3  N   UNL     1       3.539  -4.435   0.852  0.00  0.00    +0.000 NA
ATOM      4  C   UNL     1       4.545  -3.855   1.531  0.00  0.00    +0.000 A 
ATOM      5  N   UNL     1       4.587  -4.169   2.889  0.00  0.00    +0.000 N 
ATOM      6  N   UNL     1       5.394  -2.970   0.982  0.00  0.00    +0.000 NA
ATOM      7  C   UNL     1       5.165  -2.612  -0.305  0.00  0.00    +0.000 A 
ATOM      8  H   UNL     1       3.943  -4.941   3.018  0.00  0.00    +0.000 HD
ENDROOT
BRANCH   1  10
ATOM      9  N   UNL     1       2.582  -2.672  -2.873  0.00  0.00    +0.000 N 
ATOM     10  C   UNL     1       3.875  -2.628  -2.422  0.00  0.00    +0.000 C 
ATOM     11  O   UNL     1       4.775  -2.159  -3.104  0.00  0.00    +0.000 OA
ATOM     12  H   UNL     1       2.405  -2.224  -3.765  0.00  0.00    +0.000 HD
ATOM     13  H   UNL     1       1.787  -2.797  -2.265  0.00  0.00    +0.000 HD
ENDBRANCH   1  10
BRANCH   5  14
ATOM     14  C   UNL     1       5.830  -4.191   3.665  0.00  0.00    +0.000 C 
ATOM     15  C   UNL     1       5.782  -3.439   4.991  0.00  0.00    +0.000 C 
ATOM     16  C   UNL     1       6.675  -2.953   3.898  0.00  0.00    +0.000 C 
BRANCH  14  17
ATOM     17  C   UNL     1       6.556  -5.533   3.635  0.00  0.00    +0.000 A 
ATOM     18  C   UNL     1       7.495  -5.826   2.627  0.00  0.00    +0.000 A 
ATOM     19  C   UNL     1       8.218  -7.021   2.633  0.00  0.00    +0.000 A 
ATOM     20  C   UNL     1       8.000  -7.946   3.645  0.00  0.00    +0.000 A 
ATOM     21  F   UNL     1       8.714  -9.079   3.672  0.00  0.00    +0.000 F 
ATOM     22  C   UNL     1       7.056  -7.709   4.634  0.00  0.00    +0.000 A 
ATOM     23  C   UNL     1       6.333  -6.515   4.621  0.00  0.00    +0.000 A 
ENDBRANCH  14  17
ENDBRANCH   5  14
TORSDOF 3
