REMARK  Name = 
REMARK  6 active torsions:
REMARK  status: ('A' for Active; 'I' for Inactive)
REMARK    1  A    between atoms: N_3  and  C_4
REMARK    2  A    between atoms: C_4  and  C_5
REMARK    3  A    between atoms: C_8  and  C_20
REMARK    4  A    between atoms: C_9  and  O_10
REMARK    5  A    between atoms: C_9  and  C_11
REMARK    6  A    between atoms: C_11  and  C_12
REMARK                            x       y       z     vdW  Elec       q    Type
REMARK                         _______ _______ _______ _____ _____    ______ ____
ROOT
ATOM      1  C   UNL     1       4.975   0.510  -2.632  0.00  0.00    +0.000 C 
ATOM      2  C   UNL     1       5.910  -0.354  -3.061  0.00  0.00    +0.000 C 
ATOM      3  C   UNL     1       6.284  -0.618  -4.434  0.00  0.00    +0.000 C 
ATOM      4  C   UNL     1       6.289   0.130  -5.558  0.00  0.00    +0.000 C 
ATOM      5  C   UNL     1       6.086   1.680  -5.515  0.00  0.00    +0.000 C 
ATOM      6  C   UNL     1       5.509   2.347  -4.234  0.00  0.00    +0.000 C 
ATOM      7  C   UNL     1       4.399   1.591  -3.505  0.00  0.00    +0.000 C 
ENDROOT
BRANCH   4   8
ATOM      8  C   UNL     1       6.533  -0.496  -6.895  0.00  0.00    +0.000 A 
ATOM      9  C   UNL     1       6.591   0.238  -8.074  0.00  0.00    +0.000 A 
ATOM     10  S   UNL     1       7.009  -0.642  -9.467  0.00  0.00    +0.000 S 
ATOM     11  C   UNL     1       7.079  -2.083  -8.584  0.00  0.00    +0.000 A 
ATOM     12  N   UNL     1       7.450  -3.230  -9.212  0.00  0.00    +0.000 NA
ATOM     13  C   UNL     1       7.512  -4.261  -8.442  0.00  0.00    +0.000 A 
ATOM     14  N   UNL     1       7.194  -4.253  -7.112  0.00  0.00    +0.000 N 
ATOM     15  C   UNL     1       6.575  -3.175  -6.520  0.00  0.00    +0.000 A 
ATOM     16  O   UNL     1       5.902  -3.356  -5.509  0.00  0.00    +0.000 OA
ATOM     17  C   UNL     1       6.702  -1.916  -7.255  0.00  0.00    +0.000 A 
ATOM     18  H   UNL     1       7.126  -5.125  -6.609  0.00  0.00    +0.000 HD
ENDBRANCH   4   8
BRANCH   5  19
ATOM     19  O   UNL     1       5.103   2.066  -6.508  0.00  0.00    +0.000 OA
ATOM     20  H   UNL     1       4.572   1.282  -6.728  0.00  0.00    +0.000 HD
ENDBRANCH   5  19
BRANCH   1  21
ATOM     21  C   UNL     1       4.482   0.441  -1.207  0.00  0.00    +0.000 C 
BRANCH  21  24
ATOM     22  O   UNL     1       2.960  -0.240   1.086  0.00  0.00    +0.000 OA
ATOM     23  C   UNL     1       2.638  -0.648  -0.025  0.00  0.00    +0.000 C 
ATOM     24  N   UNL     1       3.283  -0.360  -1.194  0.00  0.00    +0.000 N 
ATOM     25  H   UNL     1       2.979  -0.814  -2.045  0.00  0.00    +0.000 HD
ENDBRANCH  21  24
ENDBRANCH   1  21
BRANCH   5  26
ATOM     26  C   UNL     1       7.411   2.446  -5.889  0.00  0.00    +0.000 C 
BRANCH  26  27
ATOM     27  C   UNL     1       8.735   2.083  -5.162  0.00  0.00    +0.000 C 
ATOM     28  C   UNL     1       8.829   2.639  -3.734  0.00  0.00    +0.000 C 
ATOM     29  C   UNL     1      10.226   2.502  -3.143  0.00  0.00    +0.000 C 
ATOM     30  O   UNL     1      11.204   3.090  -3.991  0.00  0.00    +0.000 OA
ATOM     31  C   UNL     1      11.248   2.448  -5.262  0.00  0.00    +0.000 C 
ATOM     32  C   UNL     1       9.923   2.622  -5.990  0.00  0.00    +0.000 C 
ENDBRANCH  26  27
ENDBRANCH   5  26
TORSDOF 6
