REMARK  Name = 
REMARK  9 active torsions:
REMARK  status: ('A' for Active; 'I' for Inactive)
REMARK    1  A    between atoms: C_1  and  O_2
REMARK    2  A    between atoms: O_2  and  C_3
REMARK    3  A    between atoms: C_10  and  C_11
REMARK    4  A    between atoms: N_13  and  C_14
REMARK    5  A    between atoms: C_14  and  C_15
REMARK    6  A    between atoms: C_18  and  C_19
REMARK    7  A    between atoms: C_19  and  C_20
REMARK    8  A    between atoms: C_20  and  O_21
REMARK    9  A    between atoms: O_21  and  C_22
REMARK                            x       y       z     vdW  Elec       q    Type
REMARK                         _______ _______ _______ _____ _____    ______ ____
ROOT
ATOM      1  C   UNL     1       3.096  -3.275  -0.803  0.00  0.00    +0.000 C 
ENDROOT
BRANCH   1   2
ATOM      2  C   UNL     1       2.024  -3.486   0.240  0.00  0.00    +0.000 A 
ATOM      3  C   UNL     1       1.498  -4.760   0.478  0.00  0.00    +0.000 A 
ATOM      4  C   UNL     1       0.466  -4.947   1.406  0.00  0.00    +0.000 A 
ATOM      5  C   UNL     1      -0.083  -3.863   2.108  0.00  0.00    +0.000 A 
ATOM      6  C   UNL     1       0.457  -2.591   1.878  0.00  0.00    +0.000 A 
ATOM      7  C   UNL     1       1.499  -2.405   0.960  0.00  0.00    +0.000 A 
BRANCH   5   8
ATOM      8  C   UNL     1      -1.238  -3.989   3.091  0.00  0.00    +0.000 C 
BRANCH   8   9
ATOM      9  C   UNL     1      -1.750  -5.412   3.297  0.00  0.00    +0.000 C 
BRANCH   9  10
ATOM     10  O   UNL     1      -2.849  -5.455   4.219  0.00  0.00    +0.000 OA
BRANCH  10  11
ATOM     11  C   UNL     1      -3.289  -6.762   4.376  0.00  0.00    +0.000 A 
ATOM     12  C   UNL     1      -4.336  -6.993   5.251  0.00  0.00    +0.000 A 
ATOM     13  C   UNL     1      -4.776  -8.306   5.414  0.00  0.00    +0.000 A 
ATOM     14  C   UNL     1      -4.161  -9.332   4.701  0.00  0.00    +0.000 A 
ATOM     15  C   UNL     1      -3.125  -9.003   3.850  0.00  0.00    +0.000 A 
ATOM     16  N   UNL     1      -2.679  -7.745   3.674  0.00  0.00    +0.000 NA
ENDBRANCH  10  11
ENDBRANCH   9  10
ENDBRANCH   8   9
ENDBRANCH   5   8
ENDBRANCH   1   2
BRANCH   1  19
ATOM     17  C   UNL     1       3.294  -2.741  -3.209  0.00  0.00    +0.000 C 
ATOM     18  O   UNL     1       4.521  -2.789  -3.147  0.00  0.00    +0.000 OA
ATOM     19  N   UNL     1       2.524  -2.974  -2.099  0.00  0.00    +0.000 N 
ATOM     20  H   UNL     1       1.516  -2.965  -2.168  0.00  0.00    +0.000 HD
BRANCH  17  28
ATOM     21  C   UNL     1      -0.025  -2.544  -4.119  0.00  0.00    +0.000 A 
ATOM     22  N   UNL     1      -1.216  -2.312  -4.710  0.00  0.00    +0.000 NA
ATOM     23  C   UNL     1      -1.220  -1.872  -5.970  0.00  0.00    +0.000 A 
ATOM     24  N   UNL     1      -0.159  -1.645  -6.740  0.00  0.00    +0.000 NA
ATOM     25  C   UNL     1       1.005  -1.880  -6.114  0.00  0.00    +0.000 A 
ATOM     26  S   UNL     1       2.464  -1.659  -6.952  0.00  0.00    +0.000 S 
ATOM     27  C   UNL     1       3.372  -2.098  -5.584  0.00  0.00    +0.000 A 
ATOM     28  C   UNL     1       2.602  -2.404  -4.467  0.00  0.00    +0.000 A 
ATOM     29  C   UNL     1       1.181  -2.311  -4.800  0.00  0.00    +0.000 A 
BRANCH  21  31
ATOM     30  C   UNL     1      -1.317  -3.227  -2.281  0.00  0.00    +0.000 C 
ATOM     31  O   UNL     1      -0.016  -3.030  -2.828  0.00  0.00    +0.000 OA
ENDBRANCH  21  31
ENDBRANCH  17  28
ENDBRANCH   1  19
TORSDOF 8
