REMARK  Name = 
REMARK  6 active torsions:
REMARK  status: ('A' for Active; 'I' for Inactive)
REMARK    1  A    between atoms: C_1  and  S_2
REMARK    2  A    between atoms: S_2  and  C_3
REMARK    3  A    between atoms: C_6  and  C_7
REMARK    4  A    between atoms: C_7  and  O_8
REMARK    5  A    between atoms: O_8  and  C_9
REMARK    6  A    between atoms: C_12  and  C_13
REMARK                            x       y       z     vdW  Elec       q    Type
REMARK                         _______ _______ _______ _____ _____    ______ ____
ROOT
ATOM      1  C   UNL     1       4.193   3.130  -4.844  0.00  0.00    +0.000 C 
ENDROOT
BRANCH   1   5
ATOM      2  C   UNL     1       3.385   0.686  -1.513  0.00  0.00    +0.000 A 
ATOM      3  C   UNL     1       2.397   1.481  -2.083  0.00  0.00    +0.000 A 
ATOM      4  N   UNL     1       2.615   2.276  -3.163  0.00  0.00    +0.000 NA
ATOM      5  C   UNL     1       3.872   2.239  -3.675  0.00  0.00    +0.000 A 
ATOM      6  C   UNL     1       4.858   1.444  -3.103  0.00  0.00    +0.000 A 
ATOM      7  N   UNL     1       4.639   0.663  -2.019  0.00  0.00    +0.000 NA
BRANCH   2   9
ATOM      8  C   UNL     1       4.642  -1.066   0.196  0.00  0.00    +0.000 C 
ATOM      9  S   UNL     1       3.016  -0.321  -0.092  0.00  0.00    +0.000 S 
ENDBRANCH   2   9
ENDBRANCH   1   5
BRANCH   1  10
ATOM     10  O   UNL     1       4.697   2.352  -5.933  0.00  0.00    +0.000 OA
BRANCH  10  11
ATOM     11  C   UNL     1       5.060   3.049  -7.054  0.00  0.00    +0.000 A 
ATOM     12  C   UNL     1       4.963   4.432  -7.218  0.00  0.00    +0.000 A 
ATOM     13  C   UNL     1       5.380   5.033  -8.410  0.00  0.00    +0.000 A 
ATOM     14  C   UNL     1       5.896   4.252  -9.448  0.00  0.00    +0.000 A 
ATOM     15  C   UNL     1       5.988   2.867  -9.290  0.00  0.00    +0.000 A 
ATOM     16  C   UNL     1       5.570   2.270  -8.097  0.00  0.00    +0.000 A 
BRANCH  14  17
ATOM     17  C   UNL     1       6.328   4.876 -10.662  0.00  0.00    +0.000 C 
ATOM     18  N   UNL     1       6.680   5.385 -11.645  0.00  0.00    +0.000 NA
ENDBRANCH  14  17
ENDBRANCH  10  11
ENDBRANCH   1  10
TORSDOF 5
