REMARK  Name = 
REMARK  8 active torsions:
REMARK  status: ('A' for Active; 'I' for Inactive)
REMARK    1  A    between atoms: N_1  and  C_2
REMARK    2  A    between atoms: C_2  and  C_3
REMARK    3  A    between atoms: C_7  and  C_8
REMARK    4  A    between atoms: C_8  and  C_9
REMARK    5  A    between atoms: C_9  and  N_10
REMARK    6  A    between atoms: N_10  and  C_11
REMARK    7  A    between atoms: CA_14  and  C_15
REMARK    8  A    between atoms: C_15  and  OXT_17
REMARK                            x       y       z     vdW  Elec       q    Type
REMARK                         _______ _______ _______ _____ _____    ______ ____
ROOT
ATOM      1  C   UNL     1       2.776  -4.401   4.539  0.00  0.00    +0.000 C 
ENDROOT
BRANCH   1   2
ATOM      2  N   UNL     1       2.491  -5.827   4.763  0.00  0.00    +0.000 N 
ATOM      3  H   UNL     1       3.046  -6.432   4.162  0.00  0.00    +0.000 HD
BRANCH   2   4
ATOM      4  C   UNL     1       2.479  -6.275   6.095  0.00  0.00    +0.000 A 
ATOM      5  C   UNL     1       2.100  -5.464   7.172  0.00  0.00    +0.000 A 
ATOM      6  C   UNL     1       2.042  -5.971   8.469  0.00  0.00    +0.000 A 
ATOM      7  CA  UNL     1       2.341  -7.306   8.661  0.00  0.00    +0.000 A 
ATOM      8  N   UNL     1       2.679  -8.166   7.658  0.00  0.00    +0.000 NA
ATOM      9  C   UNL     1       2.714  -7.623   6.409  0.00  0.00    +0.000 A 
BRANCH   7  10
ATOM     10  C   UNL     1       2.296  -7.884  10.037  0.00  0.00    +0.000 C 
ATOM     11  O   UNL     1       1.994  -7.268  11.043  0.00  0.00    +0.000 OA
BRANCH  10  12
ATOM     12  OXT UNL     1       2.644  -9.194  10.019  0.00  0.00    +0.000 OA
ATOM     13  HXT UNL     1       2.836  -9.455   9.087  0.00  0.00    +0.000 HD
ENDBRANCH  10  12
ENDBRANCH   7  10
ENDBRANCH   2   4
ENDBRANCH   1   2
BRANCH   1  14
ATOM     14  C   UNL     1       2.767  -4.047   3.046  0.00  0.00    +0.000 C 
BRANCH  14  19
ATOM     15  C   UNL     1       2.298  -0.257   2.907  0.00  0.00    +0.000 A 
ATOM     16  C   UNL     1       3.617   0.172   2.713  0.00  0.00    +0.000 A 
ATOM     17  C   UNL     1       4.647  -0.761   2.580  0.00  0.00    +0.000 A 
ATOM     18  C   UNL     1       4.373  -2.126   2.655  0.00  0.00    +0.000 A 
ATOM     19  C   UNL     1       3.062  -2.577   2.852  0.00  0.00    +0.000 A 
ATOM     20  C   UNL     1       2.030  -1.632   2.968  0.00  0.00    +0.000 A 
BRANCH  15  21
ATOM     21  C   UNL     1       1.195   0.741   3.145  0.00  0.00    +0.000 C 
BRANCH  21  22
ATOM     22  N   UNL     1       0.997   0.945   4.575  0.00  0.00    +0.000 NA
ATOM     23  H   UNL     1       0.351   1.718   4.719  0.00  0.00    +0.000 HD
ATOM     24  H   UNL     1       1.883   1.226   4.993  0.00  0.00    +0.000 HD
ENDBRANCH  21  22
ENDBRANCH  15  21
ENDBRANCH  14  19
ENDBRANCH   1  14
TORSDOF 8
