REMARK  Name = 
REMARK  10 active torsions:
REMARK  status: ('A' for Active; 'I' for Inactive)
REMARK    1  A    between atoms: C_1  and  C_2
REMARK    2  A    between atoms: C_2  and  N_3
REMARK    3  A    between atoms: C_2  and  C_20
REMARK    4  A    between atoms: N_3  and  C_4
REMARK    5  A    between atoms: C_4  and  C_5
REMARK    6  A    between atoms: C_8  and  C_9
REMARK    7  A    between atoms: C_9  and  O_10
REMARK    8  A    between atoms: C_9  and  C_11
REMARK    9  A    between atoms: C_11  and  N_12
REMARK   10  A    between atoms: N_12  and  C_13
REMARK                            x       y       z     vdW  Elec       q    Type
REMARK                         _______ _______ _______ _____ _____    ______ ____
ROOT
ATOM      1  C   UNL     1       2.416   4.411  -3.179  0.00  0.00    +0.000 A 
ATOM      2  C   UNL     1       2.243   5.116  -1.976  0.00  0.00    +0.000 A 
ATOM      3  C   UNL     1       2.719   6.424  -1.844  0.00  0.00    +0.000 A 
ATOM      4  C   UNL     1       3.376   7.062  -2.906  0.00  0.00    +0.000 A 
ATOM      5  C   UNL     1       3.550   6.356  -4.105  0.00  0.00    +0.000 A 
ATOM      6  C   UNL     1       3.070   5.051  -4.242  0.00  0.00    +0.000 A 
ENDROOT
BRANCH   1   7
ATOM      7  C   UNL     1       1.939   2.980  -3.330  0.00  0.00    +0.000 C 
BRANCH   7   8
ATOM      8  N   UNL     1       0.486   2.861  -3.196  0.00  0.00    +0.000 NA
ATOM      9  H   UNL     1       0.211   3.239  -2.292  0.00  0.00    +0.000 HD
BRANCH   8  11
ATOM     10  C   UNL     1       0.305   0.822  -4.635  0.00  0.00    +0.000 C 
ATOM     11  C   UNL     1      -0.003   1.469  -3.279  0.00  0.00    +0.000 C 
BRANCH  11  12
ATOM     12  C   UNL     1      -1.505   1.539  -3.043  0.00  0.00    +0.000 A 
ATOM     13  C   UNL     1      -2.370   2.278  -3.837  0.00  0.00    +0.000 A 
ATOM     14  S   UNL     1      -3.985   2.254  -3.290  0.00  0.00    +0.000 S 
ATOM     15  C   UNL     1      -3.582   1.250  -1.976  0.00  0.00    +0.000 A 
ATOM     16  N   UNL     1      -4.522   0.885  -1.061  0.00  0.00    +0.000 NA
ATOM     17  C   UNL     1      -4.076   0.119  -0.121  0.00  0.00    +0.000 A 
ATOM     18  N   UNL     1      -2.784  -0.335  -0.028  0.00  0.00    +0.000 N 
ATOM     19  C   UNL     1      -1.811  -0.031  -0.955  0.00  0.00    +0.000 A 
ATOM     20  O   UNL     1      -0.693  -0.531  -0.896  0.00  0.00    +0.000 OA
ATOM     21  C   UNL     1      -2.247   0.890  -1.990  0.00  0.00    +0.000 A 
ATOM     22  H   UNL     1      -2.514  -0.971   0.709  0.00  0.00    +0.000 HD
ENDBRANCH  11  12
ENDBRANCH   8  11
ENDBRANCH   7   8
ENDBRANCH   1   7
BRANCH   4  23
ATOM     23  C   UNL     1       3.877   8.485  -2.743  0.00  0.00    +0.000 C 
BRANCH  23  24
ATOM     24  O   UNL     1       5.308   8.518  -2.808  0.00  0.00    +0.000 OA
ATOM     25  H   UNL     1       5.597   7.774  -3.361  0.00  0.00    +0.000 HD
ENDBRANCH  23  24
BRANCH  23  26
ATOM     26  C   UNL     1       3.324   9.476  -3.799  0.00  0.00    +0.000 C 
BRANCH  26  27
ATOM     27  N   UNL     1       1.871   9.651  -3.738  0.00  0.00    +0.000 NA
ATOM     28  H   UNL     1       1.580   9.986  -2.825  0.00  0.00    +0.000 HD
BRANCH  27  29
ATOM     29  C   UNL     1       1.331  10.483  -4.791  0.00  0.00    +0.000 C 
ATOM     30  C   UNL     1      -0.192  10.538  -4.747  0.00  0.00    +0.000 C 
ATOM     31  C   UNL     1      -0.496  11.535  -3.641  0.00  0.00    +0.000 C 
ATOM     32  C   UNL     1       0.730  12.436  -3.600  0.00  0.00    +0.000 C 
ATOM     33  N   UNL     1       1.683  11.867  -4.549  0.00  0.00    +0.000 NA
ATOM     34  H   UNL     1       2.639  11.969  -4.234  0.00  0.00    +0.000 HD
ENDBRANCH  27  29
ENDBRANCH  26  27
ENDBRANCH  23  26
ENDBRANCH   4  23
TORSDOF 9
