REMARK  Name = 
REMARK  6 active torsions:
REMARK  status: ('A' for Active; 'I' for Inactive)
REMARK    1  A    between atoms: C_2  and  C_3
REMARK    2  A    between atoms: N_10  and  C_11
REMARK    3  A    between atoms: C_11  and  C_12
REMARK    4  A    between atoms: C_15  and  C_16
REMARK    5  A    between atoms: C_16  and  N_17
REMARK    6  A    between atoms: C_18  and  C_20
REMARK                            x       y       z     vdW  Elec       q    Type
REMARK                         _______ _______ _______ _____ _____    ______ ____
ROOT
ATOM      1  C   UNL     1       0.711  -4.181   0.017  0.00  0.00    +0.000 C 
ATOM      2  C   UNL     1       0.115  -2.936   0.689  0.00  0.00    +0.000 C 
ATOM      3  C   UNL     1      -1.408  -2.971   0.788  0.00  0.00    +0.000 C 
ATOM      4  C   UNL     1      -1.909  -4.207   1.539  0.00  0.00    +0.000 C 
ATOM      5  C   UNL     1      -1.350  -5.468   0.847  0.00  0.00    +0.000 C 
ATOM      6  C   UNL     1       0.184  -5.449   0.715  0.00  0.00    +0.000 C 
ENDROOT
BRANCH   1   7
ATOM      7  C   UNL     1       2.261  -4.146  -0.005  0.00  0.00    +0.000 C 
BRANCH   7  15
ATOM      8  C   UNL     1       3.186  -0.545  -2.642  0.00  0.00    +0.000 A 
ATOM      9  C   UNL     1       4.112   0.248  -3.300  0.00  0.00    +0.000 A 
ATOM     10  C   UNL     1       5.202  -0.567  -3.654  0.00  0.00    +0.000 A 
ATOM     11  C   UNL     1       4.890  -1.841  -3.246  0.00  0.00    +0.000 A 
ATOM     12  N   UNL     1       3.652  -1.858  -2.605  0.00  0.00    +0.000 N 
ATOM     13  C   UNL     1       3.068  -3.046  -2.079  0.00  0.00    +0.000 C 
ATOM     14  O   UNL     1       2.934  -4.019  -2.797  0.00  0.00    +0.000 OA
ATOM     15  N   UNL     1       2.795  -2.986  -0.728  0.00  0.00    +0.000 N 
ATOM     16  H   UNL     1       2.841  -2.111  -0.225  0.00  0.00    +0.000 HD
BRANCH   8  18
ATOM     17  N   UNL     1       0.976   0.404  -1.730  0.00  0.00    +0.000 NA
ATOM     18  C   UNL     1       1.945  -0.045  -2.132  0.00  0.00    +0.000 C 
ENDBRANCH   8  18
ENDBRANCH   7  15
ENDBRANCH   1   7
BRANCH   4  19
ATOM     19  C   UNL     1      -3.451  -4.231   1.618  0.00  0.00    +0.000 C 
BRANCH  19  20
ATOM     20  N   UNL     1      -4.013  -3.088   2.315  0.00  0.00    +0.000 N 
ATOM     21  C   UNL     1      -4.281  -3.073   3.660  0.00  0.00    +0.000 C 
ATOM     22  O   UNL     1      -3.998  -4.023   4.392  0.00  0.00    +0.000 OA
ATOM     23  H   UNL     1      -4.252  -2.285   1.759  0.00  0.00    +0.000 HD
BRANCH  21  24
ATOM     24  C   UNL     1      -4.903  -1.849   4.181  0.00  0.00    +0.000 A 
ATOM     25  C   UNL     1      -5.211  -1.704   5.529  0.00  0.00    +0.000 A 
ATOM     26  S   UNL     1      -5.781  -0.142   5.932  0.00  0.00    +0.000 S 
ATOM     27  C   UNL     1      -5.469   0.413   4.359  0.00  0.00    +0.000 A 
ATOM     28  N   UNL     1      -5.366   1.737   4.081  0.00  0.00    +0.000 NA
ATOM     29  C   UNL     1      -5.156   1.996   2.832  0.00  0.00    +0.000 A 
ATOM     30  N   UNL     1      -5.239   1.081   1.825  0.00  0.00    +0.000 N 
ATOM     31  C   UNL     1      -5.074  -0.249   2.082  0.00  0.00    +0.000 A 
ATOM     32  O   UNL     1      -4.763  -1.012   1.164  0.00  0.00    +0.000 OA
ATOM     33  C   UNL     1      -5.200  -0.621   3.479  0.00  0.00    +0.000 A 
ATOM     34  H   UNL     1      -5.106   1.359   0.866  0.00  0.00    +0.000 HD
ENDBRANCH  21  24
ENDBRANCH  19  20
ENDBRANCH   4  19
TORSDOF 6
