REMARK  Name = 
REMARK  9 active torsions:
REMARK  status: ('A' for Active; 'I' for Inactive)
REMARK    1  A    between atoms: C_1  and  O_2
REMARK    2  A    between atoms: O_2  and  C_3
REMARK    3  A    between atoms: C_10  and  C_11
REMARK    4  A    between atoms: N_13  and  C_14
REMARK    5  A    between atoms: C_14  and  C_15
REMARK    6  A    between atoms: C_18  and  N_19
REMARK    7  A    between atoms: N_19  and  C_20
REMARK    8  A    between atoms: C_20  and  C_21
REMARK    9  A    between atoms: C_21  and  C_22
REMARK                            x       y       z     vdW  Elec       q    Type
REMARK                         _______ _______ _______ _____ _____    ______ ____
ROOT
ATOM      1  C   UNL     1       2.244  -2.392   2.580  0.00  0.00    +0.000 A 
ATOM      2  C   UNL     1       1.284  -3.211   3.179  0.00  0.00    +0.000 A 
ATOM      3  C   UNL     1       0.308  -2.667   4.020  0.00  0.00    +0.000 A 
ATOM      4  C   UNL     1       0.280  -1.301   4.318  0.00  0.00    +0.000 A 
ATOM      5  C   UNL     1       1.212  -0.480   3.671  0.00  0.00    +0.000 A 
ATOM      6  C   UNL     1       2.188  -1.015   2.819  0.00  0.00    +0.000 A 
ENDROOT
BRANCH   4   7
ATOM      7  N   UNL     1      -0.701  -0.716   5.127  0.00  0.00    +0.000 N 
ATOM      8  H   UNL     1      -0.431   0.206   5.463  0.00  0.00    +0.000 HD
BRANCH   7   9
ATOM      9  C   UNL     1      -1.387  -1.513   6.151  0.00  0.00    +0.000 C 
BRANCH   9  10
ATOM     10  C   UNL     1      -0.426  -2.004   7.239  0.00  0.00    +0.000 C 
BRANCH  10  11
ATOM     11  C   UNL     1      -1.138  -2.811   8.295  0.00  0.00    +0.000 A 
ATOM     12  N   UNL     1      -1.642  -2.087   9.332  0.00  0.00    +0.000 NA
ATOM     13  C   UNL     1      -2.266  -2.757  10.325  0.00  0.00    +0.000 A 
ATOM     14  C   UNL     1      -2.427  -4.130  10.339  0.00  0.00    +0.000 A 
ATOM     15  C   UNL     1      -1.928  -4.861   9.268  0.00  0.00    +0.000 A 
ATOM     16  C   UNL     1      -1.276  -4.200   8.226  0.00  0.00    +0.000 A 
ATOM     17 CL   UNL     1      -0.676  -5.146   6.916  0.00  0.00    +0.000 Cl
ENDBRANCH  10  11
ENDBRANCH   9  10
ENDBRANCH   7   9
ENDBRANCH   4   7
BRANCH   1  18
ATOM     18  C   UNL     1       3.233  -2.976   1.607  0.00  0.00    +0.000 C 
BRANCH  18  21
ATOM     19  C   UNL     1       3.329  -3.494  -0.802  0.00  0.00    +0.000 C 
ATOM     20  O   UNL     1       4.445  -3.998  -0.690  0.00  0.00    +0.000 OA
ATOM     21  N   UNL     1       2.673  -2.979   0.278  0.00  0.00    +0.000 N 
ATOM     22  H   UNL     1       1.756  -2.568   0.165  0.00  0.00    +0.000 HD
BRANCH  19  30
ATOM     23  C   UNL     1       0.238  -2.341  -1.799  0.00  0.00    +0.000 A 
ATOM     24  N   UNL     1      -0.856  -1.912  -2.459  0.00  0.00    +0.000 NA
ATOM     25  C   UNL     1      -0.878  -2.043  -3.788  0.00  0.00    +0.000 A 
ATOM     26  N   UNL     1       0.069  -2.572  -4.557  0.00  0.00    +0.000 NA
ATOM     27  C   UNL     1       1.145  -2.979  -3.861  0.00  0.00    +0.000 A 
ATOM     28  S   UNL     1       2.450  -3.692  -4.679  0.00  0.00    +0.000 S 
ATOM     29  C   UNL     1       3.319  -3.881  -3.231  0.00  0.00    +0.000 A 
ATOM     30  C   UNL     1       2.652  -3.407  -2.107  0.00  0.00    +0.000 A 
ATOM     31  C   UNL     1       1.336  -2.890  -2.485  0.00  0.00    +0.000 A 
BRANCH  23  33
ATOM     32  C   UNL     1      -1.028  -2.125   0.160  0.00  0.00    +0.000 C 
ATOM     33  O   UNL     1       0.269  -2.193  -0.428  0.00  0.00    +0.000 OA
ENDBRANCH  23  33
ENDBRANCH  19  30
ENDBRANCH  18  21
ENDBRANCH   1  18
TORSDOF 8
