REMARK  Name = 
REMARK  6 active torsions:
REMARK  status: ('A' for Active; 'I' for Inactive)
REMARK    1  A    between atoms: N_1  and  C_2
REMARK    2  A    between atoms: C_2  and  C_3
REMARK    3  A    between atoms: C_7  and  C_8
REMARK    4  A    between atoms: C_8  and  C_9
REMARK    5  A    between atoms: C_9  and  N_10
REMARK    6  A    between atoms: C_14  and  C_15
REMARK                            x       y       z     vdW  Elec       q    Type
REMARK                         _______ _______ _______ _____ _____    ______ ____
ROOT
ATOM      1  N   UNL     1       6.658  -0.345  -6.193  0.00  0.00    +0.000 N 
ATOM      2  C   UNL     1       7.208   0.369  -7.277  0.00  0.00    +0.000 A 
ATOM      3  C   UNL     1       8.068  -0.289  -8.154  0.00  0.00    +0.000 A 
ATOM      4  C   UNL     1       8.619   0.403  -9.235  0.00  0.00    +0.000 A 
ATOM      5  C   UNL     1       8.281   1.735  -9.393  0.00  0.00    +0.000 A 
ATOM      6  N   UNL     1       7.460   2.372  -8.530  0.00  0.00    +0.000 NA
ATOM      7  N   UNL     1       6.938   1.683  -7.466  0.00  0.00    +0.000 NA
ATOM      8  H   UNL     1       6.192  -1.174  -6.554  0.00  0.00    +0.000 HD
ENDROOT
BRANCH   5   9
ATOM      9  C   UNL     1       8.790   2.537 -10.541  0.00  0.00    +0.000 C 
ATOM     10  N   UNL     1       8.360   3.837 -10.604  0.00  0.00    +0.000 N 
ATOM     11  O   UNL     1       9.537   2.065 -11.386  0.00  0.00    +0.000 OA
ATOM     12  H   UNL     1       7.735   4.214  -9.901  0.00  0.00    +0.000 HD
ATOM     13  H   UNL     1       8.661   4.419 -11.372  0.00  0.00    +0.000 HD
ENDBRANCH   5   9
BRANCH   1  14
ATOM     14  C   UNL     1       5.763   0.474  -5.354  0.00  0.00    +0.000 C 
BRANCH  14  15
ATOM     15  C   UNL     1       5.168  -0.367  -4.219  0.00  0.00    +0.000 C 
BRANCH  15  20
ATOM     16  C   UNL     1       1.949   1.071  -2.710  0.00  0.00    +0.000 A 
ATOM     17  C   UNL     1       2.452   1.692  -1.560  0.00  0.00    +0.000 A 
ATOM     18  C   UNL     1       3.821   1.692  -1.299  0.00  0.00    +0.000 A 
ATOM     19  C   UNL     1       4.705   1.055  -2.175  0.00  0.00    +0.000 A 
ATOM     20  C   UNL     1       4.226   0.402  -3.317  0.00  0.00    +0.000 A 
ATOM     21  C   UNL     1       2.849   0.440  -3.588  0.00  0.00    +0.000 A 
BRANCH  16  22
ATOM     22  C   UNL     1       0.467   1.080  -2.997  0.00  0.00    +0.000 C 
BRANCH  22  23
ATOM     23  N   UNL     1      -0.071  -0.273  -3.090  0.00  0.00    +0.000 NA
ATOM     24  H   UNL     1      -1.082  -0.222  -3.194  0.00  0.00    +0.000 HD
ATOM     25  H   UNL     1       0.103  -0.752  -2.207  0.00  0.00    +0.000 HD
ENDBRANCH  22  23
ENDBRANCH  16  22
ENDBRANCH  15  20
ENDBRANCH  14  15
ENDBRANCH   1  14
TORSDOF 6
