REMARK  Name = 
REMARK  3 active torsions:
REMARK  status: ('A' for Active; 'I' for Inactive)
REMARK    1  A    between atoms: C_2  and  C_3
REMARK    2  A    between atoms: N_5  and  C_6
REMARK    3  A    between atoms: C_6  and  C_7
REMARK                            x       y       z     vdW  Elec       q    Type
REMARK                         _______ _______ _______ _____ _____    ______ ____
ROOT
ATOM      1  C   UNL     1       3.675  -0.109  -0.008  0.00  0.00    +0.000 A 
ATOM      2  C   UNL     1       4.449   1.032  -0.031  0.00  0.00    +0.000 A 
ATOM      3  N   UNL     1       5.770   0.651   0.013  0.00  0.00    +0.000 N 
ATOM      4  C   UNL     1       5.861  -0.732   0.035  0.00  0.00    +0.000 A 
ATOM      5  C   UNL     1       6.975  -1.584   0.059  0.00  0.00    +0.000 A 
ATOM      6  C   UNL     1       6.752  -2.963   0.078  0.00  0.00    +0.000 A 
ATOM      7  C   UNL     1       5.461  -3.480   0.081  0.00  0.00    +0.000 A 
ATOM      8  C   UNL     1       4.353  -2.625   0.059  0.00  0.00    +0.000 A 
ATOM      9  C   UNL     1       4.551  -1.228   0.030  0.00  0.00    +0.000 A 
ENDROOT
BRANCH   1  11
ATOM     10  N   UNL     1       1.083  -0.150  -0.026  0.00  0.00    +0.000 NA
ATOM     11  C   UNL     1       2.246  -0.133  -0.022  0.00  0.00    +0.000 C 
ENDBRANCH   1  11
BRANCH   3  12
ATOM     12  C   UNL     1       6.900   1.579   0.069  0.00  0.00    +0.000 C 
BRANCH  12  13
ATOM     13  C   UNL     1       7.437   1.880  -1.310  0.00  0.00    +0.000 A 
ATOM     14  C   UNL     1       6.639   2.530  -2.267  0.00  0.00    +0.000 A 
ATOM     15  C   UNL     1       7.084   2.689  -3.581  0.00  0.00    +0.000 A 
ATOM     16  C   UNL     1       8.346   2.228  -3.947  0.00  0.00    +0.000 A 
ATOM     17  C   UNL     1       9.164   1.647  -2.987  0.00  0.00    +0.000 A 
ATOM     18  F   UNL     1      10.386   1.221  -3.334  0.00  0.00    +0.000 F 
ATOM     19  C   UNL     1       8.728   1.476  -1.676  0.00  0.00    +0.000 A 
ENDBRANCH  12  13
ENDBRANCH   3  12
TORSDOF 3
