REMARK  Name = 
REMARK  8 active torsions:
REMARK  status: ('A' for Active; 'I' for Inactive)
REMARK    1  A    between atoms: O_1  and  C_2
REMARK    2  A    between atoms: C_2  and  C_3
REMARK    3  A    between atoms: C_3  and  C_4
REMARK    4  A    between atoms: C_4  and  O_5
REMARK    5  A    between atoms: O_5  and  C_6
REMARK    6  A    between atoms: C_9  and  O_10
REMARK    7  A    between atoms: O_10  and  C_11
REMARK    8  A    between atoms: C_11  and  C_12
REMARK                            x       y       z     vdW  Elec       q    Type
REMARK                         _______ _______ _______ _____ _____    ______ ____
ROOT
ATOM      1  C   UNL     1       6.261  -2.685  -1.420  0.00  0.00    +0.000 A 
ATOM      2  C   UNL     1       7.129  -2.488  -0.367  0.00  0.00    +0.000 A 
ATOM      3  N   UNL     1       8.454  -2.735  -0.424  0.00  0.00    +0.000 NA
ATOM      4  C   UNL     1       8.914  -3.210  -1.592  0.00  0.00    +0.000 A 
ATOM      5  N   UNL     1       8.176  -3.436  -2.685  0.00  0.00    +0.000 NA
ATOM      6  C   UNL     1       6.854  -3.181  -2.563  0.00  0.00    +0.000 A 
ENDROOT
BRANCH   1   7
ATOM      7  O   UNL     1       4.918  -2.469  -1.433  0.00  0.00    +0.000 OA
BRANCH   7   8
ATOM      8  C   UNL     1       4.441  -1.548  -0.445  0.00  0.00    +0.000 C 
BRANCH   8   9
ATOM      9  C   UNL     1       2.922  -1.460  -0.546  0.00  0.00    +0.000 C 
BRANCH   9  10
ATOM     10  C   UNL     1       2.362  -0.424   0.417  0.00  0.00    +0.000 C 
BRANCH  10  11
ATOM     11  O   UNL     1       2.745  -0.745   1.747  0.00  0.00    +0.000 OA
ATOM     12  H   UNL     1       2.330  -0.089   2.334  0.00  0.00    +0.000 HD
ENDBRANCH  10  11
ENDBRANCH   9  10
ENDBRANCH   8   9
ENDBRANCH   7   8
ENDBRANCH   1   7
BRANCH   4  13
ATOM     13  O   UNL     1      10.264  -3.436  -1.730  0.00  0.00    +0.000 OA
BRANCH  13  14
ATOM     14  C   UNL     1      10.850  -3.781  -0.476  0.00  0.00    +0.000 C 
BRANCH  14  15
ATOM     15  C   UNL     1      12.325  -4.015  -0.668  0.00  0.00    +0.000 A 
ATOM     16  C   UNL     1      13.150  -2.971  -1.075  0.00  0.00    +0.000 A 
ATOM     17  N   UNL     1      14.489  -3.112  -1.234  0.00  0.00    +0.000 NA
ATOM     18  C   UNL     1      14.972  -4.345  -0.972  0.00  0.00    +0.000 A 
ATOM     19  C   UNL     1      14.162  -5.389  -0.569  0.00  0.00    +0.000 A 
ATOM     20  N   UNL     1      12.827  -5.249  -0.398  0.00  0.00    +0.000 NA
ENDBRANCH  14  15
ENDBRANCH  13  14
ENDBRANCH   4  13
TORSDOF 8
