REMARK  Name = 
REMARK  7 active torsions:
REMARK  status: ('A' for Active; 'I' for Inactive)
REMARK    1  A    between atoms: C_2  and  C_25
REMARK    2  A    between atoms: N_3  and  C_4
REMARK    3  A    between atoms: C_4  and  C_5
REMARK    4  A    between atoms: C_8  and  C_9
REMARK    5  A    between atoms: C_9  and  C_10
REMARK    6  A    between atoms: C_10  and  C_11
REMARK    7  A    between atoms: C_11  and  C_13
REMARK                            x       y       z     vdW  Elec       q    Type
REMARK                         _______ _______ _______ _____ _____    ______ ____
ROOT
ATOM      1  C   UNL     1       3.131  -2.122   3.029  0.00  0.00    +0.000 A 
ATOM      2  C   UNL     1       3.960  -1.332   3.834  0.00  0.00    +0.000 A 
ATOM      3  C   UNL     1       4.794  -1.920   4.790  0.00  0.00    +0.000 A 
ATOM      4  C   UNL     1       4.817  -3.311   4.962  0.00  0.00    +0.000 A 
ATOM      5  C   UNL     1       3.992  -4.101   4.152  0.00  0.00    +0.000 A 
ATOM      6  C   UNL     1       3.163  -3.513   3.190  0.00  0.00    +0.000 A 
ENDROOT
BRANCH   1   7
ATOM      7  C   UNL     1       2.196  -1.487   2.036  0.00  0.00    +0.000 C 
BRANCH   7  10
ATOM      8  O   UNL     1       0.888  -0.278  -0.071  0.00  0.00    +0.000 OA
ATOM      9  C   UNL     1       2.043  -0.647  -0.247  0.00  0.00    +0.000 C 
ATOM     10  N   UNL     1       2.792  -1.252   0.745  0.00  0.00    +0.000 N 
ATOM     11  H   UNL     1       3.730  -1.569   0.519  0.00  0.00    +0.000 HD
BRANCH   9  12
ATOM     12  C   UNL     1       2.706  -0.469  -1.576  0.00  0.00    +0.000 A 
ATOM     13  C   UNL     1       1.992   0.157  -2.596  0.00  0.00    +0.000 A 
ATOM     14  C   UNL     1       2.603   0.315  -3.834  0.00  0.00    +0.000 A 
ATOM     15  C   UNL     1       3.900  -0.153  -4.011  0.00  0.00    +0.000 A 
ATOM     16  C   UNL     1       4.538  -0.760  -2.937  0.00  0.00    +0.000 A 
ATOM     17  N   UNL     1       3.978  -0.933  -1.717  0.00  0.00    +0.000 NA
ENDBRANCH   9  12
ENDBRANCH   7  10
ENDBRANCH   1   7
BRANCH   4  18
ATOM     18  C   UNL     1       5.711  -3.949   6.004  0.00  0.00    +0.000 C 
BRANCH  18  19
ATOM     19  C   UNL     1       5.294  -3.553   7.420  0.00  0.00    +0.000 C 
BRANCH  19  20
ATOM     20  C   UNL     1       6.162  -4.166   8.501  0.00  0.00    +0.000 C 
ATOM     21  O   UNL     1       7.007  -5.015   8.217  0.00  0.00    +0.000 OA
BRANCH  20  22
ATOM     22  C   UNL     1       6.050  -3.678   9.890  0.00  0.00    +0.000 A 
ATOM     23  C   UNL     1       7.153  -3.759  10.733  0.00  0.00    +0.000 A 
ATOM     24  S   UNL     1       6.886  -3.084  12.275  0.00  0.00    +0.000 S 
ATOM     25  C   UNL     1       5.276  -2.695  11.888  0.00  0.00    +0.000 A 
ATOM     26  N   UNL     1       4.476  -2.081  12.800  0.00  0.00    +0.000 NA
ATOM     27  C   UNL     1       3.275  -1.844  12.385  0.00  0.00    +0.000 A 
ATOM     28  N   UNL     1       2.804  -2.171  11.146  0.00  0.00    +0.000 N 
ATOM     29  C   UNL     1       3.551  -2.866  10.222  0.00  0.00    +0.000 A 
ATOM     30  O   UNL     1       3.024  -3.278   9.196  0.00  0.00    +0.000 OA
ATOM     31  C   UNL     1       4.935  -3.089  10.604  0.00  0.00    +0.000 A 
ATOM     32  H   UNL     1       1.840  -2.012  10.896  0.00  0.00    +0.000 HD
ENDBRANCH  20  22
ENDBRANCH  19  20
ENDBRANCH  18  19
ENDBRANCH   4  18
TORSDOF 7
