REMARK  Name = 
REMARK  7 active torsions:
REMARK  status: ('A' for Active; 'I' for Inactive)
REMARK    1  A    between atoms: C_1  and  O_2
REMARK    2  A    between atoms: O_2  and  C_3
REMARK    3  A    between atoms: C_5  and  C_6
REMARK    4  A    between atoms: C_6  and  N_7
REMARK    5  A    between atoms: C_8  and  C_10
REMARK    6  A    between atoms: C_22  and  C_23
REMARK    7  A    between atoms: C_23  and  N_24
REMARK                            x       y       z     vdW  Elec       q    Type
REMARK                         _______ _______ _______ _____ _____    ______ ____
ROOT
ATOM      1  C   UNL     1       3.074   0.757  -0.941  0.00  0.00    +0.000 A 
ATOM      2  C   UNL     1       2.647   2.095  -1.055  0.00  0.00    +0.000 A 
ATOM      3  C   UNL     1       3.260   2.991  -1.946  0.00  0.00    +0.000 A 
ATOM      4  C   UNL     1       4.331   2.540  -2.712  0.00  0.00    +0.000 A 
ATOM      5  C   UNL     1       4.741   1.213  -2.624  0.00  0.00    +0.000 A 
ATOM      6  C   UNL     1       4.122   0.292  -1.752  0.00  0.00    +0.000 A 
ENDROOT
BRANCH   1   8
ATOM      7  C   UNL     1       2.978  -0.877   0.785  0.00  0.00    +0.000 C 
ATOM      8  O   UNL     1       2.296   0.006  -0.097  0.00  0.00    +0.000 OA
ENDBRANCH   1   8
BRANCH   3   9
ATOM      9  C   UNL     1       2.803   4.417  -2.082  0.00  0.00    +0.000 C 
BRANCH   9  10
ATOM     10  N   UNL     1       3.478   5.279  -1.145  0.00  0.00    +0.000 N 
ATOM     11  C   UNL     1       4.563   6.048  -1.482  0.00  0.00    +0.000 C 
ATOM     12  O   UNL     1       5.024   6.076  -2.620  0.00  0.00    +0.000 OA
ATOM     13  H   UNL     1       3.253   5.132  -0.168  0.00  0.00    +0.000 HD
BRANCH  11  14
ATOM     14  C   UNL     1       5.105   6.904  -0.414  0.00  0.00    +0.000 A 
ATOM     15  C   UNL     1       5.905   7.990  -0.750  0.00  0.00    +0.000 A 
ATOM     16  S   UNL     1       6.409   8.916   0.590  0.00  0.00    +0.000 S 
ATOM     17  C   UNL     1       5.618   7.872   1.676  0.00  0.00    +0.000 A 
ATOM     18  N   UNL     1       5.674   8.091   3.018  0.00  0.00    +0.000 NA
ATOM     19  C   UNL     1       5.066   7.202   3.730  0.00  0.00    +0.000 A 
ATOM     20  N   UNL     1       4.399   6.118   3.221  0.00  0.00    +0.000 N 
ATOM     21  C   UNL     1       4.263   5.893   1.872  0.00  0.00    +0.000 A 
ATOM     22  O   UNL     1       3.570   4.971   1.452  0.00  0.00    +0.000 OA
ATOM     23  C   UNL     1       4.962   6.842   1.024  0.00  0.00    +0.000 A 
ATOM     24  H   UNL     1       3.927   5.468   3.830  0.00  0.00    +0.000 HD
ENDBRANCH  11  14
ENDBRANCH   9  10
ENDBRANCH   3   9
BRANCH   6  25
ATOM     25  C   UNL     1       4.621  -1.135  -1.808  0.00  0.00    +0.000 C 
BRANCH  25  26
ATOM     26  N   UNL     1       5.569  -1.424  -0.752  0.00  0.00    +0.000 N 
ATOM     27  C   UNL     1       6.909  -1.200  -0.992  0.00  0.00    +0.000 A 
ATOM     28  N   UNL     1       7.308  -0.342  -1.938  0.00  0.00    +0.000 NA
ATOM     29  C   UNL     1       8.634  -0.133  -2.076  0.00  0.00    +0.000 A 
ATOM     30  C   UNL     1       9.582  -0.771  -1.317  0.00  0.00    +0.000 A 
ATOM     31 CL   UNL     1      11.253  -0.485  -1.509  0.00  0.00    +0.000 Cl
ATOM     32  C   UNL     1       9.083  -1.656  -0.396  0.00  0.00    +0.000 A 
ATOM     33  N   UNL     1       7.760  -1.894  -0.220  0.00  0.00    +0.000 NA
ATOM     34  H   UNL     1       5.490  -2.330  -0.309  0.00  0.00    +0.000 HD
ENDBRANCH  25  26
ENDBRANCH   6  25
TORSDOF 6
