REMARK  Name = 
REMARK  6 active torsions:
REMARK  status: ('A' for Active; 'I' for Inactive)
REMARK    1  A    between atoms: C_2  and  C_4
REMARK    2  A    between atoms: N_8  and  C_9
REMARK    3  A    between atoms: C_9  and  C_10
REMARK    4  A    between atoms: C_10  and  C_13
REMARK    5  A    between atoms: C_18  and  O_19
REMARK    6  A    between atoms: O_19  and  C_20
REMARK                            x       y       z     vdW  Elec       q    Type
REMARK                         _______ _______ _______ _____ _____    ______ ____
ROOT
ATOM      1  C   UNL     1       6.107  -0.800  -7.193  0.00  0.00    +0.000 C 
ATOM      2  F   UNL     1       7.380  -0.553  -6.759  0.00  0.00    +0.000 F 
ATOM      3  F   UNL     1       6.029  -2.159  -7.320  0.00  0.00    +0.000 F 
ENDROOT
BRANCH   1   4
ATOM      4  C   UNL     1       5.817  -0.115  -8.517  0.00  0.00    +0.000 A 
ATOM      5  C   UNL     1       6.429   1.103  -8.843  0.00  0.00    +0.000 A 
ATOM      6  C   UNL     1       6.157   1.708 -10.066  0.00  0.00    +0.000 A 
ATOM      7  F   UNL     1       6.743   2.874 -10.366  0.00  0.00    +0.000 F 
ATOM      8  C   UNL     1       5.292   1.121 -10.983  0.00  0.00    +0.000 A 
ATOM      9  C   UNL     1       4.691  -0.098 -10.679  0.00  0.00    +0.000 A 
ATOM     10  C   UNL     1       4.935  -0.705  -9.444  0.00  0.00    +0.000 A 
BRANCH   9  11
ATOM     11  O   UNL     1       3.862  -0.609 -11.647  0.00  0.00    +0.000 OA
BRANCH  11  12
ATOM     12  C   UNL     1       3.646  -2.040 -11.690  0.00  0.00    +0.000 C 
ATOM     13  C   UNL     1       4.833  -2.943 -12.051  0.00  0.00    +0.000 C 
ATOM     14  O   UNL     1       4.133  -3.504 -13.185  0.00  0.00    +0.000 OA
ATOM     15  C   UNL     1       3.039  -2.579 -12.993  0.00  0.00    +0.000 C 
ENDBRANCH  11  12
ENDBRANCH   9  11
ENDBRANCH   1   4
BRANCH   1  16
ATOM     16  C   UNL     1       5.121  -0.342  -6.084  0.00  0.00    +0.000 C 
BRANCH  16  21
ATOM     17  C   UNL     1       3.140  -0.434  -1.361  0.00  0.00    +0.000 A 
ATOM     18  C   UNL     1       2.518  -0.153  -2.573  0.00  0.00    +0.000 A 
ATOM     19  C   UNL     1       3.227  -0.340  -3.761  0.00  0.00    +0.000 A 
ATOM     20  C   UNL     1       4.542  -0.793  -3.716  0.00  0.00    +0.000 A 
ATOM     21  N   UNL     1       5.269  -1.114  -4.844  0.00  0.00    +0.000 N 
ATOM     22  N   UNL     1       5.164  -1.028  -2.547  0.00  0.00    +0.000 NA
ATOM     23  C   UNL     1       4.464  -0.839  -1.396  0.00  0.00    +0.000 A 
ATOM     24  H   UNL     1       6.228  -1.317  -4.562  0.00  0.00    +0.000 HD
BRANCH  17  26
ATOM     25  N   UNL     1       1.095  -0.511  -0.056  0.00  0.00    +0.000 N 
ATOM     26  C   UNL     1       2.450  -0.322  -0.060  0.00  0.00    +0.000 C 
ATOM     27  O   UNL     1       3.065  -0.110   0.976  0.00  0.00    +0.000 OA
ATOM     28  H   UNL     1       0.652  -0.553   0.853  0.00  0.00    +0.000 HD
ATOM     29  H   UNL     1       0.609  -0.948  -0.828  0.00  0.00    +0.000 HD
ENDBRANCH  17  26
ENDBRANCH  16  21
ENDBRANCH   1  16
TORSDOF 6
