REMARK  Name = 
REMARK  8 active torsions:
REMARK  status: ('A' for Active; 'I' for Inactive)
REMARK    1  A    between atoms: C_1  and  C_2
REMARK    2  A    between atoms: C_2  and  C_3
REMARK    3  A    between atoms: C_7  and  C_8
REMARK    4  A    between atoms: C_8  and  C_9
REMARK    5  A    between atoms: C_9  and  N_10
REMARK    6  A    between atoms: N_10  and  C_11
REMARK    7  A    between atoms: C_14  and  C_15
REMARK    8  A    between atoms: C_23  and  O_24
REMARK                            x       y       z     vdW  Elec       q    Type
REMARK                         _______ _______ _______ _____ _____    ______ ____
ROOT
ATOM      1  C   UNL     1       2.974   0.328   1.469  0.00  0.00    +0.000 A 
ATOM      2  C   UNL     1       2.746   1.606   2.001  0.00  0.00    +0.000 A 
ATOM      3  C   UNL     1       3.071   1.905   3.329  0.00  0.00    +0.000 A 
ATOM      4  C   UNL     1       3.620   0.929   4.163  0.00  0.00    +0.000 A 
ATOM      5  C   UNL     1       3.869  -0.354   3.672  0.00  0.00    +0.000 A 
ATOM      6  C   UNL     1       3.561  -0.617   2.323  0.00  0.00    +0.000 A 
ENDROOT
BRANCH   1   8
ATOM      7  C   UNL     1       0.965   0.053   0.037  0.00  0.00    +0.000 C 
ATOM      8  C   UNL     1       2.510  -0.052   0.041  0.00  0.00    +0.000 C 
ATOM      9  C   UNL     1       3.132   0.921  -0.996  0.00  0.00    +0.000 C 
ATOM     10  C   UNL     1       2.832   0.553  -2.454  0.00  0.00    +0.000 C 
ATOM     11  C   UNL     1       3.196  -0.889  -2.801  0.00  0.00    +0.000 C 
ATOM     12  C   UNL     1       2.594  -1.881  -1.812  0.00  0.00    +0.000 C 
ATOM     13  C   UNL     1       2.907  -1.508  -0.362  0.00  0.00    +0.000 C 
BRANCH  11  14
ATOM     14  O   UNL     1       4.613  -1.045  -2.844  0.00  0.00    +0.000 OA
ATOM     15  H   UNL     1       4.989  -0.773  -1.991  0.00  0.00    +0.000 HD
ENDBRANCH  11  14
ENDBRANCH   1   8
BRANCH   5  16
ATOM     16  C   UNL     1       4.409  -1.434   4.600  0.00  0.00    +0.000 C 
BRANCH  16  17
ATOM     17  C   UNL     1       4.661  -2.772   3.890  0.00  0.00    +0.000 C 
BRANCH  17  18
ATOM     18  N   UNL     1       5.131  -3.838   4.774  0.00  0.00    +0.000 N 
ATOM     19  H   UNL     1       4.535  -3.949   5.593  0.00  0.00    +0.000 HD
BRANCH  18  20
ATOM     20  C   UNL     1       5.350  -5.079   4.132  0.00  0.00    +0.000 A 
ATOM     21  C   UNL     1       5.785  -5.189   2.804  0.00  0.00    +0.000 A 
ATOM     22  C   UNL     1       6.061  -6.432   2.242  0.00  0.00    +0.000 A 
ATOM     23  C   UNL     1       5.928  -7.556   3.038  0.00  0.00    +0.000 A 
ATOM     24  N   UNL     1       5.541  -7.514   4.343  0.00  0.00    +0.000 NA
ATOM     25  C   UNL     1       5.282  -6.279   4.848  0.00  0.00    +0.000 A 
BRANCH  23  26
ATOM     26  C   UNL     1       6.257  -8.902   2.470  0.00  0.00    +0.000 C 
ATOM     27  N   UNL     1       6.128  -9.950   3.337  0.00  0.00    +0.000 N 
ATOM     28  O   UNL     1       6.625  -9.061   1.314  0.00  0.00    +0.000 OA
ATOM     29  H   UNL     1       5.847  -9.768   4.298  0.00  0.00    +0.000 HD
ATOM     30  H   UNL     1       6.369 -10.881   3.038  0.00  0.00    +0.000 HD
ENDBRANCH  23  26
ENDBRANCH  18  20
ENDBRANCH  17  18
ENDBRANCH  16  17
ENDBRANCH   5  16
TORSDOF 7
