REMARK  Name = 
REMARK  3 active torsions:
REMARK  status: ('A' for Active; 'I' for Inactive)
REMARK    1  A    between atoms: C_2  and  C_4
REMARK    2  A    between atoms: N_8  and  C_9
REMARK    3  A    between atoms: C_9  and  C_10
REMARK                            x       y       z     vdW  Elec       q    Type
REMARK                         _______ _______ _______ _____ _____    ______ ____
ROOT
ATOM      1  C   UNL     1       3.357  -0.673  -1.165  0.00  0.00    +0.000 A 
ATOM      2  C   UNL     1       3.682  -1.797  -0.413  0.00  0.00    +0.000 A 
ATOM      3  C   UNL     1       4.286  -2.880  -1.049  0.00  0.00    +0.000 A 
ATOM      4  C   UNL     1       4.521  -2.838  -2.423  0.00  0.00    +0.000 A 
ATOM      5  N   UNL     1       5.068  -3.977  -3.005  0.00  0.00    +0.000 N 
ATOM      6  N   UNL     1       4.191  -1.766  -3.166  0.00  0.00    +0.000 NA
ATOM      7  C   UNL     1       3.620  -0.709  -2.527  0.00  0.00    +0.000 A 
ATOM      8  H   UNL     1       5.982  -4.180  -2.611  0.00  0.00    +0.000 HD
ENDROOT
BRANCH   1  10
ATOM      9  N   UNL     1       2.904   0.745   0.756  0.00  0.00    +0.000 N 
ATOM     10  C   UNL     1       2.722   0.528  -0.580  0.00  0.00    +0.000 C 
ATOM     11  O   UNL     1       2.081   1.308  -1.269  0.00  0.00    +0.000 OA
ATOM     12  H   UNL     1       2.540   1.615   1.126  0.00  0.00    +0.000 HD
ATOM     13  H   UNL     1       3.600   0.260   1.303  0.00  0.00    +0.000 HD
ENDBRANCH   1  10
BRANCH   5  14
ATOM     14  C   UNL     1       5.049  -4.066  -4.456  0.00  0.00    +0.000 C 
BRANCH  14  15
ATOM     15  C   UNL     1       5.313  -5.505  -4.819  0.00  0.00    +0.000 A 
ATOM     16  C   UNL     1       4.532  -6.537  -4.282  0.00  0.00    +0.000 A 
ATOM     17  C   UNL     1       4.818  -7.861  -4.591  0.00  0.00    +0.000 A 
ATOM     18  C   UNL     1       5.876  -8.114  -5.446  0.00  0.00    +0.000 A 
ATOM     19  N   UNL     1       6.641  -7.148  -6.003  0.00  0.00    +0.000 NA
ATOM     20  C   UNL     1       6.341  -5.868  -5.680  0.00  0.00    +0.000 A 
ENDBRANCH  14  15
ENDBRANCH   5  14
TORSDOF 3
