REMARK  Name = 
REMARK  9 active torsions:
REMARK  status: ('A' for Active; 'I' for Inactive)
REMARK    1  A    between atoms: C_1  and  C_2
REMARK    2  A    between atoms: C_2  and  N_3
REMARK    3  A    between atoms: N_3  and  C_4
REMARK    4  A    between atoms: C_4  and  C_5
REMARK    5  A    between atoms: C_8  and  C_9
REMARK    6  A    between atoms: C_9  and  O_10
REMARK    7  A    between atoms: C_9  and  C_11
REMARK    8  A    between atoms: C_11  and  C_12
REMARK    9  A    between atoms: C_20  and  C_22
REMARK                            x       y       z     vdW  Elec       q    Type
REMARK                         _______ _______ _______ _____ _____    ______ ____
ROOT
ATOM      1  C   UNL     1       2.075  -1.917  -1.780  0.00  0.00    +0.000 C 
ENDROOT
BRANCH   1   2
ATOM      2  C   UNL     1       0.613  -1.603  -1.656  0.00  0.00    +0.000 A 
ATOM      3  C   UNL     1      -0.274  -2.557  -1.136  0.00  0.00    +0.000 A 
ATOM      4  C   UNL     1      -1.563  -2.187  -0.756  0.00  0.00    +0.000 A 
ATOM      5  C   UNL     1      -1.990  -0.860  -0.900  0.00  0.00    +0.000 A 
ATOM      6  C   UNL     1      -1.118   0.067  -1.495  0.00  0.00    +0.000 A 
ATOM      7  C   UNL     1       0.165  -0.303  -1.885  0.00  0.00    +0.000 A 
BRANCH   5   8
ATOM      8  C   UNL     1      -3.322  -0.444  -0.296  0.00  0.00    +0.000 C 
BRANCH   8   9
ATOM      9  O   UNL     1      -3.068  -0.056   1.057  0.00  0.00    +0.000 OA
ATOM     10  H   UNL     1      -2.255   0.478   1.062  0.00  0.00    +0.000 HD
ENDBRANCH   8   9
BRANCH   8  11
ATOM     11  C   UNL     1      -4.000   0.707  -1.062  0.00  0.00    +0.000 C 
BRANCH  11  12
ATOM     12  C   UNL     1      -5.307   1.235  -0.526  0.00  0.00    +0.000 A 
ATOM     13  C   UNL     1      -5.615   2.585  -0.762  0.00  0.00    +0.000 A 
ATOM     14  C   UNL     1      -6.805   3.140  -0.297  0.00  0.00    +0.000 A 
ATOM     15  C   UNL     1      -7.712   2.347   0.398  0.00  0.00    +0.000 A 
ATOM     16  C   UNL     1      -7.429   1.003   0.624  0.00  0.00    +0.000 A 
ATOM     17  C   UNL     1      -6.235   0.445   0.162  0.00  0.00    +0.000 A 
ENDBRANCH  11  12
ENDBRANCH   8  11
ENDBRANCH   5   8
ENDBRANCH   1   2
BRANCH   1  18
ATOM     18  N   UNL     1       2.643  -2.234  -3.081  0.00  0.00    +0.000 N 
ATOM     19  C   UNL     1       4.032  -2.203  -3.322  0.00  0.00    +0.000 C 
ATOM     20  O   UNL     1       4.498  -2.550  -4.406  0.00  0.00    +0.000 OA
BRANCH  19  21
ATOM     21  C   UNL     1       4.951  -1.778  -2.250  0.00  0.00    +0.000 A 
ATOM     22  C   UNL     1       4.931  -2.250  -0.946  0.00  0.00    +0.000 A 
ATOM     23  S   UNL     1       6.165  -1.601   0.039  0.00  0.00    +0.000 S 
ATOM     24  C   UNL     1       6.865  -0.796  -1.283  0.00  0.00    +0.000 A 
ATOM     25  N   UNL     1       8.043  -0.133  -1.155  0.00  0.00    +0.000 NA
ATOM     26  C   UNL     1       8.487   0.369  -2.260  0.00  0.00    +0.000 A 
ATOM     27  N   UNL     1       7.838   0.304  -3.468  0.00  0.00    +0.000 N 
ATOM     28  C   UNL     1       6.575  -0.231  -3.611  0.00  0.00    +0.000 A 
ATOM     29  O   UNL     1       5.923  -0.055  -4.636  0.00  0.00    +0.000 OA
ATOM     30  C   UNL     1       6.102  -0.927  -2.429  0.00  0.00    +0.000 A 
ATOM     31  H   UNL     1       8.207   0.781  -4.277  0.00  0.00    +0.000 HD
ENDBRANCH  19  21
BRANCH  18  33
ATOM     32  C   UNL     1       1.508  -1.785  -5.240  0.00  0.00    +0.000 C 
ATOM     33  C   UNL     1       1.795  -2.794  -4.137  0.00  0.00    +0.000 C 
ENDBRANCH  18  33
ENDBRANCH   1  18
TORSDOF 8
