REMARK  Name = 
REMARK  6 active torsions:
REMARK  status: ('A' for Active; 'I' for Inactive)
REMARK    1  A    between atoms: C_2  and  C_18
REMARK    2  A    between atoms: N_3  and  C_4
REMARK    3  A    between atoms: C_4  and  C_5
REMARK    4  A    between atoms: C_8  and  C_9
REMARK    5  A    between atoms: C_9  and  N_10
REMARK    6  A    between atoms: C_13  and  O_14
REMARK                            x       y       z     vdW  Elec       q    Type
REMARK                         _______ _______ _______ _____ _____    ______ ____
ROOT
ATOM      1  O   UNL     1       3.841   0.069  -0.295  0.00  0.00    +0.000 OA
ATOM      2  C   UNL     1       3.377   0.757   0.612  0.00  0.00    +0.000 C 
ATOM      3  N   UNL     1       2.563   1.830   0.362  0.00  0.00    +0.000 N 
ATOM      4  H   UNL     1       2.370   2.494   1.106  0.00  0.00    +0.000 HD
ENDROOT
BRANCH   2   5
ATOM      5  C   UNL     1       3.633   0.446   2.024  0.00  0.00    +0.000 A 
ATOM      6  C   UNL     1       3.984  -0.843   2.402  0.00  0.00    +0.000 A 
ATOM      7  S   UNL     1       4.222  -1.022   4.082  0.00  0.00    +0.000 S 
ATOM      8  C   UNL     1       3.914   0.629   4.359  0.00  0.00    +0.000 A 
ATOM      9  N   UNL     1       3.988   1.158   5.610  0.00  0.00    +0.000 NA
ATOM     10  C   UNL     1       3.777   2.431   5.666  0.00  0.00    +0.000 A 
ATOM     11  N   UNL     1       3.485   3.221   4.584  0.00  0.00    +0.000 N 
ATOM     12  C   UNL     1       3.321   2.717   3.319  0.00  0.00    +0.000 A 
ATOM     13  O   UNL     1       2.930   3.427   2.398  0.00  0.00    +0.000 OA
ATOM     14  C   UNL     1       3.602   1.299   3.190  0.00  0.00    +0.000 A 
ATOM     15  H   UNL     1       3.301   4.207   4.696  0.00  0.00    +0.000 HD
ENDBRANCH   2   5
BRANCH   3  16
ATOM     16  C   UNL     1       2.273   2.299  -0.975  0.00  0.00    +0.000 C 
BRANCH  16  17
ATOM     17  C   UNL     1       3.234   3.366  -1.430  0.00  0.00    +0.000 A 
ATOM     18  C   UNL     1       4.423   3.019  -2.059  0.00  0.00    +0.000 A 
ATOM     19  N   UNL     1       5.321   3.935  -2.493  0.00  0.00    +0.000 NA
ATOM     20  C   UNL     1       5.008   5.238  -2.255  0.00  0.00    +0.000 A 
ATOM     21  C   UNL     1       3.831   5.584  -1.602  0.00  0.00    +0.000 A 
ATOM     22  N   UNL     1       2.920   4.668  -1.188  0.00  0.00    +0.000 NA
BRANCH  20  23
ATOM     23  C   UNL     1       5.987   6.294  -2.719  0.00  0.00    +0.000 C 
BRANCH  23  24
ATOM     24  N   UNL     1       7.015   6.672  -1.725  0.00  0.00    +0.000 NA
ATOM     25  C   UNL     1       7.939   7.676  -2.283  0.00  0.00    +0.000 C 
ATOM     26  C   UNL     1       9.356   7.253  -1.907  0.00  0.00    +0.000 C 
ATOM     27  C   UNL     1       9.173   6.119  -0.917  0.00  0.00    +0.000 C 
ATOM     28  C   UNL     1       7.836   5.508  -1.325  0.00  0.00    +0.000 C 
BRANCH  27  29
ATOM     29  O   UNL     1       9.116   6.643   0.407  0.00  0.00    +0.000 OA
ATOM     30  H   UNL     1       8.261   7.107   0.477  0.00  0.00    +0.000 HD
ENDBRANCH  27  29
ENDBRANCH  23  24
ENDBRANCH  20  23
ENDBRANCH  16  17
ENDBRANCH   3  16
TORSDOF 6
