REMARK  Name = 
REMARK  9 active torsions:
REMARK  status: ('A' for Active; 'I' for Inactive)
REMARK    1  A    between atoms: N_1  and  C_2
REMARK    2  A    between atoms: C_2  and  C_3
REMARK    3  A    between atoms: C_3  and  N_4
REMARK    4  A    between atoms: C_3  and  C_20
REMARK    5  A    between atoms: N_4  and  C_5
REMARK    6  A    between atoms: C_5  and  C_6
REMARK    7  A    between atoms: C_9  and  C_10
REMARK    8  A    between atoms: C_10  and  C_11
REMARK    9  A    between atoms: C_11  and  N_12
REMARK                            x       y       z     vdW  Elec       q    Type
REMARK                         _______ _______ _______ _____ _____    ______ ____
ROOT
ATOM      1  N   UNL     1       1.116  -1.638  -0.055  0.00  0.00    +0.000 NA
ATOM      2  H   UNL     1       1.790  -2.275  -0.478  0.00  0.00    +0.000 HD
ENDROOT
BRANCH   1   3
ATOM      3  C   UNL     1       1.639  -0.268  -0.218  0.00  0.00    +0.000 C 
BRANCH   3   4
ATOM      4  C   UNL     1       1.987  -0.081  -1.692  0.00  0.00    +0.000 A 
ATOM      5  C   UNL     1       1.317  -0.666  -2.758  0.00  0.00    +0.000 A 
ATOM      6  S   UNL     1       1.949  -0.226  -4.281  0.00  0.00    +0.000 S 
ATOM      7  C   UNL     1       3.112   0.790  -3.570  0.00  0.00    +0.000 A 
ATOM      8  N   UNL     1       3.983   1.511  -4.327  0.00  0.00    +0.000 NA
ATOM      9  C   UNL     1       4.789   2.259  -3.646  0.00  0.00    +0.000 A 
ATOM     10  N   UNL     1       4.813   2.338  -2.275  0.00  0.00    +0.000 N 
ATOM     11  C   UNL     1       3.957   1.628  -1.465  0.00  0.00    +0.000 A 
ATOM     12  O   UNL     1       3.994   1.727  -0.242  0.00  0.00    +0.000 OA
ATOM     13  C   UNL     1       3.030   0.781  -2.190  0.00  0.00    +0.000 A 
ATOM     14  H   UNL     1       5.467   2.948  -1.806  0.00  0.00    +0.000 HD
ENDBRANCH   3   4
BRANCH   3  15
ATOM     15  C   UNL     1       0.649   0.841   0.262  0.00  0.00    +0.000 C 
BRANCH  15  16
ATOM     16  N   UNL     1      -0.679   0.763  -0.362  0.00  0.00    +0.000 NA
ATOM     17  H   UNL     1      -1.338   1.350   0.142  0.00  0.00    +0.000 HD
ATOM     18  H   UNL     1      -1.003  -0.204  -0.298  0.00  0.00    +0.000 HD
ENDBRANCH  15  16
ENDBRANCH   3  15
ENDBRANCH   1   3
BRANCH   1  19
ATOM     19  C   UNL     1       0.941  -2.027   1.343  0.00  0.00    +0.000 C 
BRANCH  19  20
ATOM     20  C   UNL     1       0.494  -3.467   1.430  0.00  0.00    +0.000 A 
ATOM     21  C   UNL     1       1.361  -4.496   1.048  0.00  0.00    +0.000 A 
ATOM     22  C   UNL     1       0.940  -5.824   1.074  0.00  0.00    +0.000 A 
ATOM     23  C   UNL     1      -0.346  -6.169   1.519  0.00  0.00    +0.000 A 
ATOM     24  C   UNL     1      -1.213  -5.137   1.900  0.00  0.00    +0.000 A 
ATOM     25  C   UNL     1      -0.798  -3.801   1.856  0.00  0.00    +0.000 A 
BRANCH  23  26
ATOM     26  C   UNL     1      -0.828  -7.606   1.559  0.00  0.00    +0.000 C 
BRANCH  26  27
ATOM     27  C   UNL     1       0.294  -8.607   1.837  0.00  0.00    +0.000 C 
BRANCH  27  28
ATOM     28  N   UNL     1      -0.192  -9.973   1.960  0.00  0.00    +0.000 N 
ATOM     29  C   UNL     1       0.677 -10.992   2.153  0.00  0.00    +0.000 C 
ATOM     30  N   UNL     1       0.516 -12.193   1.685  0.00  0.00    +0.000 NA
ATOM     31  C   UNL     1       1.703 -12.937   2.192  0.00  0.00    +0.000 C 
ATOM     32  C   UNL     1       2.574 -11.936   2.956  0.00  0.00    +0.000 C 
ATOM     33  N   UNL     1       1.805 -10.719   2.855  0.00  0.00    +0.000 N 
ATOM     34  H   UNL     1      -0.879 -10.234   1.257  0.00  0.00    +0.000 HD
ATOM     35  H   UNL     1       1.623 -10.239   3.728  0.00  0.00    +0.000 HD
ENDBRANCH  27  28
ENDBRANCH  26  27
ENDBRANCH  23  26
ENDBRANCH  19  20
ENDBRANCH   1  19
TORSDOF 9
