REMARK  Name = 
REMARK  6 active torsions:
REMARK  status: ('A' for Active; 'I' for Inactive)
REMARK    1  A    between atoms: C_2  and  C_3
REMARK    2  A    between atoms: C_7  and  C_8
REMARK    3  A    between atoms: C_8  and  C_10
REMARK    4  A    between atoms: C_10  and  N_11
REMARK    5  A    between atoms: N_11  and  C_12
REMARK    6  A    between atoms: C_15  and  C_16
REMARK                            x       y       z     vdW  Elec       q    Type
REMARK                         _______ _______ _______ _____ _____    ______ ____
ROOT
ATOM      1  C   UNL     1       3.873   2.296   0.037  0.00  0.00    +0.000 C 
ENDROOT
BRANCH   1   2
ATOM      2  C   UNL     1       2.349   2.517   0.010  0.00  0.00    +0.000 C 
ATOM      3  F   UNL     1       2.036   3.403   1.008  0.00  0.00    +0.000 F 
BRANCH   2   8
ATOM      4  C   UNL     1       0.533  -0.442   1.608  0.00  0.00    +0.000 A 
ATOM      5  C   UNL     1       0.232  -1.224   0.491  0.00  0.00    +0.000 A 
ATOM      6  C   UNL     1       0.623  -0.804  -0.781  0.00  0.00    +0.000 A 
ATOM      7  C   UNL     1       1.311   0.401  -0.942  0.00  0.00    +0.000 A 
ATOM      8  C   UNL     1       1.607   1.205   0.169  0.00  0.00    +0.000 A 
ATOM      9  C   UNL     1       1.220   0.767   1.446  0.00  0.00    +0.000 A 
BRANCH   4  11
ATOM     10  N   UNL     1      -0.174  -1.230   3.975  0.00  0.00    +0.000 NA
ATOM     11  C   UNL     1       0.139  -0.874   2.916  0.00  0.00    +0.000 C 
ENDBRANCH   4  11
ENDBRANCH   2   8
ENDBRANCH   1   2
BRANCH   1  12
ATOM     12  N   UNL     1       4.608   3.568  -0.094  0.00  0.00    +0.000 N 
ATOM     13  H   UNL     1       4.238   4.270   0.551  0.00  0.00    +0.000 HD
BRANCH  12  14
ATOM     14  C   UNL     1       6.009   3.510  -0.054  0.00  0.00    +0.000 A 
ATOM     15  C   UNL     1       6.742   2.429  -0.548  0.00  0.00    +0.000 A 
ATOM     16  C   UNL     1       8.138   2.452  -0.551  0.00  0.00    +0.000 A 
ATOM     17  C   UNL     1       8.783   3.584  -0.081  0.00  0.00    +0.000 A 
ATOM     18  N   UNL     1       8.123   4.677   0.368  0.00  0.00    +0.000 NA
ATOM     19  C   UNL     1       6.765   4.616   0.351  0.00  0.00    +0.000 A 
BRANCH  17  20
ATOM     20  C   UNL     1      10.218   3.647  -0.066  0.00  0.00    +0.000 C 
ATOM     21  N   UNL     1      11.380   3.640  -0.077  0.00  0.00    +0.000 NA
ENDBRANCH  17  20
ENDBRANCH  12  14
ENDBRANCH   1  12
TORSDOF 6
