REMARK  Name = 
REMARK  5 active torsions:
REMARK  status: ('A' for Active; 'I' for Inactive)
REMARK    1  A    between atoms: N_1  and  C_2
REMARK    2  A    between atoms: C_2  and  C_3
REMARK    3  A    between atoms: C_3  and  C_4
REMARK    4  A    between atoms: C_7  and  C_8
REMARK    5  A    between atoms: C_8  and  N_9
REMARK                            x       y       z     vdW  Elec       q    Type
REMARK                         _______ _______ _______ _____ _____    ______ ____
ROOT
ATOM      1  C   UNL     1       4.504  -0.221  -1.344  0.00  0.00    +0.000 A 
ATOM      2  C   UNL     1       5.274   0.004  -0.197  0.00  0.00    +0.000 A 
ATOM      3  C   UNL     1       6.671  -0.047  -0.247  0.00  0.00    +0.000 A 
ATOM      4  C   UNL     1       7.333  -0.349  -1.444  0.00  0.00    +0.000 A 
ATOM      5  C   UNL     1       6.564  -0.592  -2.591  0.00  0.00    +0.000 A 
ATOM      6  C   UNL     1       5.169  -0.531  -2.539  0.00  0.00    +0.000 A 
ENDROOT
BRANCH   1   7
ATOM      7  C   UNL     1       2.989  -0.232  -1.328  0.00  0.00    +0.000 C 
BRANCH   7   8
ATOM      8  C   UNL     1       2.332   0.744  -0.341  0.00  0.00    +0.000 C 
BRANCH   8   9
ATOM      9  N   UNL     1       0.875   0.727  -0.469  0.00  0.00    +0.000 NA
ATOM     10  H   UNL     1       0.470   1.364   0.217  0.00  0.00    +0.000 HD
ATOM     11  H   UNL     1       0.521  -0.202  -0.239  0.00  0.00    +0.000 HD
ENDBRANCH   8   9
ENDBRANCH   7   8
ENDBRANCH   1   7
BRANCH   4  12
ATOM     12  C   UNL     1       8.832  -0.557  -1.475  0.00  0.00    +0.000 C 
BRANCH  12  13
ATOM     13  N   UNL     1       9.122  -1.983  -1.398  0.00  0.00    +0.000 N 
ATOM     14  N   UNL     1       9.197  -2.704  -2.539  0.00  0.00    +0.000 NA
ATOM     15  N   UNL     1       8.797  -3.935  -2.250  0.00  0.00    +0.000 NA
ATOM     16  C   UNL     1       8.563  -4.001  -0.902  0.00  0.00    +0.000 A 
ATOM     17  C   UNL     1       8.035  -5.029  -0.111  0.00  0.00    +0.000 A 
ATOM     18  C   UNL     1       7.917  -4.818   1.268  0.00  0.00    +0.000 A 
ATOM     19  C   UNL     1       8.347  -3.621   1.850  0.00  0.00    +0.000 A 
ATOM     20  C   UNL     1       8.851  -2.574   1.075  0.00  0.00    +0.000 A 
ATOM     21  C   UNL     1       8.907  -2.793  -0.307  0.00  0.00    +0.000 A 
ENDBRANCH  12  13
ENDBRANCH   4  12
TORSDOF 5
