REMARK  Name = 
REMARK  7 active torsions:
REMARK  status: ('A' for Active; 'I' for Inactive)
REMARK    1  A    between atoms: C_2  and  C_4
REMARK    2  A    between atoms: C_7  and  N_8
REMARK    3  A    between atoms: N_8  and  C_9
REMARK    4  A    between atoms: C_9  and  C_10
REMARK    5  A    between atoms: C_14  and  C_15
REMARK    6  A    between atoms: C_19  and  O_20
REMARK    7  A    between atoms: O_20  and  C_21
REMARK                            x       y       z     vdW  Elec       q    Type
REMARK                         _______ _______ _______ _____ _____    ______ ____
ROOT
ATOM      1  C   UNL     1       4.962  -5.949  -1.255  0.00  0.00    +0.000 C 
ATOM      2  C   UNL     1       3.886  -5.039  -0.666  0.00  0.00    +0.000 C 
ATOM      3  C   UNL     1       5.253  -4.498  -0.897  0.00  0.00    +0.000 C 
ENDROOT
BRANCH   1   4
ATOM      4  C   UNL     1       5.586  -6.999  -0.334  0.00  0.00    +0.000 A 
ATOM      5  C   UNL     1       6.967  -7.249  -0.338  0.00  0.00    +0.000 A 
ATOM      6  C   UNL     1       7.556  -8.065   0.626  0.00  0.00    +0.000 A 
ATOM      7  C   UNL     1       6.773  -8.639   1.627  0.00  0.00    +0.000 A 
ATOM      8  C   UNL     1       5.383  -8.444   1.659  0.00  0.00    +0.000 A 
ATOM      9  C   UNL     1       4.813  -7.665   0.637  0.00  0.00    +0.000 A 
BRANCH   8  10
ATOM     10  C   UNL     1       4.557  -8.937   2.777  0.00  0.00    +0.000 A 
ATOM     11  C   UNL     1       4.998  -8.829   4.100  0.00  0.00    +0.000 A 
ATOM     12  N   UNL     1       4.297  -9.223   5.188  0.00  0.00    +0.000 NA
ATOM     13  C   UNL     1       3.073  -9.741   4.954  0.00  0.00    +0.000 A 
ATOM     14  C   UNL     1       2.504  -9.865   3.693  0.00  0.00    +0.000 A 
ATOM     15  C   UNL     1       3.271  -9.477   2.593  0.00  0.00    +0.000 A 
BRANCH  14  16
ATOM     16  O   UNL     1       1.247 -10.390   3.652  0.00  0.00    +0.000 OA
BRANCH  16  17
ATOM     17  C   UNL     1       0.440  -9.960   2.569  0.00  0.00    +0.000 C 
ATOM     18  F   UNL     1       0.710 -10.733   1.490  0.00  0.00    +0.000 F 
ATOM     19  F   UNL     1      -0.851 -10.200   2.911  0.00  0.00    +0.000 F 
ENDBRANCH  16  17
ENDBRANCH  14  16
ENDBRANCH   8  10
ENDBRANCH   1   4
BRANCH   1  20
ATOM     20  N   UNL     1       4.751  -6.384  -2.646  0.00  0.00    +0.000 N 
ATOM     21  H   UNL     1       4.202  -7.229  -2.795  0.00  0.00    +0.000 HD
BRANCH  20  25
ATOM     22  C   UNL     1       7.700  -6.378  -5.504  0.00  0.00    +0.000 A 
ATOM     23  C   UNL     1       6.673  -7.309  -5.518  0.00  0.00    +0.000 A 
ATOM     24  N   UNL     1       5.690  -7.322  -4.574  0.00  0.00    +0.000 NA
ATOM     25  C   UNL     1       5.766  -6.376  -3.610  0.00  0.00    +0.000 A 
ATOM     26  C   UNL     1       6.799  -5.436  -3.636  0.00  0.00    +0.000 A 
ATOM     27  N   UNL     1       7.793  -5.412  -4.558  0.00  0.00    +0.000 NA
BRANCH  22  29
ATOM     28  N   UNL     1       9.775  -5.495  -6.355  0.00  0.00    +0.000 N 
ATOM     29  C   UNL     1       8.777  -6.419  -6.523  0.00  0.00    +0.000 C 
ATOM     30  O   UNL     1       8.779  -7.221  -7.446  0.00  0.00    +0.000 OA
ATOM     31  H   UNL     1      10.550  -5.465  -7.004  0.00  0.00    +0.000 HD
ATOM     32  H   UNL     1       9.736  -4.848  -5.575  0.00  0.00    +0.000 HD
ENDBRANCH  22  29
ENDBRANCH  20  25
ENDBRANCH   1  20
TORSDOF 7
