REMARK  Name = 
REMARK  7 active torsions:
REMARK  status: ('A' for Active; 'I' for Inactive)
REMARK    1  A    between atoms: C_1  and  C_2
REMARK    2  A    between atoms: C_2  and  N_3
REMARK    3  A    between atoms: C_2  and  C_16
REMARK    4  A    between atoms: C_4  and  C_6
REMARK    5  A    between atoms: C_19  and  C_20
REMARK    6  A    between atoms: C_20  and  N_21
REMARK    7  A    between atoms: C_22  and  C_24
REMARK                            x       y       z     vdW  Elec       q    Type
REMARK                         _______ _______ _______ _____ _____    ______ ____
ROOT
ATOM      1  C   UNL     1       1.212  -0.124  -0.921  0.00  0.00    +0.000 C 
ATOM      2  C   UNL     1       2.514  -0.049  -0.112  0.00  0.00    +0.000 C 
ENDROOT
BRANCH   2   3
ATOM      3  C   UNL     1       2.997  -1.404   0.383  0.00  0.00    +0.000 A 
ATOM      4  C   UNL     1       3.715  -1.486   1.587  0.00  0.00    +0.000 A 
ATOM      5  C   UNL     1       4.113  -2.725   2.105  0.00  0.00    +0.000 A 
ATOM      6  C   UNL     1       3.817  -3.911   1.423  0.00  0.00    +0.000 A 
ATOM      7  C   UNL     1       3.136  -3.830   0.203  0.00  0.00    +0.000 A 
ATOM      8  C   UNL     1       2.753  -2.593  -0.320  0.00  0.00    +0.000 A 
BRANCH   6   9
ATOM      9  C   UNL     1       4.209  -5.252   1.981  0.00  0.00    +0.000 C 
BRANCH   9  10
ATOM     10  N   UNL     1       3.206  -5.798   2.855  0.00  0.00    +0.000 N 
ATOM     11  C   UNL     1       3.314  -7.079   3.350  0.00  0.00    +0.000 C 
ATOM     12  O   UNL     1       4.240  -7.833   3.065  0.00  0.00    +0.000 OA
ATOM     13  H   UNL     1       2.431  -5.238   3.198  0.00  0.00    +0.000 HD
BRANCH  11  14
ATOM     14  C   UNL     1       2.219  -7.471   4.252  0.00  0.00    +0.000 A 
ATOM     15  C   UNL     1       2.093  -8.708   4.941  0.00  0.00    +0.000 A 
ATOM     16  C   UNL     1       0.914  -8.620   5.639  0.00  0.00    +0.000 A 
ATOM     17  N   UNL     1       0.403  -7.390   5.352  0.00  0.00    +0.000 N 
ATOM     18  N   UNL     1       1.174  -6.661   4.526  0.00  0.00    +0.000 NA
ATOM     19  H   UNL     1      -0.466  -6.984   5.684  0.00  0.00    +0.000 HD
ENDBRANCH  11  14
ENDBRANCH   9  10
ENDBRANCH   6   9
ENDBRANCH   2   3
BRANCH   2  20
ATOM     20  N   UNL     1       3.553   0.590  -0.900  0.00  0.00    +0.000 N 
ATOM     21  C   UNL     1       3.643   1.952  -1.018  0.00  0.00    +0.000 C 
ATOM     22  O   UNL     1       3.001   2.725  -0.313  0.00  0.00    +0.000 OA
ATOM     23  H   UNL     1       3.985   0.005  -1.605  0.00  0.00    +0.000 HD
BRANCH  21  24
ATOM     24  C   UNL     1       4.574   2.449  -2.038  0.00  0.00    +0.000 A 
ATOM     25  C   UNL     1       5.198   3.678  -1.879  0.00  0.00    +0.000 A 
ATOM     26  S   UNL     1       6.188   4.110  -3.201  0.00  0.00    +0.000 S 
ATOM     27  C   UNL     1       5.772   2.693  -4.048  0.00  0.00    +0.000 A 
ATOM     28  N   UNL     1       6.225   2.471  -5.312  0.00  0.00    +0.000 NA
ATOM     29  C   UNL     1       5.795   1.380  -5.849  0.00  0.00    +0.000 A 
ATOM     30  N   UNL     1       4.974   0.473  -5.227  0.00  0.00    +0.000 N 
ATOM     31  C   UNL     1       4.553   0.619  -3.928  0.00  0.00    +0.000 A 
ATOM     32  O   UNL     1       3.927  -0.271  -3.359  0.00  0.00    +0.000 OA
ATOM     33  C   UNL     1       4.947   1.869  -3.307  0.00  0.00    +0.000 A 
ATOM     34  H   UNL     1       4.711  -0.385  -5.689  0.00  0.00    +0.000 HD
ENDBRANCH  21  24
ENDBRANCH   2  20
TORSDOF 6
