REMARK  Name = 
REMARK  11 active torsions:
REMARK  status: ('A' for Active; 'I' for Inactive)
REMARK    1  A    between atoms: C_1  and  C_2
REMARK    2  A    between atoms: C_2  and  N_3
REMARK    3  A    between atoms: C_2  and  C_22
REMARK    4  A    between atoms: N_3  and  C_4
REMARK    5  A    between atoms: C_4  and  C_5
REMARK    6  A    between atoms: C_8  and  C_9
REMARK    7  A    between atoms: C_9  and  N_10
REMARK    8  A    between atoms: N_10  and  CA_11
REMARK    9  A    between atoms: CA_11  and  C_12
REMARK   10  A    between atoms: CA_11  and  C_14
REMARK   11  A    between atoms: C_12  and  O_13
REMARK                            x       y       z     vdW  Elec       q    Type
REMARK                         _______ _______ _______ _____ _____    ______ ____
ROOT
ATOM      1  C   UNL     1      -8.212  -2.490  -2.969  0.00  0.00    +0.000 A 
ATOM      2  C   UNL     1      -9.034  -1.742  -2.113  0.00  0.00    +0.000 A 
ATOM      3  C   UNL     1      -8.572  -1.328  -0.860  0.00  0.00    +0.000 A 
ATOM      4  C   UNL     1      -7.274  -1.651  -0.439  0.00  0.00    +0.000 A 
ATOM      5  C   UNL     1      -6.454  -2.398  -1.295  0.00  0.00    +0.000 A 
ATOM      6  C   UNL     1      -6.916  -2.810  -2.547  0.00  0.00    +0.000 A 
ENDROOT
BRANCH   1   7
ATOM      7  C   UNL     1      -8.740  -3.024  -4.280  0.00  0.00    +0.000 C 
BRANCH   7   8
ATOM      8  N   UNL     1      -9.268  -1.963  -5.135  0.00  0.00    +0.000 NA
ATOM      9  H   UNL     1      -8.512  -1.301  -5.315  0.00  0.00    +0.000 HD
BRANCH   8  11
ATOM     10  C   UNL     1     -10.903  -3.479  -6.283  0.00  0.00    +0.000 C 
ATOM     11  C   UNL     1      -9.757  -2.467  -6.427  0.00  0.00    +0.000 C 
BRANCH  11  12
ATOM     12  C   UNL     1     -10.211  -1.256  -7.220  0.00  0.00    +0.000 A 
ATOM     13  C   UNL     1     -11.202  -0.380  -6.800  0.00  0.00    +0.000 A 
ATOM     14  S   UNL     1     -11.513   0.875  -7.909  0.00  0.00    +0.000 S 
ATOM     15  C   UNL     1     -10.325   0.300  -8.984  0.00  0.00    +0.000 A 
ATOM     16  N   UNL     1     -10.072   0.936 -10.157  0.00  0.00    +0.000 NA
ATOM     17  C   UNL     1      -9.140   0.390 -10.868  0.00  0.00    +0.000 A 
ATOM     18  N   UNL     1      -8.440  -0.735 -10.511  0.00  0.00    +0.000 N 
ATOM     19  C   UNL     1      -8.665  -1.420  -9.337  0.00  0.00    +0.000 A 
ATOM     20  O   UNL     1      -8.025  -2.429  -9.058  0.00  0.00    +0.000 OA
ATOM     21  C   UNL     1      -9.700  -0.838  -8.504  0.00  0.00    +0.000 A 
ATOM     22  H   UNL     1      -7.722  -1.110 -11.112  0.00  0.00    +0.000 HD
ENDBRANCH  11  12
ENDBRANCH   8  11
ENDBRANCH   7   8
ENDBRANCH   1   7
BRANCH   4  23
ATOM     23  C   UNL     1      -6.732  -1.154   0.883  0.00  0.00    +0.000 C 
BRANCH  23  24
ATOM     24  N   UNL     1      -7.480  -1.687   2.023  0.00  0.00    +0.000 NA
ATOM     25  H   UNL     1      -7.401  -2.708   1.970  0.00  0.00    +0.000 HD
BRANCH  24  26
ATOM     26  CA  UNL     1      -6.877  -1.318   3.338  0.00  0.00    +0.000 C 
BRANCH  26  27
ATOM     27  C   UNL     1      -5.459  -1.866   3.531  0.00  0.00    +0.000 A 
ATOM     28  C   UNL     1      -4.387  -1.076   3.943  0.00  0.00    +0.000 A 
ATOM     29  C   UNL     1      -3.130  -1.657   4.103  0.00  0.00    +0.000 A 
ATOM     30  C   UNL     1      -2.965  -3.010   3.848  0.00  0.00    +0.000 A 
ATOM     31  C   UNL     1      -4.071  -3.732   3.436  0.00  0.00    +0.000 A 
ATOM     32  N   UNL     1      -5.302  -3.198   3.275  0.00  0.00    +0.000 NA
ENDBRANCH  26  27
BRANCH  26  33
ATOM     33  C   UNL     1      -7.119   0.164   3.731  0.00  0.00    +0.000 C 
BRANCH  33  34
ATOM     34  O   UNL     1      -6.386   1.111   2.955  0.00  0.00    +0.000 OA
ATOM     35  H   UNL     1      -7.009   1.483   2.306  0.00  0.00    +0.000 HD
ENDBRANCH  33  34
ENDBRANCH  26  33
ENDBRANCH  24  26
ENDBRANCH  23  24
ENDBRANCH   4  23
TORSDOF 10
