REMARK  Name = 
REMARK  8 active torsions:
REMARK  status: ('A' for Active; 'I' for Inactive)
REMARK    1  A    between atoms: C_1  and  C_2
REMARK    2  A    between atoms: C_2  and  C_3
REMARK    3  A    between atoms: C_2  and  C_4
REMARK    4  A    between atoms: C_2  and  C_16
REMARK    5  A    between atoms: C_4  and  O_5
REMARK    6  A    between atoms: O_5  and  C_6
REMARK    7  A    between atoms: C_9  and  C_10
REMARK    8  A    between atoms: C_20  and  C_21
REMARK                            x       y       z     vdW  Elec       q    Type
REMARK                         _______ _______ _______ _____ _____    ______ ____
ROOT
ATOM      1  C   UNL     1       0.960   0.030   0.104  0.00  0.00    +0.000 C 
ATOM      2  C   UNL     1       2.506   0.043   0.114  0.00  0.00    +0.000 C 
ATOM      3  C   UNL     1       2.973  -1.034  -0.898  0.00  0.00    +0.000 C 
ENDROOT
BRANCH   2   4
ATOM      4  C   UNL     1       3.010  -0.228   1.546  0.00  0.00    +0.000 A 
ATOM      5  C   UNL     1       3.846  -1.305   1.873  0.00  0.00    +0.000 A 
ATOM      6  C   UNL     1       4.246  -1.499   3.192  0.00  0.00    +0.000 A 
ATOM      7  N   UNL     1       3.886  -0.702   4.218  0.00  0.00    +0.000 NA
ATOM      8  C   UNL     1       3.076   0.341   3.898  0.00  0.00    +0.000 A 
ATOM      9  C   UNL     1       2.623   0.606   2.610  0.00  0.00    +0.000 A 
BRANCH   8  10
ATOM     10  C   UNL     1       2.660   1.233   5.028  0.00  0.00    +0.000 C 
ATOM     11  N   UNL     1       3.135   0.873   6.259  0.00  0.00    +0.000 N 
ATOM     12  O   UNL     1       1.945   2.216   4.875  0.00  0.00    +0.000 OA
ATOM     13  H   UNL     1       3.723   0.052   6.344  0.00  0.00    +0.000 HD
ATOM     14  H   UNL     1       2.891   1.421   7.072  0.00  0.00    +0.000 HD
ENDBRANCH   8  10
ENDBRANCH   2   4
BRANCH   2  15
ATOM     15  C   UNL     1       3.031   1.407  -0.433  0.00  0.00    +0.000 C 
BRANCH  15  16
ATOM     16  O   UNL     1       2.519   2.510   0.317  0.00  0.00    +0.000 OA
BRANCH  16  17
ATOM     17  C   UNL     1       2.862   3.767  -0.094  0.00  0.00    +0.000 A 
ATOM     18  C   UNL     1       2.400   4.789   0.741  0.00  0.00    +0.000 A 
ATOM     19  C   UNL     1       2.631   6.135   0.429  0.00  0.00    +0.000 A 
ATOM     20  C   UNL     1       3.329   6.475  -0.735  0.00  0.00    +0.000 A 
ATOM     21  C   UNL     1       3.813   5.452  -1.559  0.00  0.00    +0.000 A 
ATOM     22  C   UNL     1       3.583   4.117  -1.237  0.00  0.00    +0.000 A 
ATOM     23  F   UNL     1       4.071   3.188  -2.071  0.00  0.00    +0.000 F 
BRANCH  20  24
ATOM     24  C   UNL     1       3.585   7.880  -1.164  0.00  0.00    +0.000 C 
ATOM     25  N   UNL     1       3.100   8.902  -0.399  0.00  0.00    +0.000 N 
ATOM     26  O   UNL     1       4.208   8.128  -2.190  0.00  0.00    +0.000 OA
ATOM     27  H   UNL     1       2.562   8.799   0.448  0.00  0.00    +0.000 HD
ATOM     28  H   UNL     1       3.276   9.841  -0.734  0.00  0.00    +0.000 HD
ENDBRANCH  20  24
ENDBRANCH  16  17
ENDBRANCH  15  16
ENDBRANCH   2  15
TORSDOF 6
