REMARK  Name = 
REMARK  6 active torsions:
REMARK  status: ('A' for Active; 'I' for Inactive)
REMARK    1  A    between atoms: C_2  and  C_3
REMARK    2  A    between atoms: N_7  and  C_8
REMARK    3  A    between atoms: C_8  and  C_9
REMARK    4  A    between atoms: C_9  and  C_12
REMARK    5  A    between atoms: C_16  and  C_17
REMARK    6  A    between atoms: C_20  and  C_21
REMARK                            x       y       z     vdW  Elec       q    Type
REMARK                         _______ _______ _______ _____ _____    ______ ____
ROOT
ATOM      1  C   UNL     1      -6.616   2.469  -0.292  0.00  0.00    +0.000 A 
ATOM      2  C   UNL     1      -8.008   2.470  -0.127  0.00  0.00    +0.000 A 
ATOM      3  C   UNL     1      -8.711   3.671  -0.040  0.00  0.00    +0.000 A 
ATOM      4  C   UNL     1      -8.030   4.890  -0.088  0.00  0.00    +0.000 A 
ATOM      5  C   UNL     1      -6.634   4.938  -0.219  0.00  0.00    +0.000 A 
ATOM      6  C   UNL     1      -5.959   3.712  -0.363  0.00  0.00    +0.000 A 
ENDROOT
BRANCH   5   7
ATOM      7  C   UNL     1      -5.868   6.201  -0.090  0.00  0.00    +0.000 A 
ATOM      8  C   UNL     1      -6.286   7.204   0.804  0.00  0.00    +0.000 A 
ATOM      9  C   UNL     1      -5.516   8.350   1.033  0.00  0.00    +0.000 A 
ATOM     10  C   UNL     1      -4.298   8.515   0.378  0.00  0.00    +0.000 A 
ATOM     11  C   UNL     1      -3.874   7.541  -0.518  0.00  0.00    +0.000 A 
ATOM     12  F   UNL     1      -2.696   7.661  -1.148  0.00  0.00    +0.000 F 
ATOM     13  C   UNL     1      -4.648   6.406  -0.763  0.00  0.00    +0.000 A 
BRANCH  10  14
ATOM     14  C   UNL     1      -3.488   9.662   0.634  0.00  0.00    +0.000 C 
ATOM     15  N   UNL     1      -2.857  10.608   0.868  0.00  0.00    +0.000 NA
ENDBRANCH  10  14
ENDBRANCH   5   7
BRANCH   1  16
ATOM     16  C   UNL     1      -5.872   1.139  -0.294  0.00  0.00    +0.000 C 
ATOM     17  F   UNL     1      -6.357   0.302  -1.267  0.00  0.00    +0.000 F 
ATOM     18  F   UNL     1      -6.089   0.470   0.881  0.00  0.00    +0.000 F 
BRANCH  16  19
ATOM     19  C   UNL     1      -4.340   1.257  -0.510  0.00  0.00    +0.000 C 
BRANCH  19  24
ATOM     20  C   UNL     1       0.486   0.248  -1.141  0.00  0.00    +0.000 A 
ATOM     21  C   UNL     1      -0.086  -0.988  -0.845  0.00  0.00    +0.000 A 
ATOM     22  C   UNL     1      -1.461  -1.065  -0.606  0.00  0.00    +0.000 A 
ATOM     23  C   UNL     1      -2.242   0.085  -0.676  0.00  0.00    +0.000 A 
ATOM     24  N   UNL     1      -3.602  -0.010  -0.347  0.00  0.00    +0.000 N 
ATOM     25  N   UNL     1      -1.693   1.285  -0.963  0.00  0.00    +0.000 NA
ATOM     26  C   UNL     1      -0.356   1.343  -1.191  0.00  0.00    +0.000 A 
ATOM     27  H   UNL     1      -4.053  -0.792  -0.813  0.00  0.00    +0.000 HD
BRANCH  20  29
ATOM     28  N   UNL     1       3.029   0.504  -1.558  0.00  0.00    +0.000 NA
ATOM     29  C   UNL     1       1.891   0.388  -1.372  0.00  0.00    +0.000 C 
ENDBRANCH  20  29
ENDBRANCH  19  24
ENDBRANCH  16  19
ENDBRANCH   1  16
TORSDOF 6
