REMARK  Name = 
REMARK  6 active torsions:
REMARK  status: ('A' for Active; 'I' for Inactive)
REMARK    1  A    between atoms: C_2  and  C_3
REMARK    2  A    between atoms: N_10  and  C_11
REMARK    3  A    between atoms: C_11  and  C_12
REMARK    4  A    between atoms: C_15  and  C_16
REMARK    5  A    between atoms: C_16  and  N_17
REMARK    6  A    between atoms: C_18  and  C_20
REMARK                            x       y       z     vdW  Elec       q    Type
REMARK                         _______ _______ _______ _____ _____    ______ ____
ROOT
ATOM      1  C   UNL     1       0.585  -4.092  -0.053  0.00  0.00    +0.000 A 
ATOM      2  C   UNL     1      -0.045  -5.342  -0.005  0.00  0.00    +0.000 A 
ATOM      3  C   UNL     1      -1.440  -5.436   0.054  0.00  0.00    +0.000 A 
ATOM      4  C   UNL     1      -2.236  -4.283   0.044  0.00  0.00    +0.000 A 
ATOM      5  C   UNL     1      -1.606  -3.033   0.017  0.00  0.00    +0.000 A 
ATOM      6  C   UNL     1      -0.211  -2.938  -0.040  0.00  0.00    +0.000 A 
ENDROOT
BRANCH   1   7
ATOM      7  C   UNL     1       2.087  -3.992  -0.094  0.00  0.00    +0.000 C 
BRANCH   7  15
ATOM      8  C   UNL     1       4.126  -4.766  -3.947  0.00  0.00    +0.000 A 
ATOM      9  C   UNL     1       4.777  -4.341  -5.094  0.00  0.00    +0.000 A 
ATOM     10  C   UNL     1       5.453  -3.136  -4.797  0.00  0.00    +0.000 A 
ATOM     11  C   UNL     1       5.228  -2.884  -3.462  0.00  0.00    +0.000 A 
ATOM     12  N   UNL     1       4.376  -3.857  -2.935  0.00  0.00    +0.000 N 
ATOM     13  C   UNL     1       3.976  -3.887  -1.585  0.00  0.00    +0.000 C 
ATOM     14  O   UNL     1       4.785  -3.597  -0.717  0.00  0.00    +0.000 OA
ATOM     15  N   UNL     1       2.633  -4.137  -1.425  0.00  0.00    +0.000 N 
ATOM     16  H   UNL     1       2.000  -4.031  -2.210  0.00  0.00    +0.000 HD
BRANCH   8  18
ATOM     17  N   UNL     1       2.861  -6.999  -3.658  0.00  0.00    +0.000 NA
ATOM     18  C   UNL     1       3.425  -5.993  -3.784  0.00  0.00    +0.000 C 
ENDBRANCH   8  18
ENDBRANCH   7  15
ENDBRANCH   1   7
BRANCH   4  19
ATOM     19  C   UNL     1      -3.740  -4.383   0.078  0.00  0.00    +0.000 C 
BRANCH  19  20
ATOM     20  N   UNL     1      -4.253  -4.307   1.423  0.00  0.00    +0.000 N 
ATOM     21  C   UNL     1      -5.605  -4.267   1.651  0.00  0.00    +0.000 C 
ATOM     22  O   UNL     1      -6.418  -4.155   0.737  0.00  0.00    +0.000 OA
ATOM     23  H   UNL     1      -3.627  -4.578   2.175  0.00  0.00    +0.000 HD
BRANCH  21  24
ATOM     24  C   UNL     1      -6.048  -4.365   3.046  0.00  0.00    +0.000 A 
ATOM     25  C   UNL     1      -7.269  -3.821   3.428  0.00  0.00    +0.000 A 
ATOM     26  S   UNL     1      -7.668  -4.114   5.060  0.00  0.00    +0.000 S 
ATOM     27  C   UNL     1      -6.259  -5.040   5.291  0.00  0.00    +0.000 A 
ATOM     28  N   UNL     1      -6.041  -5.709   6.455  0.00  0.00    +0.000 NA
ATOM     29  C   UNL     1      -4.942  -6.386   6.482  0.00  0.00    +0.000 A 
ATOM     30  N   UNL     1      -4.018  -6.416   5.470  0.00  0.00    +0.000 N 
ATOM     31  C   UNL     1      -4.173  -5.717   4.297  0.00  0.00    +0.000 A 
ATOM     32  O   UNL     1      -3.286  -5.682   3.451  0.00  0.00    +0.000 OA
ATOM     33  C   UNL     1      -5.438  -5.020   4.178  0.00  0.00    +0.000 A 
ATOM     34  H   UNL     1      -3.149  -6.918   5.578  0.00  0.00    +0.000 HD
ENDBRANCH  21  24
ENDBRANCH  19  20
ENDBRANCH   4  19
TORSDOF 6
