REMARK  Name = 
REMARK  7 active torsions:
REMARK  status: ('A' for Active; 'I' for Inactive)
REMARK    1  A    between atoms: C_1  and  C_2
REMARK    2  A    between atoms: C_2  and  N_3
REMARK    3  A    between atoms: C_2  and  C_11
REMARK    4  A    between atoms: C_4  and  C_6
REMARK    5  A    between atoms: C_14  and  C_15
REMARK    6  A    between atoms: C_15  and  N_16
REMARK    7  A    between atoms: C_17  and  C_19
REMARK                            x       y       z     vdW  Elec       q    Type
REMARK                         _______ _______ _______ _____ _____    ______ ____
ROOT
ATOM      1  C   UNL     1       3.025  -0.575  -1.332  0.00  0.00    +0.000 A 
ATOM      2  C   UNL     1       3.708   0.237  -2.252  0.00  0.00    +0.000 A 
ATOM      3  C   UNL     1       4.142  -0.273  -3.481  0.00  0.00    +0.000 A 
ATOM      4  C   UNL     1       3.891  -1.607  -3.827  0.00  0.00    +0.000 A 
ATOM      5  C   UNL     1       3.265  -2.435  -2.886  0.00  0.00    +0.000 A 
ATOM      6  C   UNL     1       2.814  -1.920  -1.667  0.00  0.00    +0.000 A 
ENDROOT
BRANCH   1   8
ATOM      7  C   UNL     1       1.066   0.538  -0.248  0.00  0.00    +0.000 C 
ATOM      8  C   UNL     1       2.494   0.028  -0.041  0.00  0.00    +0.000 C 
BRANCH   8   9
ATOM      9  N   UNL     1       2.554  -0.903   1.075  0.00  0.00    +0.000 N 
ATOM     10  C   UNL     1       3.695  -1.089   1.827  0.00  0.00    +0.000 C 
ATOM     11  O   UNL     1       4.731  -0.452   1.662  0.00  0.00    +0.000 OA
ATOM     12  H   UNL     1       1.799  -1.560   1.249  0.00  0.00    +0.000 HD
BRANCH  10  13
ATOM     13  C   UNL     1       3.586  -2.198   2.884  0.00  0.00    +0.000 C 
ATOM     14  C   UNL     1       4.114  -3.535   2.402  0.00  0.00    +0.000 C 
ATOM     15  C   UNL     1       3.464  -4.518   3.361  0.00  0.00    +0.000 C 
ATOM     16  C   UNL     1       2.142  -3.867   3.744  0.00  0.00    +0.000 C 
ATOM     17  N   UNL     1       2.167  -2.505   3.205  0.00  0.00    +0.000 NA
ATOM     18  H   UNL     1       1.834  -1.839   3.904  0.00  0.00    +0.000 HD
ENDBRANCH  10  13
ENDBRANCH   8   9
ENDBRANCH   1   8
BRANCH   4  19
ATOM     19  C   UNL     1       4.269  -2.144  -5.186  0.00  0.00    +0.000 C 
BRANCH  19  20
ATOM     20  N   UNL     1       5.617  -2.635  -5.208  0.00  0.00    +0.000 N 
ATOM     21  C   UNL     1       6.167  -3.209  -6.334  0.00  0.00    +0.000 C 
ATOM     22  O   UNL     1       5.590  -3.237  -7.414  0.00  0.00    +0.000 OA
ATOM     23  H   UNL     1       6.013  -2.862  -4.305  0.00  0.00    +0.000 HD
BRANCH  21  24
ATOM     24  C   UNL     1       7.532  -3.723  -6.165  0.00  0.00    +0.000 A 
ATOM     25  C   UNL     1       8.413  -3.776  -7.236  0.00  0.00    +0.000 A 
ATOM     26  S   UNL     1       9.978  -4.312  -6.798  0.00  0.00    +0.000 S 
ATOM     27  C   UNL     1       9.509  -4.544  -5.178  0.00  0.00    +0.000 A 
ATOM     28  N   UNL     1      10.385  -4.997  -4.242  0.00  0.00    +0.000 NA
ATOM     29  C   UNL     1       9.882  -5.126  -3.058  0.00  0.00    +0.000 A 
ATOM     30  N   UNL     1       8.583  -4.856  -2.726  0.00  0.00    +0.000 N 
ATOM     31  C   UNL     1       7.660  -4.415  -3.639  0.00  0.00    +0.000 A 
ATOM     32  O   UNL     1       6.497  -4.195  -3.309  0.00  0.00    +0.000 OA
ATOM     33  C   UNL     1       8.179  -4.219  -4.977  0.00  0.00    +0.000 A 
ATOM     34  H   UNL     1       8.245  -4.971  -1.781  0.00  0.00    +0.000 HD
ENDBRANCH  21  24
ENDBRANCH  19  20
ENDBRANCH   4  19
TORSDOF 6
