REMARK  Name = 
REMARK  8 active torsions:
REMARK  status: ('A' for Active; 'I' for Inactive)
REMARK    1  A    between atoms: C_1  and  C_2
REMARK    2  A    between atoms: C_2  and  N_3
REMARK    3  A    between atoms: C_2  and  C_26
REMARK    4  A    between atoms: N_3  and  C_4
REMARK    5  A    between atoms: C_4  and  C_5
REMARK    6  A    between atoms: C_8  and  C_9
REMARK    7  A    between atoms: C_9  and  N_10
REMARK    8  A    between atoms: C_11  and  C_13
REMARK                            x       y       z     vdW  Elec       q    Type
REMARK                         _______ _______ _______ _____ _____    ______ ____
ROOT
ATOM      1  C   UNL     1       2.908  -1.736   3.379  0.00  0.00    +0.000 A 
ATOM      2  N   UNL     1       2.514  -3.017   3.124  0.00  0.00    +0.000 NA
ATOM      3  C   UNL     1       2.891  -3.980   3.993  0.00  0.00    +0.000 A 
ATOM      4  C   UNL     1       3.660  -3.749   5.126  0.00  0.00    +0.000 A 
ATOM      5  C   UNL     1       4.043  -2.430   5.383  0.00  0.00    +0.000 A 
ATOM      6  C   UNL     1       3.668  -1.410   4.505  0.00  0.00    +0.000 A 
ATOM      7 CL   UNL     1       4.149   0.204   4.874  0.00  0.00    +0.000 Cl
ENDROOT
BRANCH   1   8
ATOM      8  C   UNL     1       2.435  -0.691   2.383  0.00  0.00    +0.000 C 
BRANCH   8   9
ATOM      9  N   UNL     1       3.530  -0.075   1.621  0.00  0.00    +0.000 NA
ATOM     10  H   UNL     1       4.151   0.393   2.286  0.00  0.00    +0.000 HD
BRANCH   9  12
ATOM     11  C   UNL     1       2.148   0.408  -0.421  0.00  0.00    +0.000 C 
ATOM     12  C   UNL     1       3.060   0.964   0.681  0.00  0.00    +0.000 C 
BRANCH  12  13
ATOM     13  C   UNL     1       4.254   1.684   0.051  0.00  0.00    +0.000 A 
ATOM     14  C   UNL     1       5.165   0.989  -0.748  0.00  0.00    +0.000 A 
ATOM     15  C   UNL     1       6.245   1.671  -1.298  0.00  0.00    +0.000 A 
ATOM     16  C   UNL     1       6.398   3.025  -1.032  0.00  0.00    +0.000 A 
ATOM     17  C   UNL     1       5.460   3.641  -0.222  0.00  0.00    +0.000 A 
ATOM     18  N   UNL     1       4.396   3.007   0.322  0.00  0.00    +0.000 NA
ENDBRANCH  12  13
ENDBRANCH   9  12
ENDBRANCH   8   9
ENDBRANCH   1   8
BRANCH   4  19
ATOM     19  C   UNL     1       3.991  -4.870   6.065  0.00  0.00    +0.000 C 
BRANCH  19  20
ATOM     20  N   UNL     1       2.974  -5.004   7.077  0.00  0.00    +0.000 N 
ATOM     21  C   UNL     1       3.102  -5.904   8.103  0.00  0.00    +0.000 C 
ATOM     22  O   UNL     1       4.110  -6.591   8.239  0.00  0.00    +0.000 OA
ATOM     23  H   UNL     1       2.055  -4.624   6.868  0.00  0.00    +0.000 HD
BRANCH  21  24
ATOM     24  C   UNL     1       1.994  -5.964   9.063  0.00  0.00    +0.000 A 
ATOM     25  C   UNL     1       2.219  -6.459  10.341  0.00  0.00    +0.000 A 
ATOM     26  S   UNL     1       0.840  -6.422  11.343  0.00  0.00    +0.000 S 
ATOM     27  C   UNL     1      -0.121  -5.789  10.090  0.00  0.00    +0.000 A 
ATOM     28  N   UNL     1      -1.445  -5.539  10.283  0.00  0.00    +0.000 NA
ATOM     29  C   UNL     1      -2.059  -5.087   9.242  0.00  0.00    +0.000 A 
ATOM     30  N   UNL     1      -1.470  -4.855   8.026  0.00  0.00    +0.000 N 
ATOM     31  C   UNL     1      -0.130  -5.059   7.796  0.00  0.00    +0.000 A 
ATOM     32  O   UNL     1       0.380  -4.790   6.713  0.00  0.00    +0.000 OA
ATOM     33  C   UNL     1       0.605  -5.586   8.931  0.00  0.00    +0.000 A 
ATOM     34  H   UNL     1      -2.006  -4.488   7.254  0.00  0.00    +0.000 HD
ENDBRANCH  21  24
ENDBRANCH  19  20
ENDBRANCH   4  19
TORSDOF 7
