REMARK  Name = 
REMARK  7 active torsions:
REMARK  status: ('A' for Active; 'I' for Inactive)
REMARK    1  A    between atoms: N_1  and  C_2
REMARK    2  A    between atoms: C_2  and  C_3
REMARK    3  A    between atoms: C_7  and  O_8
REMARK    4  A    between atoms: O_8  and  C_9
REMARK    5  A    between atoms: C_9  and  C_10
REMARK    6  A    between atoms: C_10  and  C_11
REMARK    7  A    between atoms: C_15  and  C_16
REMARK                            x       y       z     vdW  Elec       q    Type
REMARK                         _______ _______ _______ _____ _____    ______ ____
ROOT
ATOM      1  C   UNL     1       4.416  -3.383  -4.615  0.00  0.00    +0.000 C 
ENDROOT
BRANCH   1   2
ATOM      2  O   UNL     1       3.588  -3.113  -3.477  0.00  0.00    +0.000 OA
BRANCH   2   7
ATOM      3  C   UNL     1       2.328  -0.213  -1.644  0.00  0.00    +0.000 A 
ATOM      4  C   UNL     1       2.843   0.848  -2.401  0.00  0.00    +0.000 A 
ATOM      5  C   UNL     1       3.606   0.601  -3.539  0.00  0.00    +0.000 A 
ATOM      6  C   UNL     1       3.871  -0.712  -3.932  0.00  0.00    +0.000 A 
ATOM      7  C   UNL     1       3.379  -1.786  -3.190  0.00  0.00    +0.000 A 
ATOM      8  C   UNL     1       2.604  -1.530  -2.049  0.00  0.00    +0.000 A 
BRANCH   3   9
ATOM      9  C   UNL     1       1.517   0.073  -0.405  0.00  0.00    +0.000 C 
BRANCH   9  10
ATOM     10  N   UNL     1       0.334   0.873  -0.709  0.00  0.00    +0.000 NA
ATOM     11  H   UNL     1      -0.223   0.981   0.135  0.00  0.00    +0.000 HD
ATOM     12  H   UNL     1      -0.243   0.363  -1.376  0.00  0.00    +0.000 HD
ENDBRANCH   9  10
ENDBRANCH   3   9
ENDBRANCH   2   7
ENDBRANCH   1   2
BRANCH   1  13
ATOM     13  C   UNL     1       4.587  -4.893  -4.777  0.00  0.00    +0.000 C 
BRANCH  13  14
ATOM     14  C   UNL     1       5.415  -5.239  -5.994  0.00  0.00    +0.000 A 
ATOM     15  C   UNL     1       6.812  -5.302  -5.909  0.00  0.00    +0.000 A 
ATOM     16  C   UNL     1       7.582  -5.594  -7.037  0.00  0.00    +0.000 A 
ATOM     17  C   UNL     1       6.961  -5.834  -8.263  0.00  0.00    +0.000 A 
ATOM     18  C   UNL     1       5.567  -5.787  -8.364  0.00  0.00    +0.000 A 
ATOM     19  C   UNL     1       4.798  -5.469  -7.235  0.00  0.00    +0.000 A 
BRANCH  18  20
ATOM     20  C   UNL     1       4.951  -6.076  -9.687  0.00  0.00    +0.000 C 
ATOM     21  N   UNL     1       3.665  -6.541  -9.691  0.00  0.00    +0.000 N 
ATOM     22  O   UNL     1       5.576  -5.952 -10.732  0.00  0.00    +0.000 OA
ATOM     23  H   UNL     1       3.213  -6.894  -8.860  0.00  0.00    +0.000 HD
ATOM     24  H   UNL     1       3.310  -6.860 -10.584  0.00  0.00    +0.000 HD
ENDBRANCH  18  20
ENDBRANCH  13  14
ENDBRANCH   1  13
TORSDOF 7
