REMARK  Name = 
REMARK  6 active torsions:
REMARK  status: ('A' for Active; 'I' for Inactive)
REMARK    1  A    between atoms: C_2  and  C_3
REMARK    2  A    between atoms: N_7  and  C_8
REMARK    3  A    between atoms: C_8  and  C_9
REMARK    4  A    between atoms: C_9  and  C_10
REMARK    5  A    between atoms: C_14  and  N_15
REMARK    6  A    between atoms: N_15  and  C_16
REMARK                            x       y       z     vdW  Elec       q    Type
REMARK                         _______ _______ _______ _____ _____    ______ ____
ROOT
ATOM      1  C   UNL     1      -6.616   2.428  -0.182  0.00  0.00    +0.000 A 
ATOM      2  C   UNL     1      -8.008   2.392  -0.041  0.00  0.00    +0.000 A 
ATOM      3  C   UNL     1      -8.739   3.579   0.019  0.00  0.00    +0.000 A 
ATOM      4  C   UNL     1      -8.092   4.815  -0.077  0.00  0.00    +0.000 A 
ATOM      5  C   UNL     1      -6.706   4.878  -0.219  0.00  0.00    +0.000 A 
ATOM      6  C   UNL     1      -5.979   3.676  -0.267  0.00  0.00    +0.000 A 
ENDROOT
BRANCH   5   7
ATOM      7  N   UNL     1      -5.994   6.094  -0.304  0.00  0.00    +0.000 N 
ATOM      8  H   UNL     1      -5.351   6.169   0.484  0.00  0.00    +0.000 HD
BRANCH   7   9
ATOM      9  C   UNL     1      -6.519   7.365  -0.729  0.00  0.00    +0.000 C 
ATOM     10  C   UNL     1      -5.473   8.501  -0.617  0.00  0.00    +0.000 C 
ATOM     11  N   UNL     1      -6.521   9.381  -0.053  0.00  0.00    +0.000 NA
ATOM     12  C   UNL     1      -7.301   8.177   0.323  0.00  0.00    +0.000 C 
ATOM     13  H   UNL     1      -6.979   9.956  -0.761  0.00  0.00    +0.000 HD
ENDBRANCH   7   9
ENDBRANCH   5   7
BRANCH   1  14
ATOM     14  C   UNL     1      -5.824   1.142  -0.283  0.00  0.00    +0.000 C 
BRANCH  14  15
ATOM     15  C   UNL     1      -5.783   0.620  -1.722  0.00  0.00    +0.000 C 
BRANCH  15  20
ATOM     16  C   UNL     1      -4.295  -2.736  -5.307  0.00  0.00    +0.000 A 
ATOM     17  C   UNL     1      -5.017  -1.550  -5.398  0.00  0.00    +0.000 A 
ATOM     18  C   UNL     1      -5.286  -0.827  -4.237  0.00  0.00    +0.000 A 
ATOM     19  C   UNL     1      -4.837  -1.294  -3.004  0.00  0.00    +0.000 A 
ATOM     20  N   UNL     1      -5.058  -0.632  -1.824  0.00  0.00    +0.000 N 
ATOM     21  N   UNL     1      -4.139  -2.445  -2.909  0.00  0.00    +0.000 NA
ATOM     22  C   UNL     1      -3.880  -3.136  -4.050  0.00  0.00    +0.000 A 
ATOM     23  H   UNL     1      -4.708  -1.109  -1.004  0.00  0.00    +0.000 HD
BRANCH  16  25
ATOM     24  N   UNL     1      -3.752  -4.125  -7.423  0.00  0.00    +0.000 NA
ATOM     25  C   UNL     1      -3.991  -3.507  -6.468  0.00  0.00    +0.000 C 
ENDBRANCH  16  25
ENDBRANCH  15  20
ENDBRANCH  14  15
ENDBRANCH   1  14
TORSDOF 6
