REMARK  Name = 
REMARK  7 active torsions:
REMARK  status: ('A' for Active; 'I' for Inactive)
REMARK    1  A    between atoms: C_1  and  C_2
REMARK    2  A    between atoms: C_2  and  C_3
REMARK    3  A    between atoms: C_7  and  C_8
REMARK    4  A    between atoms: C_8  and  C_9
REMARK    5  A    between atoms: C_9  and  N_10
REMARK    6  A    between atoms: C_14  and  C_15
REMARK    7  A    between atoms: C_23  and  O_24
REMARK                            x       y       z     vdW  Elec       q    Type
REMARK                         _______ _______ _______ _____ _____    ______ ____
ROOT
ATOM      1  C   UNL     1       3.001   0.412   1.490  0.00  0.00    +0.000 A 
ATOM      2  C   UNL     1       2.730   1.677   2.022  0.00  0.00    +0.000 A 
ATOM      3  C   UNL     1       3.046   1.990   3.345  0.00  0.00    +0.000 A 
ATOM      4  C   UNL     1       3.618   1.031   4.180  0.00  0.00    +0.000 A 
ATOM      5  C   UNL     1       3.893  -0.253   3.690  0.00  0.00    +0.000 A 
ATOM      6  C   UNL     1       3.618  -0.514   2.337  0.00  0.00    +0.000 A 
ENDROOT
BRANCH   1   8
ATOM      7  C   UNL     1       0.979   0.130   0.097  0.00  0.00    +0.000 C 
ATOM      8  C   UNL     1       2.525   0.026   0.074  0.00  0.00    +0.000 C 
ATOM      9  C   UNL     1       3.123   1.007  -0.968  0.00  0.00    +0.000 C 
ATOM     10  C   UNL     1       2.796   0.639  -2.420  0.00  0.00    +0.000 C 
ATOM     11  C   UNL     1       3.168  -0.799  -2.768  0.00  0.00    +0.000 C 
ATOM     12  C   UNL     1       2.578  -1.793  -1.774  0.00  0.00    +0.000 C 
ATOM     13  C   UNL     1       2.918  -1.429  -0.329  0.00  0.00    +0.000 C 
BRANCH  11  14
ATOM     14  O   UNL     1       4.586  -0.941  -2.819  0.00  0.00    +0.000 OA
ATOM     15  H   UNL     1       4.961  -0.694  -1.958  0.00  0.00    +0.000 HD
ENDBRANCH  11  14
ENDBRANCH   1   8
BRANCH   5  16
ATOM     16  C   UNL     1       4.403  -1.355   4.606  0.00  0.00    +0.000 C 
BRANCH  16  17
ATOM     17  C   UNL     1       4.636  -2.694   3.884  0.00  0.00    +0.000 C 
BRANCH  17  18
ATOM     18  N   UNL     1       5.090  -3.763   4.777  0.00  0.00    +0.000 N 
ATOM     19  C   UNL     1       5.300  -4.963   4.051  0.00  0.00    +0.000 A 
ATOM     20  C   UNL     1       5.740  -6.094   4.729  0.00  0.00    +0.000 A 
ATOM     21  C   UNL     1       5.967  -7.270   4.020  0.00  0.00    +0.000 A 
ATOM     22  C   UNL     1       5.725  -7.271   2.657  0.00  0.00    +0.000 A 
ATOM     23  N   UNL     1       5.292  -6.171   2.004  0.00  0.00    +0.000 NA
ATOM     24  N   UNL     1       5.097  -5.018   2.710  0.00  0.00    +0.000 NA
ATOM     25  H   UNL     1       4.416  -3.952   5.513  0.00  0.00    +0.000 HD
BRANCH  22  26
ATOM     26  C   UNL     1       5.923  -8.497   1.843  0.00  0.00    +0.000 C 
ATOM     27  N   UNL     1       5.645  -8.397   0.504  0.00  0.00    +0.000 N 
ATOM     28  O   UNL     1       6.307  -9.553   2.338  0.00  0.00    +0.000 OA
ATOM     29  H   UNL     1       5.324  -7.521   0.103  0.00  0.00    +0.000 HD
ATOM     30  H   UNL     1       5.760  -9.206  -0.082  0.00  0.00    +0.000 HD
ENDBRANCH  22  26
ENDBRANCH  17  18
ENDBRANCH  16  17
ENDBRANCH   5  16
TORSDOF 6
