REMARK  Name = 
REMARK  9 active torsions:
REMARK  status: ('A' for Active; 'I' for Inactive)
REMARK    1  A    between atoms: N_1  and  C_2
REMARK    2  A    between atoms: C_2  and  N_3
REMARK    3  A    between atoms: C_2  and  C_19
REMARK    4  A    between atoms: C_4  and  C_6
REMARK    5  A    between atoms: N_12  and  C_13
REMARK    6  A    between atoms: C_13  and  C_14
REMARK    7  A    between atoms: C_14  and  O_15
REMARK    8  A    between atoms: C_22  and  O_23
REMARK    9  A    between atoms: O_23  and  C_24
REMARK                            x       y       z     vdW  Elec       q    Type
REMARK                         _______ _______ _______ _____ _____    ______ ____
ROOT
ATOM      1  N   UNL     1       2.930   1.416  -0.105  0.00  0.00    +0.000 N 
ATOM      2  C   UNL     1       4.081   1.859  -0.691  0.00  0.00    +0.000 C 
ATOM      3  O   UNL     1       4.964   1.108  -1.095  0.00  0.00    +0.000 OA
ATOM      4  H   UNL     1       2.225   2.078   0.179  0.00  0.00    +0.000 HD
ENDROOT
BRANCH   2   5
ATOM      5  C   UNL     1       4.200   3.318  -0.794  0.00  0.00    +0.000 A 
ATOM      6  C   UNL     1       5.449   3.917  -0.861  0.00  0.00    +0.000 A 
ATOM      7  S   UNL     1       5.377   5.617  -0.994  0.00  0.00    +0.000 S 
ATOM      8  C   UNL     1       3.675   5.602  -1.017  0.00  0.00    +0.000 A 
ATOM      9  N   UNL     1       2.965   6.750  -1.158  0.00  0.00    +0.000 NA
ATOM     10  C   UNL     1       1.684   6.588  -1.241  0.00  0.00    +0.000 A 
ATOM     11  N   UNL     1       1.027   5.376  -1.166  0.00  0.00    +0.000 N 
ATOM     12  C   UNL     1       1.717   4.200  -0.905  0.00  0.00    +0.000 A 
ATOM     13  O   UNL     1       1.138   3.145  -0.651  0.00  0.00    +0.000 OA
ATOM     14  C   UNL     1       3.165   4.326  -0.890  0.00  0.00    +0.000 A 
BRANCH  11  15
ATOM     15  C   UNL     1      -0.431   5.319  -1.244  0.00  0.00    +0.000 C 
BRANCH  15  16
ATOM     16  C   UNL     1      -1.086   5.339   0.138  0.00  0.00    +0.000 C 
BRANCH  16  17
ATOM     17  O   UNL     1      -0.836   6.583   0.784  0.00  0.00    +0.000 OA
ATOM     18  H   UNL     1       0.043   6.531   1.198  0.00  0.00    +0.000 HD
ENDBRANCH  16  17
ENDBRANCH  15  16
ENDBRANCH  11  15
ENDBRANCH   2   5
BRANCH   1  19
ATOM     19  C   UNL     1       2.562   0.048  -0.039  0.00  0.00    +0.000 C 
BRANCH  19  20
ATOM     20  C   UNL     1       2.944  -0.624   1.258  0.00  0.00    +0.000 A 
ATOM     21  C   UNL     1       3.124  -2.014   1.254  0.00  0.00    +0.000 A 
ATOM     22  C   UNL     1       3.398  -2.701   2.434  0.00  0.00    +0.000 A 
ATOM     23  C   UNL     1       3.558  -2.002   3.632  0.00  0.00    +0.000 A 
ATOM     24  C   UNL     1       3.343  -0.624   3.661  0.00  0.00    +0.000 A 
ATOM     25  C   UNL     1       3.034   0.062   2.483  0.00  0.00    +0.000 A 
BRANCH  23  26
ATOM     26  O   UNL     1       3.875  -2.593   4.835  0.00  0.00    +0.000 OA
BRANCH  26  27
ATOM     27  C   UNL     1       4.647  -3.733   4.834  0.00  0.00    +0.000 A 
ATOM     28  C   UNL     1       5.715  -3.945   3.964  0.00  0.00    +0.000 A 
ATOM     29  C   UNL     1       6.368  -5.161   4.025  0.00  0.00    +0.000 A 
ATOM     30  N   UNL     1       6.069  -6.129   4.918  0.00  0.00    +0.000 NA
ATOM     31  C   UNL     1       5.074  -5.864   5.792  0.00  0.00    +0.000 A 
ATOM     32  C   UNL     1       4.341  -4.691   5.793  0.00  0.00    +0.000 A 
ENDBRANCH  26  27
ENDBRANCH  23  26
ENDBRANCH  19  20
BRANCH  19  33
ATOM     33  N   UNL     1       1.123   0.079  -0.174  0.00  0.00    +0.000 NA
ATOM     34  H   UNL     1       0.903   0.667  -0.975  0.00  0.00    +0.000 HD
ATOM     35  H   UNL     1       0.729   0.548   0.636  0.00  0.00    +0.000 HD
ENDBRANCH  19  33
ENDBRANCH   1  19
TORSDOF 9
