REMARK  Name = 
REMARK  5 active torsions:
REMARK  status: ('A' for Active; 'I' for Inactive)
REMARK    1  A    between atoms: N_1  and  C_2
REMARK    2  A    between atoms: C_2  and  C_3
REMARK    3  A    between atoms: C_6  and  C_7
REMARK    4  A    between atoms: C_7  and  N_8
REMARK    5  A    between atoms: C_13  and  C_14
REMARK                            x       y       z     vdW  Elec       q    Type
REMARK                         _______ _______ _______ _____ _____    ______ ____
ROOT
ATOM      1  N   UNL     1      -0.251   2.229   4.528  0.00  0.00    +0.000 N 
ATOM      2  C   UNL     1      -0.014   2.677   5.806  0.00  0.00    +0.000 A 
ATOM      3  C   UNL     1      -0.801   1.950   6.666  0.00  0.00    +0.000 A 
ATOM      4  C   UNL     1      -1.606   1.082   5.882  0.00  0.00    +0.000 A 
ATOM      5  C   UNL     1      -2.602   0.139   6.206  0.00  0.00    +0.000 A 
ATOM      6  C   UNL     1      -3.259  -0.549   5.175  0.00  0.00    +0.000 A 
ATOM      7  C   UNL     1      -2.896  -0.336   3.843  0.00  0.00    +0.000 A 
ATOM      8  C   UNL     1      -1.892   0.580   3.503  0.00  0.00    +0.000 A 
ATOM      9  C   UNL     1      -1.260   1.284   4.541  0.00  0.00    +0.000 A 
ENDROOT
BRANCH   6  10
ATOM     10  C   UNL     1      -4.348  -1.519   5.464  0.00  0.00    +0.000 C 
ATOM     11  N   UNL     1      -5.052  -1.344   6.623  0.00  0.00    +0.000 N 
ATOM     12  O   UNL     1      -4.641  -2.415   4.682  0.00  0.00    +0.000 OA
ATOM     13  H   UNL     1      -5.013  -0.487   7.155  0.00  0.00    +0.000 HD
ATOM     14  H   UNL     1      -5.864  -1.936   6.746  0.00  0.00    +0.000 HD
ENDBRANCH   6  10
BRANCH   1  15
ATOM     15  C   UNL     1       0.500   2.681   3.361  0.00  0.00    +0.000 C 
BRANCH  15  19
ATOM     16  C   UNL     1       3.063   0.792   1.120  0.00  0.00    +0.000 C 
ATOM     17  C   UNL     1       2.222   0.144   2.233  0.00  0.00    +0.000 C 
ATOM     18  C   UNL     1       2.328   0.885   3.566  0.00  0.00    +0.000 C 
ATOM     19  C   UNL     1       2.015   2.388   3.462  0.00  0.00    +0.000 C 
ATOM     20  C   UNL     1       2.793   3.038   2.306  0.00  0.00    +0.000 C 
ATOM     21  C   UNL     1       2.679   2.275   0.989  0.00  0.00    +0.000 C 
BRANCH  16  22
ATOM     22  C   UNL     1       4.568   0.541   1.357  0.00  0.00    +0.000 C 
BRANCH  22  23
ATOM     23  N   UNL     1       5.403   1.084   0.290  0.00  0.00    +0.000 NA
ATOM     24  H   UNL     1       6.361   0.757   0.414  0.00  0.00    +0.000 HD
ATOM     25  H   UNL     1       5.446   2.099   0.373  0.00  0.00    +0.000 HD
ENDBRANCH  22  23
ENDBRANCH  16  22
ENDBRANCH  15  19
ENDBRANCH   1  15
TORSDOF 5
