REMARK  Name = 
REMARK  6 active torsions:
REMARK  status: ('A' for Active; 'I' for Inactive)
REMARK    1  A    between atoms: C_2  and  C_4
REMARK    2  A    between atoms: N_8  and  C_9
REMARK    3  A    between atoms: C_9  and  C_10
REMARK    4  A    between atoms: C_10  and  C_13
REMARK    5  A    between atoms: C_17  and  N_18
REMARK    6  A    between atoms: N_18  and  C_19
REMARK                            x       y       z     vdW  Elec       q    Type
REMARK                         _______ _______ _______ _____ _____    ______ ____
ROOT
ATOM      1  C   UNL     1       6.065  -4.343  -5.807  0.00  0.00    +0.000 C 
ATOM      2  F   UNL     1       7.341  -3.903  -5.589  0.00  0.00    +0.000 F 
ATOM      3  F   UNL     1       5.990  -5.553  -5.173  0.00  0.00    +0.000 F 
ENDROOT
BRANCH   1   4
ATOM      4  C   UNL     1       5.755  -4.456  -7.288  0.00  0.00    +0.000 A 
ATOM      5  C   UNL     1       6.285  -3.536  -8.202  0.00  0.00    +0.000 A 
ATOM      6  C   UNL     1       5.978  -3.636  -9.559  0.00  0.00    +0.000 A 
ATOM      7  C   UNL     1       5.133  -4.649 -10.018  0.00  0.00    +0.000 A 
ATOM      8  C   UNL     1       4.598  -5.582  -9.127  0.00  0.00    +0.000 A 
ATOM      9  C   UNL     1       4.914  -5.475  -7.766  0.00  0.00    +0.000 A 
BRANCH   8  10
ATOM     10  N   UNL     1       3.746  -6.633  -9.530  0.00  0.00    +0.000 N 
ATOM     11  H   UNL     1       4.176  -7.524  -9.279  0.00  0.00    +0.000 HD
BRANCH  10  12
ATOM     12  C   UNL     1       3.008  -6.699 -10.772  0.00  0.00    +0.000 C 
ATOM     13  C   UNL     1       1.837  -5.674 -10.810  0.00  0.00    +0.000 C 
ATOM     14  S   UNL     1       0.734  -6.919 -11.548  0.00  0.00    +0.000 S 
ATOM     15  C   UNL     1       2.049  -7.924 -10.796  0.00  0.00    +0.000 C 
ENDBRANCH  10  12
ENDBRANCH   8  10
ENDBRANCH   1   4
BRANCH   1  16
ATOM     16  C   UNL     1       5.079  -3.367  -5.119  0.00  0.00    +0.000 C 
BRANCH  16  21
ATOM     17  C   UNL     1       3.003  -1.062  -1.015  0.00  0.00    +0.000 A 
ATOM     18  C   UNL     1       2.679  -0.994  -2.365  0.00  0.00    +0.000 A 
ATOM     19  C   UNL     1       3.456  -1.696  -3.286  0.00  0.00    +0.000 A 
ATOM     20  C   UNL     1       4.537  -2.457  -2.849  0.00  0.00    +0.000 A 
ATOM     21  N   UNL     1       5.336  -3.177  -3.694  0.00  0.00    +0.000 N 
ATOM     22  N   UNL     1       4.872  -2.510  -1.546  0.00  0.00    +0.000 NA
ATOM     23  C   UNL     1       4.116  -1.808  -0.659  0.00  0.00    +0.000 A 
ATOM     24  H   UNL     1       6.051  -3.729  -3.229  0.00  0.00    +0.000 HD
BRANCH  17  26
ATOM     25  N   UNL     1       0.908  -0.119  -0.234  0.00  0.00    +0.000 N 
ATOM     26  C   UNL     1       2.228  -0.367   0.031  0.00  0.00    +0.000 C 
ATOM     27  O   UNL     1       2.730  -0.056   1.102  0.00  0.00    +0.000 OA
ATOM     28  H   UNL     1       0.364   0.254   0.528  0.00  0.00    +0.000 HD
ATOM     29  H   UNL     1       0.408  -0.584  -0.980  0.00  0.00    +0.000 HD
ENDBRANCH  17  26
ENDBRANCH  16  21
ENDBRANCH   1  16
TORSDOF 6
