REMARK  Name = 
REMARK  5 active torsions:
REMARK  status: ('A' for Active; 'I' for Inactive)
REMARK    1  A    between atoms: C_2  and  C_4
REMARK    2  A    between atoms: C_7  and  O_8
REMARK    3  A    between atoms: O_8  and  C_9
REMARK    4  A    between atoms: C_9  and  C_10
REMARK    5  A    between atoms: C_14  and  C_15
REMARK                            x       y       z     vdW  Elec       q    Type
REMARK                         _______ _______ _______ _____ _____    ______ ____
ROOT
ATOM      1  C   UNL     1       6.604   2.734  -3.912  0.00  0.00    +0.000 C 
ATOM      2  C   UNL     1       6.951   1.736  -5.008  0.00  0.00    +0.000 C 
ATOM      3  C   UNL     1       7.492   1.541  -3.631  0.00  0.00    +0.000 C 
ENDROOT
BRANCH   1   4
ATOM      4  C   UNL     1       7.180   4.137  -3.989  0.00  0.00    +0.000 A 
ATOM      5  C   UNL     1       6.742   5.028  -4.982  0.00  0.00    +0.000 A 
ATOM      6  C   UNL     1       7.164   6.357  -5.002  0.00  0.00    +0.000 A 
ATOM      7  C   UNL     1       8.013   6.831  -4.009  0.00  0.00    +0.000 A 
ATOM      8  C   UNL     1       8.475   5.992  -2.982  0.00  0.00    +0.000 A 
ATOM      9  C   UNL     1       8.080   4.638  -3.025  0.00  0.00    +0.000 A 
BRANCH   8  10
ATOM     10  C   UNL     1       9.279   6.509  -1.860  0.00  0.00    +0.000 A 
ATOM     11  C   UNL     1       9.055   7.772  -1.298  0.00  0.00    +0.000 A 
ATOM     12  N   UNL     1       9.748   8.260  -0.240  0.00  0.00    +0.000 NA
ATOM     13  C   UNL     1      10.689   7.430   0.255  0.00  0.00    +0.000 A 
ATOM     14  C   UNL     1      10.924   6.177  -0.280  0.00  0.00    +0.000 A 
ATOM     15  N   UNL     1      10.224   5.687  -1.336  0.00  0.00    +0.000 NA
ENDBRANCH   8  10
ENDBRANCH   1   4
BRANCH   1  16
ATOM     16  O   UNL     1       5.194   2.649  -3.596  0.00  0.00    +0.000 OA
BRANCH  16  20
ATOM     17  C   UNL     1       3.700   2.620   0.177  0.00  0.00    +0.000 A 
ATOM     18  N   UNL     1       5.053   2.688   0.092  0.00  0.00    +0.000 NA
ATOM     19  C   UNL     1       5.557   2.726  -1.163  0.00  0.00    +0.000 A 
ATOM     20  C   UNL     1       4.784   2.690  -2.302  0.00  0.00    +0.000 A 
ATOM     21  C   UNL     1       3.421   2.650  -2.081  0.00  0.00    +0.000 A 
ATOM     22  N   UNL     1       2.846   2.612  -0.863  0.00  0.00    +0.000 NA
BRANCH  17  24
ATOM     23  N   UNL     1       4.035   2.463   2.591  0.00  0.00    +0.000 N 
ATOM     24  C   UNL     1       3.117   2.492   1.566  0.00  0.00    +0.000 C 
ATOM     25  O   UNL     1       1.918   2.406   1.803  0.00  0.00    +0.000 OA
ATOM     26  H   UNL     1       3.705   2.367   3.540  0.00  0.00    +0.000 HD
ATOM     27  H   UNL     1       5.025   2.532   2.389  0.00  0.00    +0.000 HD
ENDBRANCH  17  24
ENDBRANCH  16  20
ENDBRANCH   1  16
TORSDOF 5
