REMARK  Name = 
REMARK  7 active torsions:
REMARK  status: ('A' for Active; 'I' for Inactive)
REMARK    1  A    between atoms: C_1  and  O_2
REMARK    2  A    between atoms: O_2  and  C_3
REMARK    3  A    between atoms: C_6  and  C_7
REMARK    4  A    between atoms: C_11  and  C_12
REMARK    5  A    between atoms: C_12  and  N_13
REMARK    6  A    between atoms: N_13  and  C_14
REMARK    7  A    between atoms: C_17  and  C_18
REMARK                            x       y       z     vdW  Elec       q    Type
REMARK                         _______ _______ _______ _____ _____    ______ ____
ROOT
ATOM      1  C   UNL     1       6.368   1.050   7.646  0.00  0.00    +0.000 C 
ATOM      2  C   UNL     1       5.579   1.021   8.945  0.00  0.00    +0.000 C 
ATOM      3  C   UNL     1       5.107   1.893   7.831  0.00  0.00    +0.000 C 
ENDROOT
BRANCH   1   8
ATOM      4  C   UNL     1       5.416  -1.066   4.727  0.00  0.00    +0.000 A 
ATOM      5  C   UNL     1       5.903  -2.329   5.048  0.00  0.00    +0.000 A 
ATOM      6  C   UNL     1       6.608  -2.500   6.233  0.00  0.00    +0.000 A 
ATOM      7  C   UNL     1       6.787  -1.412   7.078  0.00  0.00    +0.000 A 
ATOM      8  C   UNL     1       6.261  -0.170   6.724  0.00  0.00    +0.000 A 
ATOM      9  N   UNL     1       5.607  -0.005   5.547  0.00  0.00    +0.000 NA
BRANCH   4  13
ATOM     10  C   UNL     1       3.001  -0.244   1.250  0.00  0.00    +0.000 A 
ATOM     11  C   UNL     1       2.874   0.530   2.403  0.00  0.00    +0.000 A 
ATOM     12  C   UNL     1       3.673   0.259   3.517  0.00  0.00    +0.000 A 
ATOM     13  C   UNL     1       4.617  -0.785   3.520  0.00  0.00    +0.000 A 
ATOM     14  C   UNL     1       4.748  -1.532   2.340  0.00  0.00    +0.000 A 
ATOM     15  C   UNL     1       3.949  -1.265   1.224  0.00  0.00    +0.000 A 
BRANCH  10  17
ATOM     16  C   UNL     1       1.247   0.883   0.121  0.00  0.00    +0.000 C 
ATOM     17  O   UNL     1       2.271  -0.104   0.106  0.00  0.00    +0.000 OA
ENDBRANCH  10  17
ENDBRANCH   4  13
ENDBRANCH   1   8
BRANCH   1  18
ATOM     18  N   UNL     1       7.609   1.843   7.466  0.00  0.00    +0.000 N 
ATOM     19  H   UNL     1       7.792   2.088   6.492  0.00  0.00    +0.000 HD
BRANCH  18  20
ATOM     20  C   UNL     1       8.794   1.586   8.181  0.00  0.00    +0.000 A 
ATOM     21  C   UNL     1       9.956   2.305   7.871  0.00  0.00    +0.000 A 
ATOM     22  C   UNL     1      11.117   2.130   8.626  0.00  0.00    +0.000 A 
ATOM     23  C   UNL     1      11.074   1.241   9.691  0.00  0.00    +0.000 A 
ATOM     24  N   UNL     1       9.966   0.539  10.049  0.00  0.00    +0.000 NA
ATOM     25  C   UNL     1       8.863   0.752   9.294  0.00  0.00    +0.000 A 
BRANCH  23  26
ATOM     26  C   UNL     1      12.285   1.009  10.538  0.00  0.00    +0.000 C 
ATOM     27  N   UNL     1      12.108   0.110  11.557  0.00  0.00    +0.000 N 
ATOM     28  O   UNL     1      13.352   1.572  10.340  0.00  0.00    +0.000 OA
ATOM     29  H   UNL     1      11.197  -0.318  11.684  0.00  0.00    +0.000 HD
ATOM     30  H   UNL     1      12.867  -0.100  12.186  0.00  0.00    +0.000 HD
ENDBRANCH  23  26
ENDBRANCH  18  20
ENDBRANCH   1  18
TORSDOF 6
