REMARK  Name = 
REMARK  9 active torsions:
REMARK  status: ('A' for Active; 'I' for Inactive)
REMARK    1  A    between atoms: C_1  and  C_2
REMARK    2  A    between atoms: C_2  and  C_3
REMARK    3  A    between atoms: C_3  and  N_4
REMARK    4  A    between atoms: C_10  and  C_11
REMARK    5  A    between atoms: N_13  and  C_14
REMARK    6  A    between atoms: C_14  and  C_15
REMARK    7  A    between atoms: C_18  and  C_19
REMARK    8  A    between atoms: C_19  and  N_20
REMARK    9  A    between atoms: C_21  and  C_23
REMARK                            x       y       z     vdW  Elec       q    Type
REMARK                         _______ _______ _______ _____ _____    ______ ____
ROOT
ATOM      1  C   UNL     1       8.134  -5.344   1.308  0.00  0.00    +0.000 C 
ENDROOT
BRANCH   1   2
ATOM      2  C   UNL     1       9.469  -6.047   1.402  0.00  0.00    +0.000 A 
ATOM      3  C   UNL     1      10.008  -6.365   2.657  0.00  0.00    +0.000 A 
ATOM      4  C   UNL     1      11.236  -7.030   2.766  0.00  0.00    +0.000 A 
ATOM      5  C   UNL     1      11.971  -7.366   1.621  0.00  0.00    +0.000 A 
ATOM      6  C   UNL     1      11.439  -7.038   0.366  0.00  0.00    +0.000 A 
ATOM      7  C   UNL     1      10.208  -6.377   0.257  0.00  0.00    +0.000 A 
BRANCH   5   8
ATOM      8  C   UNL     1      13.295  -8.083   1.729  0.00  0.00    +0.000 C 
BRANCH   8   9
ATOM      9  N   UNL     1      13.127  -9.517   1.733  0.00  0.00    +0.000 N 
ATOM     10  C   UNL     1      14.210 -10.365   1.748  0.00  0.00    +0.000 C 
ATOM     11  O   UNL     1      15.367  -9.965   1.734  0.00  0.00    +0.000 OA
ATOM     12  H   UNL     1      12.190  -9.883   1.807  0.00  0.00    +0.000 HD
BRANCH  10  13
ATOM     13  C   UNL     1      13.884 -11.773   1.790  0.00  0.00    +0.000 A 
ATOM     14  C   UNL     1      12.688 -12.459   1.778  0.00  0.00    +0.000 A 
ATOM     15  N   UNL     1      12.887 -13.813   1.854  0.00  0.00    +0.000 NA
ATOM     16  C   UNL     1      14.189 -13.967   1.904  0.00  0.00    +0.000 A 
ATOM     17  N   UNL     1      14.835 -12.766   1.853  0.00  0.00    +0.000 N 
ATOM     18  H   UNL     1      15.835 -12.618   1.866  0.00  0.00    +0.000 HD
ENDBRANCH  10  13
ENDBRANCH   8   9
ENDBRANCH   5   8
ENDBRANCH   1   2
BRANCH   1  21
ATOM     19  C   UNL     1       7.310  -3.059   1.773  0.00  0.00    +0.000 C 
ATOM     20  O   UNL     1       6.223  -3.459   2.176  0.00  0.00    +0.000 OA
ATOM     21  N   UNL     1       8.283  -3.910   1.316  0.00  0.00    +0.000 N 
ATOM     22  H   UNL     1       9.196  -3.545   1.065  0.00  0.00    +0.000 HD
BRANCH  19  29
ATOM     23  N   UNL     1      11.242  -0.570   2.141  0.00  0.00    +0.000 N 
ATOM     24  C   UNL     1      10.980   0.784   2.085  0.00  0.00    +0.000 A 
ATOM     25  N   UNL     1       9.815   1.316   1.903  0.00  0.00    +0.000 NA
ATOM     26  C   UNL     1       8.799   0.422   1.796  0.00  0.00    +0.000 A 
ATOM     27  S   UNL     1       7.183   0.932   1.654  0.00  0.00    +0.000 S 
ATOM     28  C   UNL     1       6.613  -0.678   1.660  0.00  0.00    +0.000 A 
ATOM     29  C   UNL     1       7.627  -1.623   1.732  0.00  0.00    +0.000 A 
ATOM     30  C   UNL     1       8.907  -0.954   1.794  0.00  0.00    +0.000 A 
ATOM     31  C   UNL     1      10.243  -1.505   1.896  0.00  0.00    +0.000 A 
ATOM     32  O   UNL     1      10.481  -2.696   1.730  0.00  0.00    +0.000 OA
BRANCH  23  33
ATOM     33  C   UNL     1      12.601  -1.059   2.321  0.00  0.00    +0.000 C 
BRANCH  33  35
ATOM     34  C   UNL     1      14.708  -1.831   1.192  0.00  0.00    +0.000 C 
ATOM     35  C   UNL     1      13.305  -1.290   0.986  0.00  0.00    +0.000 C 
ENDBRANCH  33  35
ENDBRANCH  23  33
ENDBRANCH  19  29
ENDBRANCH   1  21
TORSDOF 8
