REMARK  Name = 
REMARK  6 active torsions:
REMARK  status: ('A' for Active; 'I' for Inactive)
REMARK    1  A    between atoms: C_2  and  C_19
REMARK    2  A    between atoms: N_3  and  C_4
REMARK    3  A    between atoms: C_4  and  C_5
REMARK    4  A    between atoms: C_8  and  O_9
REMARK    5  A    between atoms: O_9  and  C_10
REMARK    6  A    between atoms: C_10  and  C_11
REMARK                            x       y       z     vdW  Elec       q    Type
REMARK                         _______ _______ _______ _____ _____    ______ ____
ROOT
ATOM      1  O   UNL     1       3.403   1.093   1.064  0.00  0.00    +0.000 OA
ATOM      2  C   UNL     1       3.435   0.060   0.400  0.00  0.00    +0.000 C 
ATOM      3  N   UNL     1       2.844  -1.101   0.825  0.00  0.00    +0.000 N 
ATOM      4  H   UNL     1       3.020  -1.962   0.316  0.00  0.00    +0.000 HD
ENDROOT
BRANCH   2   5
ATOM      5  C   UNL     1       4.074   0.020  -0.920  0.00  0.00    +0.000 A 
ATOM      6  C   UNL     1       4.240   1.194  -1.642  0.00  0.00    +0.000 A 
ATOM      7  S   UNL     1       5.011   0.969  -3.146  0.00  0.00    +0.000 S 
ATOM      8  C   UNL     1       5.190  -0.700  -2.866  0.00  0.00    +0.000 A 
ATOM      9  N   UNL     1       5.828  -1.496  -3.764  0.00  0.00    +0.000 NA
ATOM     10  C   UNL     1       5.938  -2.730  -3.401  0.00  0.00    +0.000 A 
ATOM     11  N   UNL     1       5.451  -3.245  -2.229  0.00  0.00    +0.000 N 
ATOM     12  C   UNL     1       4.716  -2.499  -1.338  0.00  0.00    +0.000 A 
ATOM     13  O   UNL     1       4.150  -3.021  -0.383  0.00  0.00    +0.000 OA
ATOM     14  C   UNL     1       4.630  -1.087  -1.662  0.00  0.00    +0.000 A 
ATOM     15  H   UNL     1       5.535  -4.230  -2.022  0.00  0.00    +0.000 HD
ENDBRANCH   2   5
BRANCH   3  16
ATOM     16  C   UNL     1       2.226  -1.227   2.119  0.00  0.00    +0.000 C 
BRANCH  16  17
ATOM     17  C   UNL     1       3.164  -1.815   3.131  0.00  0.00    +0.000 A 
ATOM     18  C   UNL     1       4.045  -1.018   3.867  0.00  0.00    +0.000 A 
ATOM     19  C   UNL     1       4.871  -1.602   4.826  0.00  0.00    +0.000 A 
ATOM     20  C   UNL     1       4.777  -2.969   5.027  0.00  0.00    +0.000 A 
ATOM     21  N   UNL     1       3.969  -3.777   4.308  0.00  0.00    +0.000 NA
ATOM     22  C   UNL     1       3.195  -3.185   3.370  0.00  0.00    +0.000 A 
BRANCH  20  23
ATOM     23  O   UNL     1       5.584  -3.516   6.005  0.00  0.00    +0.000 OA
BRANCH  23  24
ATOM     24  C   UNL     1       5.065  -4.760   6.480  0.00  0.00    +0.000 C 
BRANCH  24  25
ATOM     25  C   UNL     1       6.006  -5.344   7.499  0.00  0.00    +0.000 A 
ATOM     26  C   UNL     1       5.629  -5.543   8.830  0.00  0.00    +0.000 A 
ATOM     27  C   UNL     1       6.515  -6.152   9.715  0.00  0.00    +0.000 A 
ATOM     28  C   UNL     1       7.756  -6.543   9.238  0.00  0.00    +0.000 A 
ATOM     29  N   UNL     1       8.160  -6.359   7.963  0.00  0.00    +0.000 NA
ATOM     30  C   UNL     1       7.280  -5.762   7.128  0.00  0.00    +0.000 A 
ENDBRANCH  24  25
ENDBRANCH  23  24
ENDBRANCH  20  23
ENDBRANCH  16  17
ENDBRANCH   3  16
TORSDOF 6
