REMARK  Name = 
REMARK  6 active torsions:
REMARK  status: ('A' for Active; 'I' for Inactive)
REMARK    1  A    between atoms: C_1  and  N_2
REMARK    2  A    between atoms: N_2  and  C_3
REMARK    3  A    between atoms: C_3  and  C_4
REMARK    4  A    between atoms: C_7  and  C_8
REMARK    5  A    between atoms: C_8  and  C_9
REMARK    6  A    between atoms: C_17  and  C_19
REMARK                            x       y       z     vdW  Elec       q    Type
REMARK                         _______ _______ _______ _____ _____    ______ ____
ROOT
ATOM      1  C   UNL     1       1.145  -0.224  -0.103  0.00  0.00    +0.000 C 
ATOM      2  N   UNL     1       2.563  -0.242   0.244  0.00  0.00    +0.000 N 
ATOM      3  C   UNL     1       3.275  -1.339  -0.275  0.00  0.00    +0.000 C 
ATOM      4  O   UNL     1       2.673  -2.341  -0.663  0.00  0.00    +0.000 OA
ENDROOT
BRANCH   3   5
ATOM      5  C   UNL     1       4.732  -1.265  -0.486  0.00  0.00    +0.000 A 
ATOM      6  C   UNL     1       5.431  -0.155  -0.933  0.00  0.00    +0.000 A 
ATOM      7  S   UNL     1       7.052  -0.482  -1.363  0.00  0.00    +0.000 S 
ATOM      8  C   UNL     1       6.852  -2.136  -1.035  0.00  0.00    +0.000 A 
ATOM      9  N   UNL     1       7.827  -3.033  -1.335  0.00  0.00    +0.000 NA
ATOM     10  C   UNL     1       7.522  -4.256  -1.047  0.00  0.00    +0.000 A 
ATOM     11  N   UNL     1       6.350  -4.651  -0.444  0.00  0.00    +0.000 N 
ATOM     12  C   UNL     1       5.393  -3.762  -0.022  0.00  0.00    +0.000 A 
ATOM     13  O   UNL     1       4.491  -4.105   0.734  0.00  0.00    +0.000 OA
ATOM     14  C   UNL     1       5.623  -2.402  -0.466  0.00  0.00    +0.000 A 
ATOM     15  H   UNL     1       6.231  -5.607  -0.146  0.00  0.00    +0.000 HD
ENDBRANCH   3   5
BRANCH   2  16
ATOM     16  C   UNL     1       3.197   0.971   0.756  0.00  0.00    +0.000 C 
BRANCH  16  17
ATOM     17  C   UNL     1       2.365   1.829   1.671  0.00  0.00    +0.000 A 
ATOM     18  C   UNL     1       2.225   1.518   3.026  0.00  0.00    +0.000 A 
ATOM     19  C   UNL     1       1.424   2.313   3.848  0.00  0.00    +0.000 A 
ATOM     20  C   UNL     1       0.739   3.419   3.323  0.00  0.00    +0.000 A 
ATOM     21  C   UNL     1       0.904   3.744   1.972  0.00  0.00    +0.000 A 
ATOM     22  C   UNL     1       1.712   2.959   1.155  0.00  0.00    +0.000 A 
BRANCH  20  23
ATOM     23  C   UNL     1      -0.144   4.269   4.203  0.00  0.00    +0.000 C 
BRANCH  23  24
ATOM     24  C   UNL     1       0.580   5.429   4.810  0.00  0.00    +0.000 A 
ATOM     25  C   UNL     1       0.661   6.661   4.193  0.00  0.00    +0.000 A 
ATOM     26  N   UNL     1       1.343   7.709   4.694  0.00  0.00    +0.000 NA
ATOM     27  C   UNL     1       1.970   7.488   5.859  0.00  0.00    +0.000 A 
ATOM     28  N   UNL     1       1.966   6.341   6.554  0.00  0.00    +0.000 NA
ATOM     29  C   UNL     1       1.267   5.330   6.003  0.00  0.00    +0.000 A 
ENDBRANCH  23  24
ENDBRANCH  20  23
ENDBRANCH  16  17
ENDBRANCH   2  16
TORSDOF 5
