REMARK  Name = 
REMARK  7 active torsions:
REMARK  status: ('A' for Active; 'I' for Inactive)
REMARK    1  A    between atoms: C_2  and  C_19
REMARK    2  A    between atoms: N_3  and  C_4
REMARK    3  A    between atoms: C_4  and  C_5
REMARK    4  A    between atoms: C_8  and  C_9
REMARK    5  A    between atoms: C_9  and  N_10
REMARK    6  A    between atoms: N_10  and  C_11
REMARK    7  A    between atoms: C_11  and  C_12
REMARK                            x       y       z     vdW  Elec       q    Type
REMARK                         _______ _______ _______ _____ _____    ______ ____
ROOT
ATOM      1  C   UNL     1       2.169   2.058  -1.514  0.00  0.00    +0.000 C 
ENDROOT
BRANCH   1   2
ATOM      2  C   UNL     1       3.110   3.021  -2.173  0.00  0.00    +0.000 A 
ATOM      3  C   UNL     1       2.893   4.401  -2.138  0.00  0.00    +0.000 A 
ATOM      4  C   UNL     1       3.789   5.268  -2.767  0.00  0.00    +0.000 A 
ATOM      5  C   UNL     1       4.893   4.734  -3.423  0.00  0.00    +0.000 A 
ATOM      6  N   UNL     1       5.130   3.394  -3.445  0.00  0.00    +0.000 NA
ATOM      7  C   UNL     1       4.249   2.578  -2.827  0.00  0.00    +0.000 A 
BRANCH   5   8
ATOM      8  C   UNL     1       5.889   5.647  -4.139  0.00  0.00    +0.000 C 
BRANCH   8   9
ATOM      9  N   UNL     1       6.476   4.957  -5.281  0.00  0.00    +0.000 NA
ATOM     10  H   UNL     1       5.730   4.585  -5.868  0.00  0.00    +0.000 HD
BRANCH   9  11
ATOM     11  C   UNL     1       7.495   5.652  -6.043  0.00  0.00    +0.000 C 
BRANCH  11  12
ATOM     12  C   UNL     1       7.959   4.661  -7.126  0.00  0.00    +0.000 C 
ATOM     13  C   UNL     1       8.617   3.418  -6.546  0.00  0.00    +0.000 C 
ATOM     14  C   UNL     1      10.093   3.728  -6.603  0.00  0.00    +0.000 C 
ATOM     15  O   UNL     1      10.296   4.668  -7.661  0.00  0.00    +0.000 OA
ATOM     16  C   UNL     1       9.030   5.211  -8.051  0.00  0.00    +0.000 C 
ENDBRANCH  11  12
ENDBRANCH   9  11
ENDBRANCH   8   9
ENDBRANCH   5   8
ENDBRANCH   1   2
BRANCH   1  19
ATOM     17  O   UNL     1       1.347   3.575   0.716  0.00  0.00    +0.000 OA
ATOM     18  C   UNL     1       2.035   2.574   0.896  0.00  0.00    +0.000 C 
ATOM     19  N   UNL     1       2.515   1.813  -0.136  0.00  0.00    +0.000 N 
ATOM     20  H   UNL     1       2.990   0.941   0.065  0.00  0.00    +0.000 HD
BRANCH  18  21
ATOM     21  C   UNL     1       2.414   2.141   2.247  0.00  0.00    +0.000 A 
ATOM     22  C   UNL     1       2.436   3.058   3.289  0.00  0.00    +0.000 A 
ATOM     23  S   UNL     1       2.897   2.381   4.785  0.00  0.00    +0.000 S 
ATOM     24  C   UNL     1       3.038   0.829   4.101  0.00  0.00    +0.000 A 
ATOM     25  N   UNL     1       3.380  -0.246   4.864  0.00  0.00    +0.000 NA
ATOM     26  C   UNL     1       3.406  -1.364   4.227  0.00  0.00    +0.000 A 
ATOM     27  N   UNL     1       3.131  -1.513   2.892  0.00  0.00    +0.000 N 
ATOM     28  C   UNL     1       2.845  -0.450   2.069  0.00  0.00    +0.000 A 
ATOM     29  O   UNL     1       2.710  -0.601   0.859  0.00  0.00    +0.000 OA
ATOM     30  C   UNL     1       2.764   0.832   2.745  0.00  0.00    +0.000 A 
ATOM     31  H   UNL     1       3.195  -2.416   2.448  0.00  0.00    +0.000 HD
ENDBRANCH  18  21
ENDBRANCH   1  19
TORSDOF 7
