REMARK  Name = 
REMARK  6 active torsions:
REMARK  status: ('A' for Active; 'I' for Inactive)
REMARK    1  A    between atoms: N_1  and  C_2
REMARK    2  A    between atoms: C_2  and  C_3
REMARK    3  A    between atoms: C_6  and  C_7
REMARK    4  A    between atoms: C_7  and  S_8
REMARK    5  A    between atoms: S_8  and  C_9
REMARK    6  A    between atoms: C_13  and  C_14
REMARK                            x       y       z     vdW  Elec       q    Type
REMARK                         _______ _______ _______ _____ _____    ______ ____
ROOT
ATOM      1  S   UNL     1       5.088  -0.083  -6.083  0.00  0.00    +0.000 S 
ENDROOT
BRANCH   1   2
ATOM      2  C   UNL     1       5.559  -0.780  -7.649  0.00  0.00    +0.000 A 
ATOM      3  N   UNL     1       6.116   0.106  -8.499  0.00  0.00    +0.000 NA
ATOM      4  C   UNL     1       6.533  -0.346  -9.693  0.00  0.00    +0.000 A 
ATOM      5  C   UNL     1       6.416  -1.652 -10.075  0.00  0.00    +0.000 A 
ATOM      6  C   UNL     1       5.829  -2.480  -9.143  0.00  0.00    +0.000 A 
ATOM      7  N   UNL     1       5.385  -2.083  -7.917  0.00  0.00    +0.000 NA
BRANCH   6   8
ATOM      8  C   UNL     1       5.669  -3.925  -9.500  0.00  0.00    +0.000 C 
ATOM      9  N   UNL     1       5.076  -4.715  -8.557  0.00  0.00    +0.000 N 
ATOM     10  O   UNL     1       6.046  -4.382 -10.574  0.00  0.00    +0.000 OA
ATOM     11  H   UNL     1       4.763  -4.321  -7.682  0.00  0.00    +0.000 HD
ATOM     12  H   UNL     1       4.941  -5.697  -8.755  0.00  0.00    +0.000 HD
ENDBRANCH   6   8
ENDBRANCH   1   2
BRANCH   1  13
ATOM     13  C   UNL     1       4.350  -1.502  -5.221  0.00  0.00    +0.000 C 
BRANCH  13  17
ATOM     14  C   UNL     1       2.949  -0.533  -1.208  0.00  0.00    +0.000 A 
ATOM     15  C   UNL     1       2.431   0.131  -2.327  0.00  0.00    +0.000 A 
ATOM     16  C   UNL     1       2.884  -0.172  -3.617  0.00  0.00    +0.000 A 
ATOM     17  C   UNL     1       3.880  -1.140  -3.823  0.00  0.00    +0.000 A 
ATOM     18  C   UNL     1       4.408  -1.793  -2.700  0.00  0.00    +0.000 A 
ATOM     19  C   UNL     1       3.948  -1.493  -1.410  0.00  0.00    +0.000 A 
BRANCH  14  20
ATOM     20  C   UNL     1       2.445  -0.208   0.177  0.00  0.00    +0.000 C 
BRANCH  20  21
ATOM     21  N   UNL     1       1.017  -0.480   0.305  0.00  0.00    +0.000 NA
ATOM     22  H   UNL     1       0.730  -0.321   1.268  0.00  0.00    +0.000 HD
ATOM     23  H   UNL     1       0.853  -1.466   0.112  0.00  0.00    +0.000 HD
ENDBRANCH  20  21
ENDBRANCH  14  20
ENDBRANCH  13  17
ENDBRANCH   1  13
TORSDOF 6
