REMARK  Name = 
REMARK  4 active torsions:
REMARK  status: ('A' for Active; 'I' for Inactive)
REMARK    1  A    between atoms: C_2  and  C_4
REMARK    2  A    between atoms: N_8  and  C_9
REMARK    3  A    between atoms: C_9  and  C_10
REMARK    4  A    between atoms: C_14  and  C_15
REMARK                            x       y       z     vdW  Elec       q    Type
REMARK                         _______ _______ _______ _____ _____    ______ ____
ROOT
ATOM      1  C   UNL     1       5.125  -5.252  -2.988  0.00  0.00    +0.000 C 
ENDROOT
BRANCH   1   6
ATOM      2  C   UNL     1       5.504  -3.555   1.880  0.00  0.00    +0.000 A 
ATOM      3  C   UNL     1       6.351  -3.370   0.792  0.00  0.00    +0.000 A 
ATOM      4  C   UNL     1       6.017  -3.945  -0.433  0.00  0.00    +0.000 A 
ATOM      5  C   UNL     1       4.858  -4.702  -0.555  0.00  0.00    +0.000 A 
ATOM      6  N   UNL     1       4.414  -5.230  -1.734  0.00  0.00    +0.000 N 
ATOM      7  N   UNL     1       4.053  -4.920   0.505  0.00  0.00    +0.000 NA
ATOM      8  C   UNL     1       4.389  -4.354   1.695  0.00  0.00    +0.000 A 
ATOM      9  H   UNL     1       3.621  -5.846  -1.606  0.00  0.00    +0.000 HD
BRANCH   2  11
ATOM     10  N   UNL     1       6.480  -1.780   3.216  0.00  0.00    +0.000 N 
ATOM     11  C   UNL     1       5.757  -2.942   3.197  0.00  0.00    +0.000 C 
ATOM     12  O   UNL     1       5.305  -3.423   4.228  0.00  0.00    +0.000 OA
ATOM     13  H   UNL     1       6.557  -1.310   4.110  0.00  0.00    +0.000 HD
ATOM     14  H   UNL     1       6.650  -1.229   2.386  0.00  0.00    +0.000 HD
ENDBRANCH   2  11
ENDBRANCH   1   6
BRANCH   1  15
ATOM     15  C   UNL     1       6.131  -6.375  -3.047  0.00  0.00    +0.000 A 
ATOM     16  C   UNL     1       7.494  -6.110  -3.222  0.00  0.00    +0.000 A 
ATOM     17  C   UNL     1       8.409  -7.158  -3.289  0.00  0.00    +0.000 A 
ATOM     18  C   UNL     1       7.971  -8.480  -3.177  0.00  0.00    +0.000 A 
ATOM     19  C   UNL     1       6.613  -8.787  -2.984  0.00  0.00    +0.000 A 
ATOM     20  C   UNL     1       5.708  -7.711  -2.936  0.00  0.00    +0.000 A 
BRANCH  19  21
ATOM     21  C   UNL     1       6.152 -10.179  -2.805  0.00  0.00    +0.000 A 
ATOM     22  C   UNL     1       6.894 -11.113  -2.073  0.00  0.00    +0.000 A 
ATOM     23  N   UNL     1       6.531 -12.403  -1.846  0.00  0.00    +0.000 NA
ATOM     24  C   UNL     1       5.345 -12.788  -2.366  0.00  0.00    +0.000 A 
ATOM     25  C   UNL     1       4.530 -11.949  -3.099  0.00  0.00    +0.000 A 
ATOM     26  F   UNL     1       3.361 -12.385  -3.584  0.00  0.00    +0.000 F 
ATOM     27  C   UNL     1       4.935 -10.639  -3.327  0.00  0.00    +0.000 A 
ENDBRANCH  19  21
ENDBRANCH   1  15
TORSDOF 4
