REMARK  Name = 
REMARK  2 active torsions:
REMARK  status: ('A' for Active; 'I' for Inactive)
REMARK    1  A    between atoms: C_7  and  C_8
REMARK    2  A    between atoms: C_8  and  N_9
REMARK                            x       y       z     vdW  Elec       q    Type
REMARK                         _______ _______ _______ _____ _____    ______ ____
ROOT
ATOM      1  N   UNL     1       1.049   0.457  -0.201  0.00  0.00    +0.000 NA
ATOM      2  C   UNL     1       2.278   0.142   0.011  0.00  0.00    +0.000 C 
ATOM      3  N   UNL     1       2.800   0.194   1.256  0.00  0.00    +0.000 N 
ATOM      4  N   UNL     1       3.159  -0.211  -0.973  0.00  0.00    +0.000 N 
ATOM      5  C   UNL     1       4.275  -1.132  -0.743  0.00  0.00    +0.000 C 
ATOM      6  C   UNL     1       5.485  -0.616  -1.509  0.00  0.00    +0.000 C 
ATOM      7  C   UNL     1       5.203  -0.537  -3.020  0.00  0.00    +0.000 C 
ATOM      8  C   UNL     1       3.931   0.300  -3.253  0.00  0.00    +0.000 C 
ATOM      9  C   UNL     1       2.743  -0.131  -2.381  0.00  0.00    +0.000 C 
ATOM     10  H   UNL     1       0.596   0.677   0.686  0.00  0.00    +0.000 HD
ATOM     11  H   UNL     1       2.246   0.704   1.931  0.00  0.00    +0.000 HD
ATOM     12  H   UNL     1       3.756   0.528   1.258  0.00  0.00    +0.000 HD
ENDROOT
BRANCH   7  13
ATOM     13  C   UNL     1       5.098  -1.923  -3.696  0.00  0.00    +0.000 C 
BRANCH  13  14
ATOM     14  N   UNL     1       6.293  -2.745  -3.535  0.00  0.00    +0.000 N 
ATOM     15  C   UNL     1       7.529  -2.394  -4.016  0.00  0.00    +0.000 A 
ATOM     16  C   UNL     1       8.438  -3.337  -3.600  0.00  0.00    +0.000 A 
ATOM     17  C   UNL     1       7.726  -4.330  -2.873  0.00  0.00    +0.000 A 
ATOM     18  C   UNL     1       8.105  -5.512  -2.225  0.00  0.00    +0.000 A 
ATOM     19  N   UNL     1       7.181  -6.301  -1.627  0.00  0.00    +0.000 NA
ATOM     20  C   UNL     1       5.885  -5.929  -1.676  0.00  0.00    +0.000 A 
ATOM     21  C   UNL     1       5.409  -4.773  -2.278  0.00  0.00    +0.000 A 
ATOM     22  C   UNL     1       6.375  -3.959  -2.878  0.00  0.00    +0.000 A 
ENDBRANCH  13  14
ENDBRANCH   7  13
TORSDOF 2
