REMARK  Name = 
REMARK  7 active torsions:
REMARK  status: ('A' for Active; 'I' for Inactive)
REMARK    1  A    between atoms: C_1  and  C_2
REMARK    2  A    between atoms: C_2  and  C_3
REMARK    3  A    between atoms: C_7  and  C_8
REMARK    4  A    between atoms: C_8  and  C_9
REMARK    5  A    between atoms: C_9  and  N_10
REMARK    6  A    between atoms: N_10  and  C_11
REMARK    7  A    between atoms: C_14  and  C_15
REMARK                            x       y       z     vdW  Elec       q    Type
REMARK                         _______ _______ _______ _____ _____    ______ ____
ROOT
ATOM      1  C   UNL     1       3.513  -3.330   4.322  0.00  0.00    +0.000 C 
ENDROOT
BRANCH   1   2
ATOM      2  N   UNL     1       4.078  -4.560   4.898  0.00  0.00    +0.000 N 
ATOM      3  H   UNL     1       4.806  -4.372   5.585  0.00  0.00    +0.000 HD
BRANCH   2   4
ATOM      4  C   UNL     1       3.155  -5.518   5.357  0.00  0.00    +0.000 A 
ATOM      5  C   UNL     1       1.899  -5.703   4.770  0.00  0.00    +0.000 A 
ATOM      6  C   UNL     1       1.043  -6.710   5.208  0.00  0.00    +0.000 A 
ATOM      7  C   UNL     1       1.480  -7.550   6.218  0.00  0.00    +0.000 A 
ATOM      8  N   UNL     1       2.702  -7.451   6.807  0.00  0.00    +0.000 NA
ATOM      9  C   UNL     1       3.503  -6.450   6.344  0.00  0.00    +0.000 A 
BRANCH   7  10
ATOM     10  C   UNL     1       0.581  -8.654   6.683  0.00  0.00    +0.000 C 
ATOM     11  N   UNL     1       1.085  -9.447   7.677  0.00  0.00    +0.000 N 
ATOM     12  O   UNL     1      -0.530  -8.849   6.207  0.00  0.00    +0.000 OA
ATOM     13  H   UNL     1       2.021  -9.280   8.021  0.00  0.00    +0.000 HD
ATOM     14  H   UNL     1       0.545 -10.235   7.999  0.00  0.00    +0.000 HD
ENDBRANCH   7  10
ENDBRANCH   2   4
ENDBRANCH   1   2
BRANCH   1  15
ATOM     15  C   UNL     1       4.604  -2.358   3.856  0.00  0.00    +0.000 C 
BRANCH  15  20
ATOM     16  C   UNL     1       2.903   0.007   1.366  0.00  0.00    +0.000 A 
ATOM     17  C   UNL     1       2.638   1.106   2.202  0.00  0.00    +0.000 A 
ATOM     18  C   UNL     1       3.037   1.105   3.540  0.00  0.00    +0.000 A 
ATOM     19  C   UNL     1       3.701   0.000   4.072  0.00  0.00    +0.000 A 
ATOM     20  C   UNL     1       3.979  -1.110   3.268  0.00  0.00    +0.000 A 
ATOM     21  C   UNL     1       3.586  -1.091   1.919  0.00  0.00    +0.000 A 
BRANCH  16  23
ATOM     22  C   UNL     1       0.882   0.065  -0.136  0.00  0.00    +0.000 C 
ATOM     23  C   UNL     1       2.418  -0.003  -0.086  0.00  0.00    +0.000 C 
ATOM     24  C   UNL     1       3.043   1.102  -0.900  0.00  0.00    +0.000 C 
ATOM     25  C   UNL     1       3.736   0.639  -1.937  0.00  0.00    +0.000 C 
ATOM     26  C   UNL     1       3.546  -0.797  -1.812  0.00  0.00    +0.000 C 
ATOM     27  N   UNL     1       2.823  -1.235  -0.828  0.00  0.00    +0.000 NA
ENDBRANCH  16  23
ENDBRANCH  15  20
ENDBRANCH   1  15
TORSDOF 6
