REMARK  Name = 
REMARK  4 active torsions:
REMARK  status: ('A' for Active; 'I' for Inactive)
REMARK    1  A    between atoms: C_2  and  C_4
REMARK    2  A    between atoms: C_7  and  N_8
REMARK    3  A    between atoms: N_8  and  C_9
REMARK    4  A    between atoms: C_9  and  C_10
REMARK                            x       y       z     vdW  Elec       q    Type
REMARK                         _______ _______ _______ _____ _____    ______ ____
ROOT
ATOM      1  C   UNL     1       3.396  -0.929  -0.947  0.00  0.00    +0.000 A 
ATOM      2  C   UNL     1       3.698  -1.989  -0.112  0.00  0.00    +0.000 A 
ATOM      3  N   UNL     1       4.235  -3.148  -0.579  0.00  0.00    +0.000 NA
ATOM      4  C   UNL     1       4.427  -3.241  -1.912  0.00  0.00    +0.000 A 
ATOM      5  C   UNL     1       4.150  -2.138  -2.729  0.00  0.00    +0.000 A 
ATOM      6  N   UNL     1       3.625  -0.968  -2.288  0.00  0.00    +0.000 NA
ENDROOT
BRANCH   1   8
ATOM      7  N   UNL     1       2.471   1.267  -1.322  0.00  0.00    +0.000 N 
ATOM      8  C   UNL     1       2.790   0.312  -0.397  0.00  0.00    +0.000 C 
ATOM      9  O   UNL     1       2.586   0.471   0.800  0.00  0.00    +0.000 OA
ATOM     10  H   UNL     1       2.052   2.134  -1.022  0.00  0.00    +0.000 HD
ATOM     11  H   UNL     1       2.646   1.097  -2.306  0.00  0.00    +0.000 HD
ENDBRANCH   1   8
BRANCH   4  12
ATOM     12  N   UNL     1       4.951  -4.443  -2.365  0.00  0.00    +0.000 N 
ATOM     13  H   UNL     1       5.939  -4.485  -2.131  0.00  0.00    +0.000 HD
BRANCH  12  14
ATOM     14  C   UNL     1       4.680  -4.829  -3.738  0.00  0.00    +0.000 C 
BRANCH  14  15
ATOM     15  C   UNL     1       4.831  -6.320  -3.889  0.00  0.00    +0.000 A 
ATOM     16  C   UNL     1       4.057  -7.191  -3.112  0.00  0.00    +0.000 A 
ATOM     17  C   UNL     1       4.181  -8.555  -3.315  0.00  0.00    +0.000 A 
ATOM     18  N   UNL     1       5.009  -9.102  -4.231  0.00  0.00    +0.000 NA
ATOM     19  C   UNL     1       5.750  -8.246  -4.967  0.00  0.00    +0.000 A 
ATOM     20  C   UNL     1       5.697  -6.867  -4.837  0.00  0.00    +0.000 A 
ENDBRANCH  14  15
ENDBRANCH  12  14
ENDBRANCH   4  12
TORSDOF 4
