REMARK  Name = 
REMARK  8 active torsions:
REMARK  status: ('A' for Active; 'I' for Inactive)
REMARK    1  A    between atoms: N_1  and  C_2
REMARK    2  A    between atoms: C_2  and  C_3
REMARK    3  A    between atoms: C_6  and  C_7
REMARK    4  A    between atoms: N_9  and  C_10
REMARK    5  A    between atoms: C_10  and  C_11
REMARK    6  A    between atoms: C_14  and  C_15
REMARK    7  A    between atoms: C_15  and  N_16
REMARK    8  A    between atoms: C_17  and  C_19
REMARK                            x       y       z     vdW  Elec       q    Type
REMARK                         _______ _______ _______ _____ _____    ______ ____
ROOT
ATOM      1  C   UNL     1       0.324  -1.005  -7.815  0.00  0.00    +0.000 A 
ATOM      2  C   UNL     1       1.333  -1.959  -7.621  0.00  0.00    +0.000 A 
ATOM      3  C   UNL     1       1.638  -2.893  -8.620  0.00  0.00    +0.000 A 
ATOM      4  C   UNL     1       0.950  -2.886  -9.840  0.00  0.00    +0.000 A 
ATOM      5  C   UNL     1      -0.086  -1.958 -10.017  0.00  0.00    +0.000 A 
ATOM      6  C   UNL     1      -0.387  -1.021  -9.022  0.00  0.00    +0.000 A 
ENDROOT
BRANCH   1   7
ATOM      7  C   UNL     1       0.024   0.035  -6.763  0.00  0.00    +0.000 C 
BRANCH   7  10
ATOM      8  C   UNL     1       0.751   2.263  -6.027  0.00  0.00    +0.000 C 
ATOM      9  O   UNL     1       0.004   2.226  -5.054  0.00  0.00    +0.000 OA
ATOM     10  N   UNL     1       0.840   1.220  -6.926  0.00  0.00    +0.000 N 
ATOM     11  H   UNL     1       1.319   1.355  -7.806  0.00  0.00    +0.000 HD
BRANCH   8  15
ATOM     12  C   UNL     1       1.911   5.837  -6.072  0.00  0.00    +0.000 C 
ATOM     13  C   UNL     1       1.312   5.554  -7.447  0.00  0.00    +0.000 C 
ATOM     14  C   UNL     1       1.528   4.061  -7.680  0.00  0.00    +0.000 C 
ATOM     15  C   UNL     1       1.716   3.418  -6.299  0.00  0.00    +0.000 C 
ATOM     16  C   UNL     1       1.577   4.567  -5.288  0.00  0.00    +0.000 C 
BRANCH  12  17
ATOM     17  C   UNL     1       1.357   7.099  -5.402  0.00  0.00    +0.000 C 
BRANCH  17  18
ATOM     18  N   UNL     1       1.656   8.299  -6.179  0.00  0.00    +0.000 NA
ATOM     19  H   UNL     1       1.279   9.114  -5.695  0.00  0.00    +0.000 HD
ATOM     20  H   UNL     1       1.171   8.259  -7.074  0.00  0.00    +0.000 HD
ENDBRANCH  17  18
ENDBRANCH  12  17
ENDBRANCH   8  15
ENDBRANCH   7  10
ENDBRANCH   1   7
BRANCH   4  21
ATOM     21  C   UNL     1       1.293  -3.864 -10.939  0.00  0.00    +0.000 C 
BRANCH  21  22
ATOM     22  N   UNL     1       0.528  -5.078 -10.828  0.00  0.00    +0.000 N 
ATOM     23  C   UNL     1       0.726  -6.134 -11.682  0.00  0.00    +0.000 C 
ATOM     24  O   UNL     1       1.582  -6.115 -12.559  0.00  0.00    +0.000 OA
ATOM     25  H   UNL     1      -0.335  -5.026 -10.295  0.00  0.00    +0.000 HD
BRANCH  23  26
ATOM     26  C   UNL     1      -0.107  -7.324 -11.447  0.00  0.00    +0.000 A 
ATOM     27  C   UNL     1       0.339  -8.573 -11.857  0.00  0.00    +0.000 A 
ATOM     28  S   UNL     1      -0.727  -9.845 -11.459  0.00  0.00    +0.000 S 
ATOM     29  C   UNL     1      -1.850  -8.765 -10.777  0.00  0.00    +0.000 A 
ATOM     30  N   UNL     1      -3.028  -9.209 -10.263  0.00  0.00    +0.000 NA
ATOM     31  C   UNL     1      -3.794  -8.277  -9.799  0.00  0.00    +0.000 A 
ATOM     32  N   UNL     1      -3.485  -6.941  -9.795  0.00  0.00    +0.000 N 
ATOM     33  C   UNL     1      -2.292  -6.452 -10.273  0.00  0.00    +0.000 A 
ATOM     34  O   UNL     1      -2.022  -5.257 -10.209  0.00  0.00    +0.000 OA
ATOM     35  C   UNL     1      -1.403  -7.456 -10.824  0.00  0.00    +0.000 A 
ATOM     36  H   UNL     1      -4.119  -6.263  -9.404  0.00  0.00    +0.000 HD
ENDBRANCH  23  26
ENDBRANCH  21  22
ENDBRANCH   4  21
TORSDOF 8
