REMARK  Name = 
REMARK  7 active torsions:
REMARK  status: ('A' for Active; 'I' for Inactive)
REMARK    1  A    between atoms: C_1  and  S_2
REMARK    2  A    between atoms: S_2  and  C_5
REMARK    3  A    between atoms: N_7  and  C_8
REMARK    4  A    between atoms: C_8  and  C_9
REMARK    5  A    between atoms: C_12  and  C_13
REMARK    6  A    between atoms: C_13  and  C_14
REMARK    7  A    between atoms: C_14  and  N_15
REMARK                            x       y       z     vdW  Elec       q    Type
REMARK                         _______ _______ _______ _____ _____    ______ ____
ROOT
ATOM      1  C   UNL     1       2.619  -1.965  -1.100  0.00  0.00    +0.000 A 
ATOM      2  C   UNL     1       3.098  -2.584  -2.237  0.00  0.00    +0.000 A 
ATOM      3  N   UNL     1       4.369  -3.032  -1.972  0.00  0.00    +0.000 N 
ATOM      4  C   UNL     1       4.690  -2.776  -0.650  0.00  0.00    +0.000 A 
ATOM      5  C   UNL     1       5.840  -3.087   0.097  0.00  0.00    +0.000 A 
ATOM      6  C   UNL     1       5.905  -2.663   1.426  0.00  0.00    +0.000 A 
ATOM      7  C   UNL     1       4.857  -1.957   2.002  0.00  0.00    +0.000 A 
ATOM      8  C   UNL     1       3.708  -1.667   1.262  0.00  0.00    +0.000 A 
ATOM      9  C   UNL     1       3.612  -2.078  -0.088  0.00  0.00    +0.000 A 
ENDROOT
BRANCH   1  11
ATOM     10  C   UNL     1       1.446   0.509  -0.630  0.00  0.00    +0.000 C 
ATOM     11  S   UNL     1       1.083  -1.199  -0.937  0.00  0.00    +0.000 S 
ATOM     12  O   UNL     1       0.497  -1.782   0.253  0.00  0.00    +0.000 OA
ATOM     13  O   UNL     1       0.455  -1.316  -2.238  0.00  0.00    +0.000 OA
ENDBRANCH   1  11
BRANCH   3  14
ATOM     14  C   UNL     1       5.251  -3.637  -2.971  0.00  0.00    +0.000 C 
BRANCH  14  15
ATOM     15  C   UNL     1       6.060  -2.563  -3.662  0.00  0.00    +0.000 A 
ATOM     16  C   UNL     1       7.291  -2.149  -3.135  0.00  0.00    +0.000 A 
ATOM     17  C   UNL     1       7.920  -1.001  -3.617  0.00  0.00    +0.000 A 
ATOM     18  C   UNL     1       7.331  -0.247  -4.639  0.00  0.00    +0.000 A 
ATOM     19  C   UNL     1       6.163  -0.722  -5.246  0.00  0.00    +0.000 A 
ATOM     20  C   UNL     1       5.531  -1.869  -4.759  0.00  0.00    +0.000 A 
BRANCH  18  21
ATOM     21  C   UNL     1       7.897   1.103  -5.004  0.00  0.00    +0.000 C 
BRANCH  21  22
ATOM     22  C   UNL     1       8.996   1.054  -6.061  0.00  0.00    +0.000 C 
BRANCH  22  23
ATOM     23  N   UNL     1       9.513   2.399  -6.317  0.00  0.00    +0.000 NA
ATOM     24  H   UNL     1       8.766   2.990  -6.683  0.00  0.00    +0.000 HD
ATOM     25  H   UNL     1      10.225   2.353  -7.047  0.00  0.00    +0.000 HD
ENDBRANCH  22  23
ENDBRANCH  21  22
ENDBRANCH  18  21
ENDBRANCH  14  15
ENDBRANCH   3  14
TORSDOF 6
