REMARK  Name = 
REMARK  7 active torsions:
REMARK  status: ('A' for Active; 'I' for Inactive)
REMARK    1  A    between atoms: C_1  and  C_2
REMARK    2  A    between atoms: C_2  and  N_3
REMARK    3  A    between atoms: C_2  and  C_16
REMARK    4  A    between atoms: C_4  and  C_6
REMARK    5  A    between atoms: C_19  and  O_20
REMARK    6  A    between atoms: O_20  and  C_21
REMARK    7  A    between atoms: C_21  and  C_22
REMARK                            x       y       z     vdW  Elec       q    Type
REMARK                         _______ _______ _______ _____ _____    ______ ____
ROOT
ATOM      1  C   UNL     1       1.449  -0.705  -0.824  0.00  0.00    +0.000 C 
ATOM      2  C   UNL     1       2.493   0.122  -0.065  0.00  0.00    +0.000 C 
ENDROOT
BRANCH   2   3
ATOM      3  C   UNL     1       2.859  -0.455   1.289  0.00  0.00    +0.000 A 
ATOM      4  C   UNL     1       3.211   0.398   2.349  0.00  0.00    +0.000 A 
ATOM      5  C   UNL     1       3.511  -0.119   3.614  0.00  0.00    +0.000 A 
ATOM      6  C   UNL     1       3.465  -1.495   3.834  0.00  0.00    +0.000 A 
ATOM      7  C   UNL     1       3.217  -2.353   2.764  0.00  0.00    +0.000 A 
ATOM      8  C   UNL     1       2.912  -1.838   1.506  0.00  0.00    +0.000 A 
BRANCH   6   9
ATOM      9  O   UNL     1       3.663  -1.913   5.123  0.00  0.00    +0.000 OA
BRANCH   9  10
ATOM     10  C   UNL     1       3.070  -3.183   5.415  0.00  0.00    +0.000 C 
BRANCH  10  11
ATOM     11  C   UNL     1       2.864  -3.325   6.897  0.00  0.00    +0.000 A 
ATOM     12  C   UNL     1       1.576  -3.450   7.425  0.00  0.00    +0.000 A 
ATOM     13  C   UNL     1       1.433  -3.609   8.794  0.00  0.00    +0.000 A 
ATOM     14  N   UNL     1       2.470  -3.654   9.655  0.00  0.00    +0.000 NA
ATOM     15  C   UNL     1       3.706  -3.524   9.124  0.00  0.00    +0.000 A 
ATOM     16  C   UNL     1       3.952  -3.361   7.771  0.00  0.00    +0.000 A 
ENDBRANCH  10  11
ENDBRANCH   9  10
ENDBRANCH   6   9
ENDBRANCH   2   3
BRANCH   2  17
ATOM     17  N   UNL     1       3.700   0.253  -0.851  0.00  0.00    +0.000 N 
ATOM     18  C   UNL     1       3.836   1.190  -1.838  0.00  0.00    +0.000 C 
ATOM     19  O   UNL     1       2.975   2.033  -2.069  0.00  0.00    +0.000 OA
ATOM     20  H   UNL     1       4.353  -0.522  -0.804  0.00  0.00    +0.000 HD
BRANCH  18  21
ATOM     21  C   UNL     1       5.105   1.170  -2.570  0.00  0.00    +0.000 A 
ATOM     22  C   UNL     1       5.579   2.336  -3.154  0.00  0.00    +0.000 A 
ATOM     23  S   UNL     1       7.074   2.139  -3.950  0.00  0.00    +0.000 S 
ATOM     24  C   UNL     1       7.112   0.478  -3.585  0.00  0.00    +0.000 A 
ATOM     25  N   UNL     1       8.133  -0.310  -4.017  0.00  0.00    +0.000 NA
ATOM     26  C   UNL     1       8.017  -1.556  -3.701  0.00  0.00    +0.000 A 
ATOM     27  N   UNL     1       6.979  -2.087  -2.981  0.00  0.00    +0.000 N 
ATOM     28  C   UNL     1       5.952  -1.323  -2.477  0.00  0.00    +0.000 A 
ATOM     29  O   UNL     1       5.084  -1.811  -1.762  0.00  0.00    +0.000 OA
ATOM     30  C   UNL     1       6.017   0.083  -2.838  0.00  0.00    +0.000 A 
ATOM     31  H   UNL     1       6.962  -3.068  -2.748  0.00  0.00    +0.000 HD
ENDBRANCH  18  21
ENDBRANCH   2  17
TORSDOF 6
