REMARK  Name = 
REMARK  7 active torsions:
REMARK  status: ('A' for Active; 'I' for Inactive)
REMARK    1  A    between atoms: C_2  and  C_20
REMARK    2  A    between atoms: N_3  and  C_4
REMARK    3  A    between atoms: C_4  and  C_5
REMARK    4  A    between atoms: C_8  and  C_9
REMARK    5  A    between atoms: C_9  and  O_10
REMARK    6  A    between atoms: O_10  and  C_11
REMARK    7  A    between atoms: C_11  and  C_12
REMARK                            x       y       z     vdW  Elec       q    Type
REMARK                         _______ _______ _______ _____ _____    ______ ____
ROOT
ATOM      1  C   UNL     1       2.459  -0.453  -5.106  0.00  0.00    +0.000 C 
ENDROOT
BRANCH   1   2
ATOM      2  C   UNL     1       3.254  -0.608  -3.798  0.00  0.00    +0.000 C 
ATOM      3  C   UNL     1       3.890  -2.004  -3.657  0.00  0.00    +0.000 C 
ATOM      4  C   UNL     1       5.039  -2.223  -4.641  0.00  0.00    +0.000 C 
ATOM      5  C   UNL     1       6.121  -1.134  -4.533  0.00  0.00    +0.000 C 
ATOM      6  C   UNL     1       5.491   0.260  -4.672  0.00  0.00    +0.000 C 
ATOM      7  C   UNL     1       4.328   0.485  -3.702  0.00  0.00    +0.000 C 
BRANCH   5   8
ATOM      8  C   UNL     1       6.950  -1.233  -3.240  0.00  0.00    +0.000 C 
BRANCH   8   9
ATOM      9  O   UNL     1       7.597  -2.502  -3.180  0.00  0.00    +0.000 OA
BRANCH   9  10
ATOM     10  C   UNL     1       8.396  -2.633  -2.005  0.00  0.00    +0.000 C 
BRANCH  10  11
ATOM     11  C   UNL     1       9.054  -3.980  -2.020  0.00  0.00    +0.000 A 
ATOM     12  C   UNL     1       8.306  -5.160  -2.046  0.00  0.00    +0.000 A 
ATOM     13  C   UNL     1       8.956  -6.391  -2.049  0.00  0.00    +0.000 A 
ATOM     14  C   UNL     1      10.341  -6.401  -2.020  0.00  0.00    +0.000 A 
ATOM     15  N   UNL     1      11.099  -5.284  -1.993  0.00  0.00    +0.000 NA
ATOM     16  C   UNL     1      10.439  -4.103  -1.999  0.00  0.00    +0.000 A 
ENDBRANCH  10  11
ENDBRANCH   9  10
ENDBRANCH   8   9
ENDBRANCH   5   8
ENDBRANCH   1   2
BRANCH   1  19
ATOM     17  O   UNL     1      -0.136  -0.065  -4.077  0.00  0.00    +0.000 OA
ATOM     18  C   UNL     1       0.120  -1.101  -4.682  0.00  0.00    +0.000 C 
ATOM     19  N   UNL     1       1.362  -1.380  -5.182  0.00  0.00    +0.000 N 
ATOM     20  H   UNL     1       1.486  -2.166  -5.812  0.00  0.00    +0.000 HD
BRANCH  18  21
ATOM     21  C   UNL     1      -0.888  -2.141  -4.888  0.00  0.00    +0.000 A 
ATOM     22  C   UNL     1      -1.962  -2.265  -4.019  0.00  0.00    +0.000 A 
ATOM     23  S   UNL     1      -3.034  -3.519  -4.455  0.00  0.00    +0.000 S 
ATOM     24  C   UNL     1      -2.108  -3.918  -5.821  0.00  0.00    +0.000 A 
ATOM     25  N   UNL     1      -2.494  -4.910  -6.672  0.00  0.00    +0.000 NA
ATOM     26  C   UNL     1      -1.708  -5.078  -7.683  0.00  0.00    +0.000 A 
ATOM     27  N   UNL     1      -0.569  -4.360  -7.921  0.00  0.00    +0.000 N 
ATOM     28  C   UNL     1      -0.109  -3.390  -7.062  0.00  0.00    +0.000 A 
ATOM     29  O   UNL     1       0.977  -2.852  -7.252  0.00  0.00    +0.000 OA
ATOM     30  C   UNL     1      -0.983  -3.129  -5.933  0.00  0.00    +0.000 A 
ATOM     31  H   UNL     1       0.026  -4.563  -8.711  0.00  0.00    +0.000 HD
ENDBRANCH  18  21
ENDBRANCH   1  19
TORSDOF 7
