REMARK  Name = 
REMARK  8 active torsions:
REMARK  status: ('A' for Active; 'I' for Inactive)
REMARK    1  A    between atoms: C_2  and  C_22
REMARK    2  A    between atoms: N_3  and  C_4
REMARK    3  A    between atoms: C_4  and  C_5
REMARK    4  A    between atoms: C_8  and  C_9
REMARK    5  A    between atoms: C_9  and  O_10
REMARK    6  A    between atoms: C_9  and  C_11
REMARK    7  A    between atoms: C_17  and  C_18
REMARK    8  A    between atoms: C_18  and  O_19
REMARK                            x       y       z     vdW  Elec       q    Type
REMARK                         _______ _______ _______ _____ _____    ______ ____
ROOT
ATOM      1  C   UNL     1       7.473  -8.104   1.745  0.00  0.00    +0.000 A 
ATOM      2  C   UNL     1       6.581  -8.608   2.698  0.00  0.00    +0.000 A 
ATOM      3  C   UNL     1       6.018  -7.765   3.655  0.00  0.00    +0.000 A 
ATOM      4  C   UNL     1       6.338  -6.395   3.685  0.00  0.00    +0.000 A 
ATOM      5  C   UNL     1       7.176  -5.882   2.685  0.00  0.00    +0.000 A 
ATOM      6  C   UNL     1       7.735  -6.728   1.725  0.00  0.00    +0.000 A 
ENDROOT
BRANCH   1   7
ATOM      7  C   UNL     1       8.151  -9.034   0.774  0.00  0.00    +0.000 C 
BRANCH   7  10
ATOM      8  O   UNL     1       6.382 -11.178   0.373  0.00  0.00    +0.000 OA
ATOM      9  C   UNL     1       6.489 -10.318  -0.501  0.00  0.00    +0.000 C 
ATOM     10  N   UNL     1       7.362  -9.269  -0.402  0.00  0.00    +0.000 N 
ATOM     11  H   UNL     1       7.301  -8.502  -1.063  0.00  0.00    +0.000 HD
BRANCH   9  12
ATOM     12  C   UNL     1       5.709 -10.392  -1.733  0.00  0.00    +0.000 A 
ATOM     13  C   UNL     1       5.240 -11.611  -2.201  0.00  0.00    +0.000 A 
ATOM     14  S   UNL     1       4.295 -11.478  -3.617  0.00  0.00    +0.000 S 
ATOM     15  C   UNL     1       4.471  -9.783  -3.636  0.00  0.00    +0.000 A 
ATOM     16  N   UNL     1       3.855  -9.026  -4.581  0.00  0.00    +0.000 NA
ATOM     17  C   UNL     1       4.037  -7.753  -4.446  0.00  0.00    +0.000 A 
ATOM     18  N   UNL     1       4.802  -7.175  -3.467  0.00  0.00    +0.000 N 
ATOM     19  C   UNL     1       5.516  -7.906  -2.555  0.00  0.00    +0.000 A 
ATOM     20  O   UNL     1       6.330  -7.363  -1.812  0.00  0.00    +0.000 OA
ATOM     21  C   UNL     1       5.275  -9.337  -2.612  0.00  0.00    +0.000 A 
ATOM     22  H   UNL     1       4.950  -6.178  -3.448  0.00  0.00    +0.000 HD
ENDBRANCH   9  12
ENDBRANCH   7  10
ENDBRANCH   1   7
BRANCH   4  23
ATOM     23  C   UNL     1       5.744  -5.529   4.773  0.00  0.00    +0.000 C 
BRANCH  23  24
ATOM     24  C   UNL     1       6.605  -4.305   5.202  0.00  0.00    +0.000 C 
ATOM     25  O   UNL     1       6.168  -3.156   5.071  0.00  0.00    +0.000 OA
ATOM     26  N   UNL     1       7.841  -4.530   5.779  0.00  0.00    +0.000 N 
ATOM     27  C   UNL     1       8.521  -5.801   5.958  0.00  0.00    +0.000 C 
ATOM     28  C   UNL     1       9.215  -5.631   7.294  0.00  0.00    +0.000 C 
ATOM     29  C   UNL     1       9.659  -4.172   7.273  0.00  0.00    +0.000 C 
ATOM     30  C   UNL     1       8.605  -3.453   6.409  0.00  0.00    +0.000 C 
BRANCH  30  31
ATOM     31  C   UNL     1       9.270  -2.501   5.401  0.00  0.00    +0.000 C 
BRANCH  31  32
ATOM     32  O   UNL     1      10.041  -1.505   6.071  0.00  0.00    +0.000 OA
ATOM     33  H   UNL     1       9.415  -0.936   6.552  0.00  0.00    +0.000 HD
ENDBRANCH  31  32
ENDBRANCH  30  31
ENDBRANCH  23  24
BRANCH  23  34
ATOM     34  O   UNL     1       4.436  -5.160   4.339  0.00  0.00    +0.000 OA
ATOM     35  H   UNL     1       4.564  -4.446   3.689  0.00  0.00    +0.000 HD
ENDBRANCH  23  34
ENDBRANCH   4  23
TORSDOF 8
