REMARK  Name = 
REMARK  8 active torsions:
REMARK  status: ('A' for Active; 'I' for Inactive)
REMARK    1  A    between atoms: C_1  and  N_2
REMARK    2  A    between atoms: N_2  and  C_3
REMARK    3  A    between atoms: C_3  and  C_4
REMARK    4  A    between atoms: C_7  and  C_8
REMARK    5  A    between atoms: C_8  and  N_9
REMARK    6  A    between atoms: N_9  and  C_10
REMARK    7  A    between atoms: C_13  and  C_14
REMARK    8  A    between atoms: C_18  and  C_19
REMARK                            x       y       z     vdW  Elec       q    Type
REMARK                         _______ _______ _______ _____ _____    ______ ____
ROOT
ATOM      1  N   UNL     1       9.278   0.003  -0.262  0.00  0.00    +0.000 N 
ATOM      2  H   UNL     1       8.871   0.882   0.040  0.00  0.00    +0.000 HD
ENDROOT
BRANCH   1   3
ATOM      3  C   UNL     1      10.681   0.096  -0.207  0.00  0.00    +0.000 A 
ATOM      4  N   UNL     1      11.364  -0.859   0.464  0.00  0.00    +0.000 NA
ATOM      5  C   UNL     1      12.717  -0.782   0.522  0.00  0.00    +0.000 A 
ATOM      6  C   UNL     1      13.463   0.212  -0.079  0.00  0.00    +0.000 A 
ATOM      7  C   UNL     1      12.757   1.178  -0.796  0.00  0.00    +0.000 A 
ATOM      8  C   UNL     1      11.352   1.141  -0.860  0.00  0.00    +0.000 A 
ATOM      9  C   UNL     1      10.639   2.192  -1.661  0.00  0.00    +0.000 C 
BRANCH   6  10
ATOM     10  C   UNL     1      14.940   0.298   0.008  0.00  0.00    +0.000 C 
ATOM     11  N   UNL     1      15.619  -0.626   0.752  0.00  0.00    +0.000 N 
ATOM     12  O   UNL     1      15.557   1.191  -0.567  0.00  0.00    +0.000 OA
ATOM     13  H   UNL     1      15.213  -1.379   1.285  0.00  0.00    +0.000 HD
ATOM     14  H   UNL     1      16.626  -0.514   0.798  0.00  0.00    +0.000 HD
ENDBRANCH   6  10
ENDBRANCH   1   3
BRANCH   1  15
ATOM     15  C   UNL     1       8.743  -1.117   0.511  0.00  0.00    +0.000 C 
BRANCH  15  19
ATOM     16  C   UNL     1       4.400  -1.190   0.509  0.00  0.00    +0.000 A 
ATOM     17  C   UNL     1       5.130  -1.854  -0.489  0.00  0.00    +0.000 A 
ATOM     18  C   UNL     1       6.529  -1.816  -0.497  0.00  0.00    +0.000 A 
ATOM     19  C   UNL     1       7.231  -1.114   0.491  0.00  0.00    +0.000 A 
ATOM     20  C   UNL     1       6.503  -0.435   1.478  0.00  0.00    +0.000 A 
ATOM     21  C   UNL     1       5.104  -0.477   1.489  0.00  0.00    +0.000 A 
BRANCH  16  22
ATOM     22  C   UNL     1       2.886  -1.215   0.512  0.00  0.00    +0.000 C 
BRANCH  22  24
ATOM     23  C   UNL     1       0.909  -2.584   0.681  0.00  0.00    +0.000 C 
ATOM     24  N   UNL     1       2.365  -2.571   0.693  0.00  0.00    +0.000 NA
ATOM     25  H   UNL     1       2.709  -3.162  -0.062  0.00  0.00    +0.000 HD
ENDBRANCH  22  24
ENDBRANCH  16  22
ENDBRANCH  15  19
ENDBRANCH   1  15
TORSDOF 6
