REMARK  Name = 
REMARK  7 active torsions:
REMARK  status: ('A' for Active; 'I' for Inactive)
REMARK    1  A    between atoms: C_1  and  C_2
REMARK    2  A    between atoms: C_2  and  C_3
REMARK    3  A    between atoms: C_2  and  C_4
REMARK    4  A    between atoms: C_2  and  C_5
REMARK    5  A    between atoms: C_7  and  C_8
REMARK    6  A    between atoms: N_16  and  C_17
REMARK    7  A    between atoms: C_17  and  C_18
REMARK                            x       y       z     vdW  Elec       q    Type
REMARK                         _______ _______ _______ _____ _____    ______ ____
ROOT
ATOM      1  C   UNL     1       2.999  -1.229  -0.690  0.00  0.00    +0.000 A 
ATOM      2  C   UNL     1       2.531  -2.467  -0.210  0.00  0.00    +0.000 A 
ATOM      3  C   UNL     1       2.932  -3.674  -0.798  0.00  0.00    +0.000 A 
ATOM      4  N   UNL     1       3.791  -3.772  -1.835  0.00  0.00    +0.000 NA
ATOM      5  C   UNL     1       4.263  -2.596  -2.284  0.00  0.00    +0.000 A 
ATOM      6  C   UNL     1       3.893  -1.338  -1.764  0.00  0.00    +0.000 A 
ATOM      7  C   UNL     1       4.637  -0.282  -2.528  0.00  0.00    +0.000 C 
ATOM      8  C   UNL     1       5.424  -1.087  -3.583  0.00  0.00    +0.000 C 
ATOM      9  N   UNL     1       5.194  -2.486  -3.301  0.00  0.00    +0.000 N 
ENDROOT
BRANCH   3  10
ATOM     10  C   UNL     1       2.379  -4.958  -0.242  0.00  0.00    +0.000 C 
ATOM     11  N   UNL     1       2.798  -6.109  -0.851  0.00  0.00    +0.000 N 
ATOM     12  O   UNL     1       1.598  -4.988   0.703  0.00  0.00    +0.000 OA
ATOM     13  H   UNL     1       3.423  -6.059  -1.642  0.00  0.00    +0.000 HD
ATOM     14  H   UNL     1       2.435  -6.995  -0.526  0.00  0.00    +0.000 HD
ENDBRANCH   3  10
BRANCH   1  16
ATOM     15  C   UNL     1       1.576  -0.146   1.158  0.00  0.00    +0.000 C 
ATOM     16  C   UNL     1       2.554   0.092  -0.026  0.00  0.00    +0.000 C 
ATOM     17  C   UNL     1       1.806   1.024  -1.003  0.00  0.00    +0.000 C 
ATOM     18  C   UNL     1       3.762   0.859   0.551  0.00  0.00    +0.000 C 
ENDBRANCH   1  16
BRANCH   9  19
ATOM     19  C   UNL     1       5.646  -3.579  -4.122  0.00  0.00    +0.000 C 
BRANCH  19  20
ATOM     20  C   UNL     1       7.022  -4.030  -3.682  0.00  0.00    +0.000 A 
ATOM     21  C   UNL     1       7.156  -5.016  -2.690  0.00  0.00    +0.000 A 
ATOM     22  C   UNL     1       8.417  -5.376  -2.213  0.00  0.00    +0.000 A 
ATOM     23  C   UNL     1       9.546  -4.752  -2.728  0.00  0.00    +0.000 A 
ATOM     24  F   UNL     1      10.755  -5.073  -2.246  0.00  0.00    +0.000 F 
ATOM     25  C   UNL     1       9.441  -3.792  -3.727  0.00  0.00    +0.000 A 
ATOM     26  C   UNL     1       8.180  -3.430  -4.205  0.00  0.00    +0.000 A 
ENDBRANCH  19  20
ENDBRANCH   9  19
TORSDOF 4
