REMARK  Name = 
REMARK  7 active torsions:
REMARK  status: ('A' for Active; 'I' for Inactive)
REMARK    1  A    between atoms: N_1  and  C_2
REMARK    2  A    between atoms: C_2  and  C_3
REMARK    3  A    between atoms: C_3  and  N_4
REMARK    4  A    between atoms: C_3  and  C_17
REMARK    5  A    between atoms: C_5  and  C_7
REMARK    6  A    between atoms: C_20  and  C_21
REMARK    7  A    between atoms: C_21  and  N_22
REMARK                            x       y       z     vdW  Elec       q    Type
REMARK                         _______ _______ _______ _____ _____    ______ ____
ROOT
ATOM      1  C   UNL     1       3.015  -1.017   0.826  0.00  0.00    +0.000 C 
ENDROOT
BRANCH   1   2
ATOM      2  C   UNL     1       4.527  -1.128   0.718  0.00  0.00    +0.000 A 
ATOM      3  C   UNL     1       5.337  -0.405   1.609  0.00  0.00    +0.000 A 
ATOM      4  C   UNL     1       6.729  -0.464   1.517  0.00  0.00    +0.000 A 
ATOM      5  C   UNL     1       7.337  -1.226   0.514  0.00  0.00    +0.000 A 
ATOM      6  C   UNL     1       6.535  -1.955  -0.371  0.00  0.00    +0.000 A 
ATOM      7  C   UNL     1       5.146  -1.897  -0.277  0.00  0.00    +0.000 A 
BRANCH   5   8
ATOM      8  C   UNL     1       8.837  -1.257   0.365  0.00  0.00    +0.000 C 
BRANCH   8   9
ATOM      9  N   UNL     1       9.401  -2.349   1.147  0.00  0.00    +0.000 N 
ATOM     10  C   UNL     1      10.783  -2.494   0.929  0.00  0.00    +0.000 A 
ATOM     11  C   UNL     1      11.467  -3.496   1.611  0.00  0.00    +0.000 A 
ATOM     12  C   UNL     1      12.842  -3.637   1.421  0.00  0.00    +0.000 A 
ATOM     13  C   UNL     1      13.499  -2.776   0.555  0.00  0.00    +0.000 A 
ATOM     14  C   UNL     1      12.753  -1.801  -0.078  0.00  0.00    +0.000 A 
ATOM     15  N   UNL     1      11.424  -1.646   0.100  0.00  0.00    +0.000 NA
ATOM     16  H   UNL     1       8.936  -3.231   0.960  0.00  0.00    +0.000 HD
ENDBRANCH   8   9
ENDBRANCH   5   8
ENDBRANCH   1   2
BRANCH   1  17
ATOM     17  N   UNL     1       2.574   0.070  -0.037  0.00  0.00    +0.000 N 
ATOM     18  C   UNL     1       1.484   0.843   0.284  0.00  0.00    +0.000 C 
ATOM     19  O   UNL     1       0.824   0.667   1.301  0.00  0.00    +0.000 OA
ATOM     20  H   UNL     1       3.025   0.174  -0.935  0.00  0.00    +0.000 HD
BRANCH  18  21
ATOM     21  C   UNL     1       1.198   1.924  -0.656  0.00  0.00    +0.000 A 
ATOM     22  C   UNL     1       2.175   2.637  -1.334  0.00  0.00    +0.000 A 
ATOM     23  S   UNL     1       1.543   3.938  -2.246  0.00  0.00    +0.000 S 
ATOM     24  C   UNL     1      -0.048   3.586  -1.754  0.00  0.00    +0.000 A 
ATOM     25  N   UNL     1      -1.097   4.359  -2.144  0.00  0.00    +0.000 NA
ATOM     26  C   UNL     1      -2.237   3.982  -1.667  0.00  0.00    +0.000 A 
ATOM     27  N   UNL     1      -2.428   2.888  -0.860  0.00  0.00    +0.000 N 
ATOM     28  C   UNL     1      -1.417   2.011  -0.538  0.00  0.00    +0.000 A 
ATOM     29  O   UNL     1      -1.662   0.925  -0.026  0.00  0.00    +0.000 OA
ATOM     30  C   UNL     1      -0.101   2.461  -0.954  0.00  0.00    +0.000 A 
ATOM     31  H   UNL     1      -3.356   2.603  -0.587  0.00  0.00    +0.000 HD
ENDBRANCH  18  21
ENDBRANCH   1  17
BRANCH   1  32
ATOM     32  C   UNL     1       2.234  -2.328   0.515  0.00  0.00    +0.000 C 
BRANCH  32  33
ATOM     33  N   UNL     1       2.583  -3.452   1.391  0.00  0.00    +0.000 NA
ATOM     34  H   UNL     1       2.037  -4.270   1.129  0.00  0.00    +0.000 HD
ATOM     35  H   UNL     1       2.313  -3.222   2.348  0.00  0.00    +0.000 HD
ENDBRANCH  32  33
ENDBRANCH   1  32
TORSDOF 7
