REMARK  Name = 
REMARK  9 active torsions:
REMARK  status: ('A' for Active; 'I' for Inactive)
REMARK    1  A    between atoms: C_1  and  O_2
REMARK    2  A    between atoms: O_2  and  C_3
REMARK    3  A    between atoms: C_10  and  C_11
REMARK    4  A    between atoms: N_13  and  C_14
REMARK    5  A    between atoms: C_14  and  C_15
REMARK    6  A    between atoms: C_18  and  C_19
REMARK    7  A    between atoms: C_19  and  N_20
REMARK    8  A    between atoms: N_20  and  C_21
REMARK    9  A    between atoms: C_21  and  C_22
REMARK                            x       y       z     vdW  Elec       q    Type
REMARK                         _______ _______ _______ _____ _____    ______ ____
ROOT
ATOM      1  C   UNL     1       3.236  -3.371  -0.351  0.00  0.00    +0.000 C 
ENDROOT
BRANCH   1   2
ATOM      2  C   UNL     1       2.200  -3.446   0.749  0.00  0.00    +0.000 A 
ATOM      3  C   UNL     1       1.528  -4.646   1.015  0.00  0.00    +0.000 A 
ATOM      4  C   UNL     1       0.510  -4.701   1.977  0.00  0.00    +0.000 A 
ATOM      5  C   UNL     1       0.124  -3.555   2.684  0.00  0.00    +0.000 A 
ATOM      6  C   UNL     1       0.815  -2.357   2.434  0.00  0.00    +0.000 A 
ATOM      7  C   UNL     1       1.844  -2.306   1.486  0.00  0.00    +0.000 A 
BRANCH   5   8
ATOM      8  C   UNL     1      -1.011  -3.584   3.683  0.00  0.00    +0.000 C 
BRANCH   8   9
ATOM      9  N   UNL     1      -0.716  -4.503   4.774  0.00  0.00    +0.000 NA
ATOM     10  H   UNL     1       0.157  -4.223   5.220  0.00  0.00    +0.000 HD
BRANCH   9  11
ATOM     11  C   UNL     1      -1.770  -4.522   5.784  0.00  0.00    +0.000 C 
BRANCH  11  12
ATOM     12  C   UNL     1      -1.421  -5.497   6.884  0.00  0.00    +0.000 A 
ATOM     13  C   UNL     1      -1.302  -5.077   8.216  0.00  0.00    +0.000 A 
ATOM     14  C   UNL     1      -1.003  -5.999   9.223  0.00  0.00    +0.000 A 
ATOM     15  C   UNL     1      -0.812  -7.344   8.908  0.00  0.00    +0.000 A 
ATOM     16  C   UNL     1      -0.907  -7.769   7.585  0.00  0.00    +0.000 A 
ATOM     17  C   UNL     1      -1.213  -6.852   6.581  0.00  0.00    +0.000 A 
ENDBRANCH  11  12
ENDBRANCH   9  11
ENDBRANCH   8   9
ENDBRANCH   5   8
ENDBRANCH   1   2
BRANCH   1  20
ATOM     18  C   UNL     1       3.342  -2.854  -2.771  0.00  0.00    +0.000 C 
ATOM     19  O   UNL     1       4.561  -3.011  -2.792  0.00  0.00    +0.000 OA
ATOM     20  N   UNL     1       2.625  -3.021  -1.616  0.00  0.00    +0.000 N 
ATOM     21  H   UNL     1       1.616  -2.990  -1.647  0.00  0.00    +0.000 HD
BRANCH  18  29
ATOM     22  C   UNL     1       0.017  -2.240  -3.425  0.00  0.00    +0.000 A 
ATOM     23  N   UNL     1      -1.171  -1.832  -3.909  0.00  0.00    +0.000 NA
ATOM     24  C   UNL     1      -1.219  -1.375  -5.162  0.00  0.00    +0.000 A 
ATOM     25  N   UNL     1      -0.207  -1.293  -6.022  0.00  0.00    +0.000 NA
ATOM     26  C   UNL     1       0.961  -1.703  -5.499  0.00  0.00    +0.000 A 
ATOM     27  S   UNL     1       2.361  -1.691  -6.459  0.00  0.00    +0.000 S 
ATOM     28  C   UNL     1       3.311  -2.257  -5.166  0.00  0.00    +0.000 A 
ATOM     29  C   UNL     1       2.602  -2.451  -3.986  0.00  0.00    +0.000 A 
ATOM     30  C   UNL     1       1.184  -2.168  -4.205  0.00  0.00    +0.000 A 
BRANCH  22  32
ATOM     31  C   UNL     1      -1.186  -2.757  -1.473  0.00  0.00    +0.000 C 
ATOM     32  O   UNL     1       0.067  -2.761  -2.149  0.00  0.00    +0.000 OA
ENDBRANCH  22  32
ENDBRANCH  18  29
ENDBRANCH   1  20
TORSDOF 8
