REMARK  Name = 
REMARK  3 active torsions:
REMARK  status: ('A' for Active; 'I' for Inactive)
REMARK    1  A    between atoms: C_2  and  C_4
REMARK    2  A    between atoms: N_8  and  C_9
REMARK    3  A    between atoms: C_9  and  C_10
REMARK                            x       y       z     vdW  Elec       q    Type
REMARK                         _______ _______ _______ _____ _____    ______ ____
ROOT
ATOM      1  C   UNL     1       2.993   1.206   0.184  0.00  0.00    +0.000 A 
ATOM      2  C   UNL     1       4.360   0.988   0.325  0.00  0.00    +0.000 A 
ATOM      3  C   UNL     1       5.169   2.047   0.734  0.00  0.00    +0.000 A 
ATOM      4  C   UNL     1       4.603   3.292   1.029  0.00  0.00    +0.000 A 
ATOM      5  N   UNL     1       5.486   4.277   1.498  0.00  0.00    +0.000 N 
ATOM      6  N   UNL     1       3.280   3.510   0.887  0.00  0.00    +0.000 NA
ATOM      7  C   UNL     1       2.511   2.478   0.449  0.00  0.00    +0.000 A 
ATOM      8  H   UNL     1       6.161   4.508   0.768  0.00  0.00    +0.000 HD
ENDROOT
BRANCH   1  10
ATOM      9  N   UNL     1       2.413  -1.147   0.007  0.00  0.00    +0.000 N 
ATOM     10  C   UNL     1       2.067   0.147  -0.265  0.00  0.00    +0.000 C 
ATOM     11  O   UNL     1       1.018   0.417  -0.833  0.00  0.00    +0.000 OA
ATOM     12  H   UNL     1       1.731  -1.857  -0.230  0.00  0.00    +0.000 HD
ATOM     13  H   UNL     1       3.124  -1.394   0.683  0.00  0.00    +0.000 HD
ENDBRANCH   1  10
BRANCH   5  14
ATOM     14  C   UNL     1       5.102   5.482   2.289  0.00  0.00    +0.000 C 
ATOM     15  C   UNL     1       4.864   5.175   3.771  0.00  0.00    +0.000 C 
ATOM     16  C   UNL     1       3.760   5.741   2.946  0.00  0.00    +0.000 C 
BRANCH  14  17
ATOM     17  C   UNL     1       5.981   6.721   1.947  0.00  0.00    +0.000 A 
ATOM     18  N   UNL     1       6.820   6.619   0.882  0.00  0.00    +0.000 NA
ATOM     19  C   UNL     1       7.637   7.661   0.638  0.00  0.00    +0.000 A 
ATOM     20  C   UNL     1       7.666   8.799   1.403  0.00  0.00    +0.000 A 
ATOM     21  C   UNL     1       6.779   8.827   2.449  0.00  0.00    +0.000 A 
ATOM     22  N   UNL     1       5.939   7.818   2.738  0.00  0.00    +0.000 NA
ENDBRANCH  14  17
ENDBRANCH   5  14
TORSDOF 3
