REMARK  Name = 
REMARK  6 active torsions:
REMARK  status: ('A' for Active; 'I' for Inactive)
REMARK    1  A    between atoms: C_2  and  C_25
REMARK    2  A    between atoms: N_3  and  C_4
REMARK    3  A    between atoms: C_4  and  C_5
REMARK    4  A    between atoms: C_8  and  C_9
REMARK    5  A    between atoms: C_9  and  N_10
REMARK    6  A    between atoms: C_11  and  C_13
REMARK                            x       y       z     vdW  Elec       q    Type
REMARK                         _______ _______ _______ _____ _____    ______ ____
ROOT
ATOM      1  C   UNL     1       3.214  -1.088  -3.431  0.00  0.00    +0.000 A 
ATOM      2  C   UNL     1       3.955  -0.080  -4.064  0.00  0.00    +0.000 A 
ATOM      3  C   UNL     1       4.856  -0.390  -5.091  0.00  0.00    +0.000 A 
ATOM      4  C   UNL     1       5.018  -1.713  -5.523  0.00  0.00    +0.000 A 
ATOM      5  C   UNL     1       4.284  -2.721  -4.883  0.00  0.00    +0.000 A 
ATOM      6  C   UNL     1       3.382  -2.411  -3.859  0.00  0.00    +0.000 A 
ENDROOT
BRANCH   1   7
ATOM      7  C   UNL     1       2.237  -0.748  -2.333  0.00  0.00    +0.000 C 
BRANCH   7  10
ATOM      8  O   UNL     1      -0.041  -0.120  -0.826  0.00  0.00    +0.000 OA
ATOM      9  C   UNL     1      -0.121  -0.119  -2.052  0.00  0.00    +0.000 C 
ATOM     10  N   UNL     1       0.940  -0.419  -2.867  0.00  0.00    +0.000 N 
ATOM     11  H   UNL     1       0.861  -0.253  -3.859  0.00  0.00    +0.000 HD
BRANCH   9  12
ATOM     12  C   UNL     1      -1.349   0.214  -2.750  0.00  0.00    +0.000 A 
ATOM     13  C   UNL     1      -1.689   0.146  -4.092  0.00  0.00    +0.000 A 
ATOM     14  C   UNL     1      -3.030   0.583  -4.233  0.00  0.00    +0.000 A 
ATOM     15  C   UNL     1      -3.486   0.906  -2.978  0.00  0.00    +0.000 A 
ATOM     16  N   UNL     1      -2.469   0.674  -2.088  0.00  0.00    +0.000 N 
ATOM     17  H   UNL     1      -2.515   0.813  -1.085  0.00  0.00    +0.000 HD
ENDBRANCH   9  12
ENDBRANCH   7  10
ENDBRANCH   1   7
BRANCH   4  18
ATOM     18  C   UNL     1       5.995  -2.061  -6.620  0.00  0.00    +0.000 C 
BRANCH  18  19
ATOM     19  N   UNL     1       7.296  -2.353  -6.077  0.00  0.00    +0.000 N 
ATOM     20  C   UNL     1       8.372  -2.644  -6.876  0.00  0.00    +0.000 C 
ATOM     21  O   UNL     1       8.305  -2.623  -8.101  0.00  0.00    +0.000 OA
ATOM     22  H   UNL     1       7.321  -2.632  -5.103  0.00  0.00    +0.000 HD
BRANCH  20  23
ATOM     23  C   UNL     1       9.636  -2.915  -6.176  0.00  0.00    +0.000 A 
ATOM     24  C   UNL     1      10.849  -2.714  -6.822  0.00  0.00    +0.000 A 
ATOM     25  S   UNL     1      12.207  -2.994  -5.827  0.00  0.00    +0.000 S 
ATOM     26  C   UNL     1      11.222  -3.452  -4.517  0.00  0.00    +0.000 A 
ATOM     27  N   UNL     1      11.765  -3.835  -3.329  0.00  0.00    +0.000 NA
ATOM     28  C   UNL     1      10.901  -4.189  -2.437  0.00  0.00    +0.000 A 
ATOM     29  N   UNL     1       9.543  -4.193  -2.622  0.00  0.00    +0.000 N 
ATOM     30  C   UNL     1       8.949  -3.793  -3.794  0.00  0.00    +0.000 A 
ATOM     31  O   UNL     1       7.730  -3.781  -3.916  0.00  0.00    +0.000 OA
ATOM     32  C   UNL     1       9.877  -3.385  -4.832  0.00  0.00    +0.000 A 
ATOM     33  H   UNL     1       8.918  -4.480  -1.883  0.00  0.00    +0.000 HD
ENDBRANCH  20  23
ENDBRANCH  18  19
ENDBRANCH   4  18
TORSDOF 6
