REMARK  Name = 
REMARK  9 active torsions:
REMARK  status: ('A' for Active; 'I' for Inactive)
REMARK    1  A    between atoms: C_1  and  O_2
REMARK    2  A    between atoms: O_2  and  C_3
REMARK    3  A    between atoms: C_10  and  C_11
REMARK    4  A    between atoms: N_13  and  C_14
REMARK    5  A    between atoms: C_14  and  C_15
REMARK    6  A    between atoms: C_18  and  C_19
REMARK    7  A    between atoms: C_19  and  O_20
REMARK    8  A    between atoms: O_20  and  C_21
REMARK    9  A    between atoms: C_21  and  C_22
REMARK                            x       y       z     vdW  Elec       q    Type
REMARK                         _______ _______ _______ _____ _____    ______ ____
ROOT
ATOM      1  C   UNL     1       2.581   3.290  -0.870  0.00  0.00    +0.000 C 
ENDROOT
BRANCH   1   2
ATOM      2  C   UNL     1       1.341   2.839  -1.603  0.00  0.00    +0.000 A 
ATOM      3  C   UNL     1       1.223   1.524  -2.073  0.00  0.00    +0.000 A 
ATOM      4  C   UNL     1       0.045   1.090  -2.693  0.00  0.00    +0.000 A 
ATOM      5  C   UNL     1      -1.038   1.962  -2.868  0.00  0.00    +0.000 A 
ATOM      6  C   UNL     1      -0.897   3.293  -2.450  0.00  0.00    +0.000 A 
ATOM      7  C   UNL     1       0.280   3.727  -1.829  0.00  0.00    +0.000 A 
BRANCH   5   8
ATOM      8  C   UNL     1      -2.321   1.478  -3.500  0.00  0.00    +0.000 C 
BRANCH   8   9
ATOM      9  O   UNL     1      -2.843   0.388  -2.740  0.00  0.00    +0.000 OA
BRANCH   9  10
ATOM     10  C   UNL     1      -4.081  -0.085  -3.272  0.00  0.00    +0.000 C 
BRANCH  10  11
ATOM     11  C   UNL     1      -4.621  -1.218  -2.435  0.00  0.00    +0.000 A 
ATOM     12  C   UNL     1      -4.406  -1.275  -1.055  0.00  0.00    +0.000 A 
ATOM     13  C   UNL     1      -4.962  -2.317  -0.330  0.00  0.00    +0.000 A 
ATOM     14  N   UNL     1      -5.722  -3.291  -0.876  0.00  0.00    +0.000 NA
ATOM     15  C   UNL     1      -5.932  -3.216  -2.206  0.00  0.00    +0.000 A 
ATOM     16  C   UNL     1      -5.417  -2.212  -3.015  0.00  0.00    +0.000 A 
ENDBRANCH  10  11
ENDBRANCH   9  10
ENDBRANCH   8   9
ENDBRANCH   5   8
ENDBRANCH   1   2
BRANCH   1  19
ATOM     17  C   UNL     1       4.764   4.328  -1.328  0.00  0.00    +0.000 C 
ATOM     18  O   UNL     1       5.075   4.273  -0.141  0.00  0.00    +0.000 OA
ATOM     19  N   UNL     1       3.553   3.862  -1.766  0.00  0.00    +0.000 N 
ATOM     20  H   UNL     1       3.302   3.933  -2.741  0.00  0.00    +0.000 HD
BRANCH  17  28
ATOM     21  C   UNL     1       4.585   4.699  -4.743  0.00  0.00    +0.000 A 
ATOM     22  N   UNL     1       4.752   5.000  -6.046  0.00  0.00    +0.000 NA
ATOM     23  C   UNL     1       5.877   5.625  -6.404  0.00  0.00    +0.000 A 
ATOM     24  N   UNL     1       6.880   5.992  -5.610  0.00  0.00    +0.000 NA
ATOM     25  C   UNL     1       6.665   5.685  -4.318  0.00  0.00    +0.000 A 
ATOM     26  S   UNL     1       7.842   6.072  -3.158  0.00  0.00    +0.000 S 
ATOM     27  C   UNL     1       6.892   5.423  -1.906  0.00  0.00    +0.000 A 
ATOM     28  C   UNL     1       5.674   4.907  -2.333  0.00  0.00    +0.000 A 
ATOM     29  C   UNL     1       5.548   5.052  -3.782  0.00  0.00    +0.000 A 
BRANCH  21  31
ATOM     30  C   UNL     1       2.825   3.309  -5.416  0.00  0.00    +0.000 C 
ATOM     31  O   UNL     1       3.422   4.065  -4.367  0.00  0.00    +0.000 OA
ENDBRANCH  21  31
ENDBRANCH  17  28
ENDBRANCH   1  19
TORSDOF 8
