REMARK  Name = 
REMARK  4 active torsions:
REMARK  status: ('A' for Active; 'I' for Inactive)
REMARK    1  A    between atoms: C_2  and  C_4
REMARK    2  A    between atoms: C_7  and  N_8
REMARK    3  A    between atoms: N_8  and  C_9
REMARK    4  A    between atoms: C_9  and  C_10
REMARK                            x       y       z     vdW  Elec       q    Type
REMARK                         _______ _______ _______ _____ _____    ______ ____
ROOT
ATOM      1  N   UNL     1       5.369   4.604   0.805  0.00  0.00    +0.000 N 
ATOM      2  H   UNL     1       6.034   4.660   0.035  0.00  0.00    +0.000 HD
ENDROOT
BRANCH   1   6
ATOM      3  C   UNL     1       3.026   1.141   0.188  0.00  0.00    +0.000 A 
ATOM      4  C   UNL     1       2.411   2.397   0.154  0.00  0.00    +0.000 A 
ATOM      5  C   UNL     1       3.164   3.557   0.382  0.00  0.00    +0.000 A 
ATOM      6  C   UNL     1       4.537   3.484   0.624  0.00  0.00    +0.000 A 
ATOM      7  C   UNL     1       5.143   2.218   0.646  0.00  0.00    +0.000 A 
ATOM      8  C   UNL     1       4.396   1.055   0.446  0.00  0.00    +0.000 A 
BRANCH   3  10
ATOM      9  N   UNL     1       1.147  -0.046  -0.808  0.00  0.00    +0.000 N 
ATOM     10  C   UNL     1       2.269  -0.117  -0.033  0.00  0.00    +0.000 C 
ATOM     11  O   UNL     1       2.652  -1.185   0.427  0.00  0.00    +0.000 OA
ATOM     12  H   UNL     1       0.701  -0.927  -1.030  0.00  0.00    +0.000 HD
ATOM     13  H   UNL     1       0.948   0.744  -1.404  0.00  0.00    +0.000 HD
ENDBRANCH   3  10
ENDBRANCH   1   6
BRANCH   1  14
ATOM     14  C   UNL     1       4.892   5.918   1.311  0.00  0.00    +0.000 C 
ATOM     15  C   UNL     1       5.802   6.533   2.373  0.00  0.00    +0.000 C 
ATOM     16  C   UNL     1       4.438   6.073   2.751  0.00  0.00    +0.000 C 
ATOM     17  F   UNL     1       3.533   7.067   3.083  0.00  0.00    +0.000 F 
BRANCH  14  18
ATOM     18  C   UNL     1       4.341   6.849   0.237  0.00  0.00    +0.000 A 
ATOM     19  C   UNL     1       5.134   7.310  -0.824  0.00  0.00    +0.000 A 
ATOM     20  C   UNL     1       4.588   8.098  -1.837  0.00  0.00    +0.000 A 
ATOM     21  C   UNL     1       3.246   8.423  -1.764  0.00  0.00    +0.000 A 
ATOM     22  N   UNL     1       2.440   8.030  -0.760  0.00  0.00    +0.000 NA
ATOM     23  C   UNL     1       3.006   7.268   0.208  0.00  0.00    +0.000 A 
ENDBRANCH  14  18
ENDBRANCH   1  14
TORSDOF 4
