REMARK  Name = 
REMARK  6 active torsions:
REMARK  status: ('A' for Active; 'I' for Inactive)
REMARK    1  A    between atoms: C_1  and  O_2
REMARK    2  A    between atoms: O_2  and  C_3
REMARK    3  A    between atoms: N_10  and  C_11
REMARK    4  A    between atoms: C_11  and  C_12
REMARK    5  A    between atoms: C_16  and  C_17
REMARK    6  A    between atoms: C_17  and  N_18
REMARK                            x       y       z     vdW  Elec       q    Type
REMARK                         _______ _______ _______ _____ _____    ______ ____
ROOT
ATOM      1  C   UNL     1       3.043   0.814   0.813  0.00  0.00    +0.000 A 
ATOM      2  C   UNL     1       2.598   0.986   2.123  0.00  0.00    +0.000 A 
ATOM      3  C   UNL     1       3.327   1.749   3.045  0.00  0.00    +0.000 A 
ATOM      4  C   UNL     1       4.515   2.356   2.613  0.00  0.00    +0.000 A 
ATOM      5  C   UNL     1       4.965   2.231   1.296  0.00  0.00    +0.000 A 
ATOM      6  C   UNL     1       6.152   3.003   1.179  0.00  0.00    +0.000 A 
ATOM      7  C   UNL     1       6.396   3.582   2.403  0.00  0.00    +0.000 A 
ATOM      8  N   UNL     1       5.432   3.145   3.283  0.00  0.00    +0.000 N 
ATOM      9  C   UNL     1       4.222   1.444   0.392  0.00  0.00    +0.000 A 
ENDROOT
BRANCH   1  11
ATOM     10  C   UNL     1       1.280  -0.678   0.260  0.00  0.00    +0.000 C 
ATOM     11  O   UNL     1       2.422   0.068  -0.153  0.00  0.00    +0.000 OA
ENDBRANCH   1  11
BRANCH   8  12
ATOM     12  C   UNL     1       5.325   3.583   4.673  0.00  0.00    +0.000 C 
BRANCH  12  13
ATOM     13  C   UNL     1       6.101   2.737   5.657  0.00  0.00    +0.000 A 
ATOM     14  C   UNL     1       7.476   2.548   5.514  0.00  0.00    +0.000 A 
ATOM     15  C   UNL     1       8.191   1.944   6.543  0.00  0.00    +0.000 A 
ATOM     16  C   UNL     1       7.521   1.532   7.686  0.00  0.00    +0.000 A 
ATOM     17  C   UNL     1       6.142   1.706   7.757  0.00  0.00    +0.000 A 
ATOM     18  N   UNL     1       5.432   2.312   6.766  0.00  0.00    +0.000 NA
BRANCH  17  19
ATOM     19  C   UNL     1       5.390   1.241   8.989  0.00  0.00    +0.000 C 
BRANCH  19  20
ATOM     20  N   UNL     1       5.622  -0.175   9.302  0.00  0.00    +0.000 NA
ATOM     21  H   UNL     1       5.297  -0.729   8.509  0.00  0.00    +0.000 HD
ATOM     22  H   UNL     1       5.034  -0.438  10.090  0.00  0.00    +0.000 HD
ENDBRANCH  19  20
ENDBRANCH  17  19
ENDBRANCH  12  13
ENDBRANCH   8  12
TORSDOF 5
