REMARK  Name = 
REMARK  7 active torsions:
REMARK  status: ('A' for Active; 'I' for Inactive)
REMARK    1  A    between atoms: N_1  and  C_2
REMARK    2  A    between atoms: C_2  and  C_3
REMARK    3  A    between atoms: N_7  and  C_8
REMARK    4  A    between atoms: C_8  and  C_9
REMARK    5  A    between atoms: C_12  and  C_13
REMARK    6  A    between atoms: C_13  and  N_14
REMARK    7  A    between atoms: C_15  and  C_17
REMARK                            x       y       z     vdW  Elec       q    Type
REMARK                         _______ _______ _______ _____ _____    ______ ____
ROOT
ATOM      1  C   UNL     1       1.513   4.842   1.631  0.00  0.00    +0.000 A 
ATOM      2  C   UNL     1       0.516   4.886   2.617  0.00  0.00    +0.000 A 
ATOM      3  C   UNL     1      -0.564   5.765   2.509  0.00  0.00    +0.000 A 
ATOM      4  C   UNL     1      -0.658   6.641   1.421  0.00  0.00    +0.000 A 
ATOM      5  C   UNL     1       0.383   6.665   0.484  0.00  0.00    +0.000 A 
ATOM      6  C   UNL     1       1.449   5.762   0.576  0.00  0.00    +0.000 A 
ENDROOT
BRANCH   1   7
ATOM      7  C   UNL     1       2.609   3.795   1.700  0.00  0.00    +0.000 C 
BRANCH   7  12
ATOM      8  C   UNL     1       3.246   0.284   0.369  0.00  0.00    +0.000 C 
ATOM      9  C   UNL     1       2.009  -0.424   0.938  0.00  0.00    +0.000 C 
ATOM     10  C   UNL     1       0.793   0.492   0.977  0.00  0.00    +0.000 C 
ATOM     11  C   UNL     1       1.098   1.865   1.585  0.00  0.00    +0.000 C 
ATOM     12  N   UNL     1       2.293   2.515   1.018  0.00  0.00    +0.000 NA
ATOM     13  C   UNL     1       3.455   1.611   1.125  0.00  0.00    +0.000 C 
BRANCH   8  14
ATOM     14  C   UNL     1       3.190   0.537  -1.152  0.00  0.00    +0.000 C 
BRANCH  14  15
ATOM     15  N   UNL     1       3.149  -0.704  -1.927  0.00  0.00    +0.000 NA
ATOM     16  H   UNL     1       3.149  -0.471  -2.920  0.00  0.00    +0.000 HD
ATOM     17  H   UNL     1       2.261  -1.179  -1.758  0.00  0.00    +0.000 HD
ENDBRANCH  14  15
ENDBRANCH   8  14
ENDBRANCH   7  12
ENDBRANCH   1   7
BRANCH   4  18
ATOM     18  C   UNL     1      -1.851   7.549   1.271  0.00  0.00    +0.000 C 
BRANCH  18  19
ATOM     19  N   UNL     1      -1.645   8.801   1.950  0.00  0.00    +0.000 N 
ATOM     20  C   UNL     1      -2.644   9.736   2.036  0.00  0.00    +0.000 C 
ATOM     21  O   UNL     1      -3.769   9.537   1.583  0.00  0.00    +0.000 OA
ATOM     22  H   UNL     1      -0.684   9.077   2.120  0.00  0.00    +0.000 HD
BRANCH  20  23
ATOM     23  C   UNL     1      -2.317  10.971   2.757  0.00  0.00    +0.000 A 
ATOM     24  C   UNL     1      -3.335  11.730   3.320  0.00  0.00    +0.000 A 
ATOM     25  S   UNL     1      -2.782  13.102   4.164  0.00  0.00    +0.000 S 
ATOM     26  C   UNL     1      -1.166  12.760   3.767  0.00  0.00    +0.000 A 
ATOM     27  N   UNL     1      -0.158  13.580   4.165  0.00  0.00    +0.000 NA
ATOM     28  C   UNL     1       1.018  13.225   3.763  0.00  0.00    +0.000 A 
ATOM     29  N   UNL     1       1.277  12.116   3.000  0.00  0.00    +0.000 N 
ATOM     30  C   UNL     1       0.297  11.238   2.601  0.00  0.00    +0.000 A 
ATOM     31  O   UNL     1       0.571  10.227   1.964  0.00  0.00    +0.000 OA
ATOM     32  C   UNL     1      -1.045  11.603   3.012  0.00  0.00    +0.000 A 
ATOM     33  H   UNL     1       2.221  11.883   2.730  0.00  0.00    +0.000 HD
ENDBRANCH  20  23
ENDBRANCH  18  19
ENDBRANCH   4  18
TORSDOF 7
