REMARK  Name = 
REMARK  6 active torsions:
REMARK  status: ('A' for Active; 'I' for Inactive)
REMARK    1  A    between atoms: C_2  and  O_3
REMARK    2  A    between atoms: C_2  and  C_18
REMARK    3  A    between atoms: O_3  and  C_4
REMARK    4  A    between atoms: C_4  and  C_5
REMARK    5  A    between atoms: C_8  and  C_9
REMARK    6  A    between atoms: C_9  and  C_10
REMARK                            x       y       z     vdW  Elec       q    Type
REMARK                         _______ _______ _______ _____ _____    ______ ____
ROOT
ATOM      1  C   UNL     1      10.786   5.913  -8.243  0.00  0.00    +0.000 C 
ENDROOT
BRANCH   1   2
ATOM      2  C   UNL     1       9.488   6.153  -7.527  0.00  0.00    +0.000 A 
ATOM      3  C   UNL     1       9.155   5.484  -6.347  0.00  0.00    +0.000 A 
ATOM      4  C   UNL     1       7.923   5.722  -5.735  0.00  0.00    +0.000 A 
ATOM      5  C   UNL     1       7.050   6.634  -6.318  0.00  0.00    +0.000 A 
ATOM      6  N   UNL     1       7.365   7.313  -7.447  0.00  0.00    +0.000 NA
ATOM      7  C   UNL     1       8.559   7.056  -8.025  0.00  0.00    +0.000 A 
BRANCH   5   8
ATOM      8  C   UNL     1       5.647   6.828  -5.812  0.00  0.00    +0.000 C 
BRANCH   8   9
ATOM      9  C   UNL     1       5.458   7.391  -4.391  0.00  0.00    +0.000 C 
ATOM     10  C   UNL     1       6.153   8.746  -4.173  0.00  0.00    +0.000 C 
ATOM     11  C   UNL     1       5.730   9.370  -2.841  0.00  0.00    +0.000 C 
ATOM     12  C   UNL     1       4.211   9.439  -2.714  0.00  0.00    +0.000 C 
ATOM     13  N   UNL     1       3.622   8.108  -2.847  0.00  0.00    +0.000 NA
ATOM     14  C   UNL     1       3.941   7.526  -4.149  0.00  0.00    +0.000 C 
ATOM     15  H   UNL     1       2.608   8.183  -2.757  0.00  0.00    +0.000 HD
ENDBRANCH   8   9
ENDBRANCH   5   8
ENDBRANCH   1   2
BRANCH   1  16
ATOM     16  O   UNL     1      10.560   5.457  -9.582  0.00  0.00    +0.000 OA
BRANCH  16  18
ATOM     17  O   UNL     1      10.492   3.302  -8.822  0.00  0.00    +0.000 OA
ATOM     18  C   UNL     1      10.389   4.118  -9.731  0.00  0.00    +0.000 C 
BRANCH  18  19
ATOM     19  C   UNL     1      10.167   3.722 -11.120  0.00  0.00    +0.000 A 
ATOM     20  C   UNL     1      10.590   2.484 -11.579  0.00  0.00    +0.000 A 
ATOM     21  S   UNL     1      10.295   2.244 -13.242  0.00  0.00    +0.000 S 
ATOM     22  C   UNL     1       9.523   3.754 -13.381  0.00  0.00    +0.000 A 
ATOM     23  N   UNL     1       8.983   4.156 -14.563  0.00  0.00    +0.000 NA
ATOM     24  C   UNL     1       8.376   5.295 -14.510  0.00  0.00    +0.000 A 
ATOM     25  N   UNL     1       8.274   6.074 -13.387  0.00  0.00    +0.000 N 
ATOM     26  C   UNL     1       8.815   5.721 -12.174  0.00  0.00    +0.000 A 
ATOM     27  O   UNL     1       8.677   6.442 -11.193  0.00  0.00    +0.000 OA
ATOM     28  C   UNL     1       9.509   4.442 -12.180  0.00  0.00    +0.000 A 
ATOM     29  H   UNL     1       7.765   6.946 -13.405  0.00  0.00    +0.000 HD
ENDBRANCH  18  19
ENDBRANCH  16  18
ENDBRANCH   1  16
TORSDOF 6
