REMARK  Name = 
REMARK  8 active torsions:
REMARK  status: ('A' for Active; 'I' for Inactive)
REMARK    1  A    between atoms: C_1  and  C_2
REMARK    2  A    between atoms: C_2  and  C_3
REMARK    3  A    between atoms: C_2  and  C_23
REMARK    4  A    between atoms: C_3  and  N_4
REMARK    5  A    between atoms: C_9  and  C_10
REMARK    6  A    between atoms: C_14  and  O_15
REMARK    7  A    between atoms: O_15  and  C_16
REMARK    8  A    between atoms: C_16  and  C_17
REMARK                            x       y       z     vdW  Elec       q    Type
REMARK                         _______ _______ _______ _____ _____    ______ ____
ROOT
ATOM      1  N   UNL     1       2.735  -1.571   1.920  0.00  0.00    +0.000 N 
ATOM      2  C   UNL     1       3.112  -2.790   2.480  0.00  0.00    +0.000 A 
ATOM      3  C   UNL     1       4.444  -3.212   2.562  0.00  0.00    +0.000 A 
ATOM      4  N   UNL     1       4.827  -4.405   3.061  0.00  0.00    +0.000 NA
ATOM      5  C   UNL     1       3.814  -5.167   3.526  0.00  0.00    +0.000 A 
ATOM      6  C   UNL     1       2.475  -4.771   3.507  0.00  0.00    +0.000 A 
ATOM      7  N   UNL     1       2.116  -3.564   2.972  0.00  0.00    +0.000 NA
ATOM      8  H   UNL     1       1.729  -1.592   1.771  0.00  0.00    +0.000 HD
ENDROOT
BRANCH   6   9
ATOM      9  C   UNL     1       1.410  -5.656   4.017  0.00  0.00    +0.000 A 
ATOM     10  C   UNL     1       0.085  -5.272   4.116  0.00  0.00    +0.000 A 
ATOM     11  C   UNL     1      -0.802  -6.234   4.549  0.00  0.00    +0.000 A 
ATOM     12  N   UNL     1      -0.445  -7.493   4.864  0.00  0.00    +0.000 NA
ATOM     13  C   UNL     1       0.860  -7.762   4.755  0.00  0.00    +0.000 A 
ATOM     14  N   UNL     1       1.804  -6.906   4.359  0.00  0.00    +0.000 NA
BRANCH  13  15
ATOM     15  O   UNL     1       1.325  -9.024   5.041  0.00  0.00    +0.000 OA
BRANCH  15  16
ATOM     16  C   UNL     1       0.322 -10.029   4.873  0.00  0.00    +0.000 C 
BRANCH  16  17
ATOM     17  C   UNL     1      -0.532 -10.262   6.113  0.00  0.00    +0.000 C 
ATOM     18  F   UNL     1      -0.199  -9.465   7.151  0.00  0.00    +0.000 F 
ATOM     19  F   UNL     1      -1.847 -10.079   5.850  0.00  0.00    +0.000 F 
ATOM     20  F   UNL     1      -0.393 -11.543   6.539  0.00  0.00    +0.000 F 
ENDBRANCH  16  17
ENDBRANCH  15  16
ENDBRANCH  13  15
ENDBRANCH   6   9
BRANCH   1  21
ATOM     21  C   UNL     1       3.545  -1.072   0.820  0.00  0.00    +0.000 C 
BRANCH  21  23
ATOM     22  C   UNL     1       2.300   1.143   0.392  0.00  0.00    +0.000 C 
ATOM     23  C   UNL     1       2.687  -0.225  -0.067  0.00  0.00    +0.000 C 
BRANCH  23  24
ATOM     24  C   UNL     1       1.928  -0.899  -1.133  0.00  0.00    +0.000 A 
ATOM     25  C   UNL     1       2.570  -1.727  -2.063  0.00  0.00    +0.000 A 
ATOM     26  C   UNL     1       1.830  -2.439  -3.010  0.00  0.00    +0.000 A 
ATOM     27  C   UNL     1       0.439  -2.330  -3.026  0.00  0.00    +0.000 A 
ATOM     28  C   UNL     1      -0.199  -1.496  -2.117  0.00  0.00    +0.000 A 
ATOM     29 CL   UNL     1      -1.916  -1.375  -2.115  0.00  0.00    +0.000 Cl
ATOM     30  C   UNL     1       0.539  -0.771  -1.180  0.00  0.00    +0.000 A 
ENDBRANCH  23  24
ENDBRANCH  21  23
ENDBRANCH   1  21
TORSDOF 7
