REMARK  Name = 
REMARK  9 active torsions:
REMARK  status: ('A' for Active; 'I' for Inactive)
REMARK    1  A    between atoms: N_1  and  C_2
REMARK    2  A    between atoms: C_2  and  C_3
REMARK    3  A    between atoms: C_3  and  C_4
REMARK    4  A    between atoms: C_4  and  N_5
REMARK    5  A    between atoms: C_4  and  C_18
REMARK    6  A    between atoms: C_6  and  C_8
REMARK    7  A    between atoms: C_21  and  O_22
REMARK    8  A    between atoms: O_22  and  C_23
REMARK    9  A    between atoms: C_23  and  C_24
REMARK                            x       y       z     vdW  Elec       q    Type
REMARK                         _______ _______ _______ _____ _____    ______ ____
ROOT
ATOM      1  C   UNL     1       4.365   0.010  -1.285  0.00  0.00    +0.000 C 
ENDROOT
BRANCH   1   2
ATOM      2  C   UNL     1       5.013   0.022  -2.667  0.00  0.00    +0.000 A 
ATOM      3  C   UNL     1       5.404   1.233  -3.260  0.00  0.00    +0.000 A 
ATOM      4  C   UNL     1       5.950   1.252  -4.547  0.00  0.00    +0.000 A 
ATOM      5  C   UNL     1       6.155   0.060  -5.239  0.00  0.00    +0.000 A 
ATOM      6  C   UNL     1       5.733  -1.144  -4.678  0.00  0.00    +0.000 A 
ATOM      7  C   UNL     1       5.163  -1.162  -3.406  0.00  0.00    +0.000 A 
BRANCH   5   8
ATOM      8  O   UNL     1       6.774   0.174  -6.456  0.00  0.00    +0.000 OA
BRANCH   8   9
ATOM      9  C   UNL     1       7.473  -1.006  -6.875  0.00  0.00    +0.000 C 
BRANCH   9  10
ATOM     10  C   UNL     1       8.530  -0.689  -7.905  0.00  0.00    +0.000 A 
ATOM     11  C   UNL     1       8.343   0.312  -8.852  0.00  0.00    +0.000 A 
ATOM     12  C   UNL     1       9.344   0.547  -9.791  0.00  0.00    +0.000 A 
ATOM     13  C   UNL     1      10.494  -0.233  -9.769  0.00  0.00    +0.000 A 
ATOM     14  C   UNL     1      10.597  -1.222  -8.808  0.00  0.00    +0.000 A 
ATOM     15  N   UNL     1       9.644  -1.471  -7.884  0.00  0.00    +0.000 NA
ENDBRANCH   9  10
ENDBRANCH   8   9
ENDBRANCH   5   8
ENDBRANCH   1   2
BRANCH   1  16
ATOM     16  N   UNL     1       4.847  -1.143  -0.527  0.00  0.00    +0.000 N 
ATOM     17  C   UNL     1       4.501  -1.404   0.773  0.00  0.00    +0.000 C 
ATOM     18  O   UNL     1       3.710  -0.706   1.403  0.00  0.00    +0.000 OA
ATOM     19  H   UNL     1       5.697  -1.576  -0.876  0.00  0.00    +0.000 HD
BRANCH  17  20
ATOM     20  C   UNL     1       5.097  -2.600   1.380  0.00  0.00    +0.000 A 
ATOM     21  C   UNL     1       4.427  -3.262   2.401  0.00  0.00    +0.000 A 
ATOM     22  S   UNL     1       5.288  -4.590   3.035  0.00  0.00    +0.000 S 
ATOM     23  C   UNL     1       6.599  -4.310   1.986  0.00  0.00    +0.000 A 
ATOM     24  N   UNL     1       7.727  -5.065   2.057  0.00  0.00    +0.000 NA
ATOM     25  C   UNL     1       8.654  -4.720   1.225  0.00  0.00    +0.000 A 
ATOM     26  N   UNL     1       8.541  -3.707   0.309  0.00  0.00    +0.000 N 
ATOM     27  C   UNL     1       7.397  -2.962   0.159  0.00  0.00    +0.000 A 
ATOM     28  O   UNL     1       7.278  -2.146  -0.747  0.00  0.00    +0.000 OA
ATOM     29  C   UNL     1       6.354  -3.259   1.122  0.00  0.00    +0.000 A 
ATOM     30  H   UNL     1       9.286  -3.519  -0.348  0.00  0.00    +0.000 HD
ENDBRANCH  17  20
ENDBRANCH   1  16
BRANCH   1  31
ATOM     31  C   UNL     1       2.825   0.030  -1.413  0.00  0.00    +0.000 C 
BRANCH  31  32
ATOM     32  C   UNL     1       2.306   1.262  -2.160  0.00  0.00    +0.000 C 
BRANCH  32  33
ATOM     33  N   UNL     1       0.847   1.280  -2.187  0.00  0.00    +0.000 NA
ATOM     34  H   UNL     1       0.534   2.105  -2.696  0.00  0.00    +0.000 HD
ATOM     35  H   UNL     1       0.490   1.373  -1.237  0.00  0.00    +0.000 HD
ENDBRANCH  32  33
ENDBRANCH  31  32
ENDBRANCH   1  31
TORSDOF 9
