REMARK  Name = 
REMARK  9 active torsions:
REMARK  status: ('A' for Active; 'I' for Inactive)
REMARK    1  A    between atoms: C_1  and  N_2
REMARK    2  A    between atoms: N_2  and  C_3
REMARK    3  A    between atoms: N_2  and  C_4
REMARK    4  A    between atoms: C_4  and  C_5
REMARK    5  A    between atoms: C_8  and  C_9
REMARK    6  A    between atoms: C_9  and  C_10
REMARK    7  A    between atoms: C_13  and  C_14
REMARK    8  A    between atoms: C_14  and  N_15
REMARK    9  A    between atoms: C_16  and  C_18
REMARK                            x       y       z     vdW  Elec       q    Type
REMARK                         _______ _______ _______ _____ _____    ______ ____
ROOT
ATOM      1  C   UNL     1       9.445  -1.832   0.752  0.00  0.00    +0.000 A 
ATOM      2  C   UNL     1       9.250  -2.108  -0.600  0.00  0.00    +0.000 A 
ATOM      3  C   UNL     1       9.675  -3.336  -1.103  0.00  0.00    +0.000 A 
ATOM      4  C   UNL     1      10.306  -4.254  -0.260  0.00  0.00    +0.000 A 
ATOM      5  C   UNL     1      10.484  -3.878   1.066  0.00  0.00    +0.000 A 
ATOM      6  N   UNL     1      10.074  -2.698   1.584  0.00  0.00    +0.000 NA
ENDROOT
BRANCH   1   7
ATOM      7  C   UNL     1       8.779  -0.629   1.388  0.00  0.00    +0.000 C 
BRANCH   7  11
ATOM      8  C   UNL     1       4.782  -1.150   2.830  0.00  0.00    +0.000 A 
ATOM      9  C   UNL     1       5.430  -2.260   2.299  0.00  0.00    +0.000 A 
ATOM     10  C   UNL     1       6.736  -2.120   1.842  0.00  0.00    +0.000 A 
ATOM     11  C   UNL     1       7.377  -0.878   1.902  0.00  0.00    +0.000 A 
ATOM     12  C   UNL     1       6.654   0.167   2.468  0.00  0.00    +0.000 A 
ATOM     13  N   UNL     1       5.383   0.064   2.924  0.00  0.00    +0.000 NA
BRANCH   8  14
ATOM     14  C   UNL     1       3.355  -1.274   3.336  0.00  0.00    +0.000 C 
BRANCH  14  16
ATOM     15  C   UNL     1       3.933  -2.004   5.573  0.00  0.00    +0.000 C 
ATOM     16  N   UNL     1       3.158  -2.319   4.368  0.00  0.00    +0.000 NA
ATOM     17  C   UNL     1       1.736  -2.413   4.707  0.00  0.00    +0.000 C 
ENDBRANCH  14  16
ENDBRANCH   8  14
ENDBRANCH   7  11
ENDBRANCH   1   7
BRANCH   4  18
ATOM     18  C   UNL     1      10.724  -5.612  -0.740  0.00  0.00    +0.000 C 
BRANCH  18  19
ATOM     19  N   UNL     1       9.667  -6.579  -0.577  0.00  0.00    +0.000 N 
ATOM     20  C   UNL     1       9.871  -7.911  -0.844  0.00  0.00    +0.000 C 
ATOM     21  O   UNL     1      10.965  -8.342  -1.199  0.00  0.00    +0.000 OA
ATOM     22  H   UNL     1       8.715  -6.227  -0.541  0.00  0.00    +0.000 HD
BRANCH  20  23
ATOM     23  C   UNL     1       8.729  -8.806  -0.616  0.00  0.00    +0.000 A 
ATOM     24  C   UNL     1       8.946 -10.151  -0.345  0.00  0.00    +0.000 A 
ATOM     25  S   UNL     1       7.513 -11.030  -0.055  0.00  0.00    +0.000 S 
ATOM     26  C   UNL     1       6.550  -9.652  -0.333  0.00  0.00    +0.000 A 
ATOM     27  N   UNL     1       5.194  -9.724  -0.265  0.00  0.00    +0.000 NA
ATOM     28  C   UNL     1       4.589  -8.611  -0.527  0.00  0.00    +0.000 A 
ATOM     29  N   UNL     1       5.216  -7.433  -0.845  0.00  0.00    +0.000 N 
ATOM     30  C   UNL     1       6.586  -7.311  -0.896  0.00  0.00    +0.000 A 
ATOM     31  O   UNL     1       7.119  -6.232  -1.137  0.00  0.00    +0.000 OA
ATOM     32  C   UNL     1       7.313  -8.533  -0.623  0.00  0.00    +0.000 A 
ATOM     33  H   UNL     1       4.685  -6.598  -1.032  0.00  0.00    +0.000 HD
ENDBRANCH  20  23
ENDBRANCH  18  19
ENDBRANCH   4  18
TORSDOF 7
