REMARK  Name = 
REMARK  6 active torsions:
REMARK  status: ('A' for Active; 'I' for Inactive)
REMARK    1  A    between atoms: C_2  and  C_25
REMARK    2  A    between atoms: N_3  and  C_4
REMARK    3  A    between atoms: C_4  and  C_5
REMARK    4  A    between atoms: C_8  and  C_9
REMARK    5  A    between atoms: C_9  and  N_10
REMARK    6  A    between atoms: C_11  and  C_13
REMARK                            x       y       z     vdW  Elec       q    Type
REMARK                         _______ _______ _______ _____ _____    ______ ____
ROOT
ATOM      1  C   UNL     1       3.300   2.169  -2.855  0.00  0.00    +0.000 A 
ATOM      2  C   UNL     1       3.131   3.551  -3.022  0.00  0.00    +0.000 A 
ATOM      3  C   UNL     1       3.975   4.278  -3.871  0.00  0.00    +0.000 A 
ATOM      4  C   UNL     1       4.992   3.635  -4.588  0.00  0.00    +0.000 A 
ATOM      5  C   UNL     1       5.165   2.255  -4.415  0.00  0.00    +0.000 A 
ATOM      6  C   UNL     1       4.320   1.527  -3.569  0.00  0.00    +0.000 A 
ENDROOT
BRANCH   1   7
ATOM      7  C   UNL     1       2.391   1.390  -1.938  0.00  0.00    +0.000 C 
BRANCH   7  10
ATOM      8  O   UNL     1       0.370  -0.149  -0.788  0.00  0.00    +0.000 OA
ATOM      9  C   UNL     1       0.265   0.171  -1.971  0.00  0.00    +0.000 C 
ATOM     10  N   UNL     1       1.219   0.912  -2.626  0.00  0.00    +0.000 N 
ATOM     11  H   UNL     1       1.030   1.263  -3.553  0.00  0.00    +0.000 HD
BRANCH   9  12
ATOM     12  C   UNL     1      -0.882  -0.188  -2.762  0.00  0.00    +0.000 A 
ATOM     13  C   UNL     1      -1.179  -0.065  -4.106  0.00  0.00    +0.000 A 
ATOM     14  C   UNL     1      -2.470  -0.602  -4.251  0.00  0.00    +0.000 A 
ATOM     15  N   UNL     1      -2.966  -1.046  -3.095  0.00  0.00    +0.000 NA
ATOM     16  N   UNL     1      -1.981  -0.799  -2.214  0.00  0.00    +0.000 N 
ATOM     17  H   UNL     1      -2.115  -1.060  -1.240  0.00  0.00    +0.000 HD
ENDBRANCH   9  12
ENDBRANCH   7  10
ENDBRANCH   1   7
BRANCH   4  18
ATOM     18  C   UNL     1       5.904   4.408  -5.508  0.00  0.00    +0.000 C 
BRANCH  18  19
ATOM     19  N   UNL     1       7.069   4.896  -4.814  0.00  0.00    +0.000 N 
ATOM     20  C   UNL     1       8.001   5.678  -5.450  0.00  0.00    +0.000 C 
ATOM     21  O   UNL     1       7.862   6.038  -6.617  0.00  0.00    +0.000 OA
ATOM     22  H   UNL     1       7.323   4.424  -3.952  0.00  0.00    +0.000 HD
BRANCH  20  23
ATOM     23  C   UNL     1       9.146   6.121  -4.644  0.00  0.00    +0.000 A 
ATOM     24  C   UNL     1       9.837   7.273  -4.997  0.00  0.00    +0.000 A 
ATOM     25  S   UNL     1      11.103   7.668  -3.924  0.00  0.00    +0.000 S 
ATOM     26  C   UNL     1      10.807   6.284  -2.980  0.00  0.00    +0.000 A 
ATOM     27  N   UNL     1      11.574   6.002  -1.891  0.00  0.00    +0.000 NA
ATOM     28  C   UNL     1      11.258   4.906  -1.286  0.00  0.00    +0.000 A 
ATOM     29  N   UNL     1      10.242   4.069  -1.668  0.00  0.00    +0.000 N 
ATOM     30  C   UNL     1       9.424   4.328  -2.740  0.00  0.00    +0.000 A 
ATOM     31  O   UNL     1       8.493   3.581  -3.025  0.00  0.00    +0.000 OA
ATOM     32  C   UNL     1       9.745   5.543  -3.464  0.00  0.00    +0.000 A 
ATOM     33  H   UNL     1      10.039   3.229  -1.144  0.00  0.00    +0.000 HD
ENDBRANCH  20  23
ENDBRANCH  18  19
ENDBRANCH   4  18
TORSDOF 6
