REMARK  Name = 
REMARK  6 active torsions:
REMARK  status: ('A' for Active; 'I' for Inactive)
REMARK    1  A    between atoms: C_2  and  C_18
REMARK    2  A    between atoms: N_3  and  C_4
REMARK    3  A    between atoms: C_4  and  C_5
REMARK    4  A    between atoms: C_8  and  C_9
REMARK    5  A    between atoms: C_9  and  N_10
REMARK    6  A    between atoms: N_10  and  C_11
REMARK                            x       y       z     vdW  Elec       q    Type
REMARK                         _______ _______ _______ _____ _____    ______ ____
ROOT
ATOM      1  C   UNL     1       2.203  -1.523   1.946  0.00  0.00    +0.000 C 
ENDROOT
BRANCH   1   2
ATOM      2  C   UNL     1       3.157  -2.290   2.810  0.00  0.00    +0.000 A 
ATOM      3  C   UNL     1       4.142  -1.645   3.559  0.00  0.00    +0.000 A 
ATOM      4  C   UNL     1       4.980  -2.389   4.389  0.00  0.00    +0.000 A 
ATOM      5  C   UNL     1       4.819  -3.772   4.451  0.00  0.00    +0.000 A 
ATOM      6  N   UNL     1       3.890  -4.421   3.703  0.00  0.00    +0.000 NA
ATOM      7  C   UNL     1       3.102  -3.676   2.895  0.00  0.00    +0.000 A 
BRANCH   5   8
ATOM      8  C   UNL     1       5.638  -4.591   5.438  0.00  0.00    +0.000 C 
BRANCH   8   9
ATOM      9  N   UNL     1       6.483  -5.600   4.800  0.00  0.00    +0.000 NA
ATOM     10  H   UNL     1       7.154  -5.158   4.179  0.00  0.00    +0.000 HD
BRANCH   9  11
ATOM     11  C   UNL     1       7.192  -6.417   5.741  0.00  0.00    +0.000 C 
ATOM     12  C   UNL     1       8.171  -5.708   6.666  0.00  0.00    +0.000 C 
ATOM     13  C   UNL     1       9.129  -6.825   7.038  0.00  0.00    +0.000 C 
ATOM     14  C   UNL     1       9.138  -7.729   5.812  0.00  0.00    +0.000 C 
ATOM     15  N   UNL     1       8.073  -7.240   4.938  0.00  0.00    +0.000 NA
ATOM     16  H   UNL     1       7.535  -8.003   4.533  0.00  0.00    +0.000 HD
ENDBRANCH   9  11
ENDBRANCH   8   9
ENDBRANCH   5   8
ENDBRANCH   1   2
BRANCH   1  19
ATOM     17  O   UNL     1       3.544   0.795   1.075  0.00  0.00    +0.000 OA
ATOM     18  C   UNL     1       3.430  -0.155   0.301  0.00  0.00    +0.000 C 
ATOM     19  N   UNL     1       2.741  -1.291   0.630  0.00  0.00    +0.000 N 
ATOM     20  H   UNL     1       2.807  -2.103   0.026  0.00  0.00    +0.000 HD
BRANCH  18  21
ATOM     21  C   UNL     1       4.002  -0.113  -1.049  0.00  0.00    +0.000 A 
ATOM     22  C   UNL     1       4.260   1.109  -1.655  0.00  0.00    +0.000 A 
ATOM     23  S   UNL     1       4.959   0.968  -3.205  0.00  0.00    +0.000 S 
ATOM     24  C   UNL     1       4.974  -0.730  -3.104  0.00  0.00    +0.000 A 
ATOM     25  N   UNL     1       5.503  -1.487  -4.101  0.00  0.00    +0.000 NA
ATOM     26  C   UNL     1       5.492  -2.757  -3.872  0.00  0.00    +0.000 A 
ATOM     27  N   UNL     1       4.973  -3.342  -2.743  0.00  0.00    +0.000 N 
ATOM     28  C   UNL     1       4.339  -2.625  -1.760  0.00  0.00    +0.000 A 
ATOM     29  O   UNL     1       3.734  -3.187  -0.852  0.00  0.00    +0.000 OA
ATOM     30  C   UNL     1       4.406  -1.185  -1.931  0.00  0.00    +0.000 A 
ATOM     31  H   UNL     1       4.950  -4.347  -2.648  0.00  0.00    +0.000 HD
ENDBRANCH  18  21
ENDBRANCH   1  19
TORSDOF 6
