REMARK  Name = 
REMARK  5 active torsions:
REMARK  status: ('A' for Active; 'I' for Inactive)
REMARK    1  A    between atoms: C_2  and  C_4
REMARK    2  A    between atoms: N_8  and  C_9
REMARK    3  A    between atoms: C_9  and  C_10
REMARK    4  A    between atoms: C_10  and  C_13
REMARK    5  A    between atoms: C_17  and  C_18
REMARK                            x       y       z     vdW  Elec       q    Type
REMARK                         _______ _______ _______ _____ _____    ______ ____
ROOT
ATOM      1  C   UNL     1       6.070  -6.873  -1.625  0.00  0.00    +0.000 C 
ATOM      2  F   UNL     1       7.312  -6.339  -1.854  0.00  0.00    +0.000 F 
ATOM      3  F   UNL     1       6.150  -7.412  -0.370  0.00  0.00    +0.000 F 
ENDROOT
BRANCH   1   4
ATOM      4  C   UNL     1       5.704  -7.922  -2.658  0.00  0.00    +0.000 A 
ATOM      5  C   UNL     1       4.892  -9.003  -2.295  0.00  0.00    +0.000 A 
ATOM      6  C   UNL     1       4.549  -9.970  -3.233  0.00  0.00    +0.000 A 
ATOM      7  C   UNL     1       5.007  -9.863  -4.548  0.00  0.00    +0.000 A 
ATOM      8  C   UNL     1       5.807  -8.783  -4.965  0.00  0.00    +0.000 A 
ATOM      9  C   UNL     1       6.154  -7.824  -3.990  0.00  0.00    +0.000 A 
BRANCH   8  10
ATOM     10  C   UNL     1       6.240  -8.652  -6.375  0.00  0.00    +0.000 A 
ATOM     11  C   UNL     1       7.481  -8.110  -6.741  0.00  0.00    +0.000 A 
ATOM     12  C   UNL     1       7.831  -7.985  -8.087  0.00  0.00    +0.000 A 
ATOM     13  C   UNL     1       6.933  -8.416  -9.045  0.00  0.00    +0.000 A 
ATOM     14  F   UNL     1       7.267  -8.296 -10.338  0.00  0.00    +0.000 F 
ATOM     15  N   UNL     1       5.734  -8.950  -8.757  0.00  0.00    +0.000 NA
ATOM     16  C   UNL     1       5.421  -9.048  -7.440  0.00  0.00    +0.000 A 
ENDBRANCH   8  10
ENDBRANCH   1   4
BRANCH   1  17
ATOM     17  C   UNL     1       5.051  -5.704  -1.607  0.00  0.00    +0.000 C 
BRANCH  17  22
ATOM     18  C   UNL     1       2.900  -1.357  -0.392  0.00  0.00    +0.000 A 
ATOM     19  C   UNL     1       3.901  -1.524   0.560  0.00  0.00    +0.000 A 
ATOM     20  C   UNL     1       4.698  -2.670   0.512  0.00  0.00    +0.000 A 
ATOM     21  C   UNL     1       4.493  -3.621  -0.489  0.00  0.00    +0.000 A 
ATOM     22  N   UNL     1       5.289  -4.772  -0.482  0.00  0.00    +0.000 N 
ATOM     23  N   UNL     1       3.510  -3.479  -1.399  0.00  0.00    +0.000 NA
ATOM     24  C   UNL     1       2.733  -2.365  -1.329  0.00  0.00    +0.000 A 
ATOM     25  H   UNL     1       6.273  -4.533  -0.385  0.00  0.00    +0.000 HD
BRANCH  18  27
ATOM     26  N   UNL     1       2.473   0.985   0.094  0.00  0.00    +0.000 N 
ATOM     27  C   UNL     1       2.001  -0.186  -0.430  0.00  0.00    +0.000 C 
ATOM     28  O   UNL     1       0.892  -0.248  -0.942  0.00  0.00    +0.000 OA
ATOM     29  H   UNL     1       1.887   1.802  -0.031  0.00  0.00    +0.000 HD
ATOM     30  H   UNL     1       3.450   1.140   0.297  0.00  0.00    +0.000 HD
ENDBRANCH  18  27
ENDBRANCH  17  22
ENDBRANCH   1  17
TORSDOF 5
