REMARK  Name = 
REMARK  4 active torsions:
REMARK  status: ('A' for Active; 'I' for Inactive)
REMARK    1  A    between atoms: C_2  and  C_4
REMARK    2  A    between atoms: N_8  and  C_9
REMARK    3  A    between atoms: C_9  and  C_10
REMARK    4  A    between atoms: C_12  and  C_13
REMARK                            x       y       z     vdW  Elec       q    Type
REMARK                         _______ _______ _______ _____ _____    ______ ____
ROOT
ATOM      1  C   UNL     1       6.537   1.139  -4.856  0.00  0.00    +0.000 C 
ATOM      2  C   UNL     1       6.851  -0.261  -5.365  0.00  0.00    +0.000 C 
ATOM      3  C   UNL     1       7.531   0.246  -4.136  0.00  0.00    +0.000 C 
ENDROOT
BRANCH   1   8
ATOM      4  C   UNL     1       1.602   1.124  -6.151  0.00  0.00    +0.000 A 
ATOM      5  C   UNL     1       1.747   1.077  -4.786  0.00  0.00    +0.000 A 
ATOM      6  N   UNL     1       2.938   1.168  -4.156  0.00  0.00    +0.000 NA
ATOM      7  C   UNL     1       4.033   1.280  -4.924  0.00  0.00    +0.000 A 
ATOM      8  N   UNL     1       5.232   1.371  -4.233  0.00  0.00    +0.000 N 
ATOM      9  N   UNL     1       3.994   1.292  -6.271  0.00  0.00    +0.000 NA
ATOM     10  C   UNL     1       2.777   1.216  -6.857  0.00  0.00    +0.000 A 
ATOM     11  H   UNL     1       5.094   1.270  -3.239  0.00  0.00    +0.000 HD
BRANCH   4  13
ATOM     12  N   UNL     1      -0.794   1.499  -6.154  0.00  0.00    +0.000 N 
ATOM     13  C   UNL     1       0.305   1.052  -6.835  0.00  0.00    +0.000 C 
ATOM     14  O   UNL     1       0.219   0.640  -7.984  0.00  0.00    +0.000 OA
ATOM     15  H   UNL     1      -1.660   1.537  -6.677  0.00  0.00    +0.000 HD
ATOM     16  H   UNL     1      -0.737   2.070  -5.322  0.00  0.00    +0.000 HD
ENDBRANCH   4  13
ENDBRANCH   1   8
BRANCH   1  17
ATOM     17  C   UNL     1       7.076   2.353  -5.618  0.00  0.00    +0.000 A 
ATOM     18  C   UNL     1       6.870   2.433  -6.996  0.00  0.00    +0.000 A 
ATOM     19  C   UNL     1       7.142   3.603  -7.711  0.00  0.00    +0.000 A 
ATOM     20  C   UNL     1       7.715   4.660  -7.002  0.00  0.00    +0.000 A 
ATOM     21  C   UNL     1       7.948   4.504  -5.644  0.00  0.00    +0.000 A 
ATOM     22  N   UNL     1       7.639   3.389  -4.944  0.00  0.00    +0.000 NA
BRANCH  19  23
ATOM     23  C   UNL     1       6.779   3.707  -9.132  0.00  0.00    +0.000 A 
ATOM     24  C   UNL     1       5.699   3.011  -9.685  0.00  0.00    +0.000 A 
ATOM     25  N   UNL     1       5.360   3.061 -10.997  0.00  0.00    +0.000 NA
ATOM     26  C   UNL     1       6.145   3.853 -11.753  0.00  0.00    +0.000 A 
ATOM     27  C   UNL     1       7.207   4.566 -11.221  0.00  0.00    +0.000 A 
ATOM     28  N   UNL     1       7.544   4.515  -9.909  0.00  0.00    +0.000 NA
ENDBRANCH  19  23
ENDBRANCH   1  17
TORSDOF 4
