REMARK  Name = 
REMARK  10 active torsions:
REMARK  status: ('A' for Active; 'I' for Inactive)
REMARK    1  A    between atoms: N_1  and  C_2
REMARK    2  A    between atoms: C_2  and  C_3
REMARK    3  A    between atoms: C_3  and  N_4
REMARK    4  A    between atoms: N_4  and  C_5
REMARK    5  A    between atoms: C_5  and  C_6
REMARK    6  A    between atoms: C_9  and  C_10
REMARK    7  A    between atoms: C_10  and  C_11
REMARK    8  A    between atoms: C_11  and  N_12
REMARK    9  A    between atoms: N_12  and  C_13
REMARK   10  A    between atoms: C_20  and  C_22
REMARK                            x       y       z     vdW  Elec       q    Type
REMARK                         _______ _______ _______ _____ _____    ______ ____
ROOT
ATOM      1  N   UNL     1       4.309   1.157  -0.651  0.00  0.00    +0.000 N 
ATOM      2  C   UNL     1       4.786   2.390  -1.136  0.00  0.00    +0.000 C 
ATOM      3  O   UNL     1       4.095   3.091  -1.871  0.00  0.00    +0.000 OA
ENDROOT
BRANCH   2   4
ATOM      4  C   UNL     1       6.136   2.845  -0.767  0.00  0.00    +0.000 A 
ATOM      5  C   UNL     1       7.282   2.066  -0.828  0.00  0.00    +0.000 A 
ATOM      6  S   UNL     1       8.705   2.904  -0.391  0.00  0.00    +0.000 S 
ATOM      7  C   UNL     1       7.856   4.371  -0.245  0.00  0.00    +0.000 A 
ATOM      8  N   UNL     1       8.512   5.537   0.011  0.00  0.00    +0.000 NA
ATOM      9  C   UNL     1       7.739   6.574   0.035  0.00  0.00    +0.000 A 
ATOM     10  N   UNL     1       6.385   6.551  -0.140  0.00  0.00    +0.000 N 
ATOM     11  C   UNL     1       5.666   5.381  -0.270  0.00  0.00    +0.000 A 
ATOM     12  O   UNL     1       4.444   5.378  -0.183  0.00  0.00    +0.000 OA
ATOM     13  C   UNL     1       6.496   4.200  -0.426  0.00  0.00    +0.000 A 
ATOM     14  H   UNL     1       5.837   7.393  -0.043  0.00  0.00    +0.000 HD
ENDBRANCH   2   4
BRANCH   1  15
ATOM     15  C   UNL     1       2.951   0.759  -1.078  0.00  0.00    +0.000 C 
BRANCH  15  16
ATOM     16  C   UNL     1       2.782   0.408  -2.574  0.00  0.00    +0.000 C 
BRANCH  16  17
ATOM     17  N   UNL     1       3.369  -0.881  -2.963  0.00  0.00    +0.000 NA
ATOM     18  H   UNL     1       3.250  -0.988  -3.972  0.00  0.00    +0.000 HD
ATOM     19  H   UNL     1       2.820  -1.632  -2.545  0.00  0.00    +0.000 HD
ENDBRANCH  16  17
ENDBRANCH  15  16
ENDBRANCH   1  15
BRANCH   1  20
ATOM     20  C   UNL     1       5.068   0.341   0.305  0.00  0.00    +0.000 C 
BRANCH  20  21
ATOM     21  C   UNL     1       4.319  -0.720   1.060  0.00  0.00    +0.000 A 
ATOM     22  C   UNL     1       4.388  -2.045   0.625  0.00  0.00    +0.000 A 
ATOM     23  C   UNL     1       3.605  -3.021   1.228  0.00  0.00    +0.000 A 
ATOM     24  C   UNL     1       2.741  -2.701   2.287  0.00  0.00    +0.000 A 
ATOM     25  C   UNL     1       2.720  -1.381   2.758  0.00  0.00    +0.000 A 
ATOM     26  C   UNL     1       3.508  -0.398   2.155  0.00  0.00    +0.000 A 
BRANCH  24  27
ATOM     27  C   UNL     1       1.775  -3.718   2.868  0.00  0.00    +0.000 C 
BRANCH  27  28
ATOM     28  C   UNL     1       2.294  -5.156   2.766  0.00  0.00    +0.000 C 
BRANCH  28  29
ATOM     29  N   UNL     1       1.401  -6.162   3.352  0.00  0.00    +0.000 NA
ATOM     30  H   UNL     1       0.512  -6.157   2.850  0.00  0.00    +0.000 HD
BRANCH  29  31
ATOM     31  C   UNL     1       2.026  -7.492   3.234  0.00  0.00    +0.000 C 
ATOM     32  C   UNL     1       1.122  -8.620   3.724  0.00  0.00    +0.000 C 
ATOM     33  C   UNL     1       1.709  -9.008   5.067  0.00  0.00    +0.000 C 
ATOM     34  N   UNL     1       3.157  -8.879   4.872  0.00  0.00    +0.000 NA
ATOM     35  C   UNL     1       3.296  -7.633   4.107  0.00  0.00    +0.000 C 
ATOM     36  H   UNL     1       3.485  -9.653   4.296  0.00  0.00    +0.000 HD
ENDBRANCH  29  31
ENDBRANCH  28  29
ENDBRANCH  27  28
ENDBRANCH  24  27
ENDBRANCH  20  21
ENDBRANCH   1  20
TORSDOF 10
