REMARK  Name = 
REMARK  9 active torsions:
REMARK  status: ('A' for Active; 'I' for Inactive)
REMARK    1  A    between atoms: C_1  and  O_2
REMARK    2  A    between atoms: O_2  and  C_3
REMARK    3  A    between atoms: C_10  and  C_11
REMARK    4  A    between atoms: N_13  and  C_14
REMARK    5  A    between atoms: C_14  and  C_15
REMARK    6  A    between atoms: C_18  and  C_19
REMARK    7  A    between atoms: C_19  and  S_20
REMARK    8  A    between atoms: S_20  and  C_21
REMARK    9  A    between atoms: C_21  and  C_22
REMARK                            x       y       z     vdW  Elec       q    Type
REMARK                         _______ _______ _______ _____ _____    ______ ____
ROOT
ATOM      1  C   UNL     1       2.654   3.368   0.008  0.00  0.00    +0.000 C 
ENDROOT
BRANCH   1   2
ATOM      2  C   UNL     1       1.461   3.223  -0.909  0.00  0.00    +0.000 A 
ATOM      3  C   UNL     1       1.213   2.014  -1.571  0.00  0.00    +0.000 A 
ATOM      4  C   UNL     1       0.035   1.826  -2.306  0.00  0.00    +0.000 A 
ATOM      5  C   UNL     1      -0.932   2.839  -2.399  0.00  0.00    +0.000 A 
ATOM      6  C   UNL     1      -0.634   4.082  -1.820  0.00  0.00    +0.000 A 
ATOM      7  C   UNL     1       0.550   4.273  -1.087  0.00  0.00    +0.000 A 
BRANCH   5   8
ATOM      8  C   UNL     1      -2.255   2.598  -3.107  0.00  0.00    +0.000 C 
BRANCH   8   9
ATOM      9  S   UNL     1      -3.206   1.217  -2.361  0.00  0.00    +0.000 S 
BRANCH   9  10
ATOM     10  C   UNL     1      -4.678   1.227  -3.436  0.00  0.00    +0.000 C 
BRANCH  10  11
ATOM     11  C   UNL     1      -5.674   0.145  -3.066  0.00  0.00    +0.000 A 
ATOM     12  C   UNL     1      -6.713   0.405  -2.159  0.00  0.00    +0.000 A 
ATOM     13  C   UNL     1      -7.653  -0.582  -1.843  0.00  0.00    +0.000 A 
ATOM     14  C   UNL     1      -7.563  -1.845  -2.423  0.00  0.00    +0.000 A 
ATOM     15  C   UNL     1      -6.527  -2.123  -3.312  0.00  0.00    +0.000 A 
ATOM     16  C   UNL     1      -5.585  -1.134  -3.629  0.00  0.00    +0.000 A 
ENDBRANCH  10  11
ENDBRANCH   9  10
ENDBRANCH   8   9
ENDBRANCH   5   8
ENDBRANCH   1   2
BRANCH   1  19
ATOM     17  C   UNL     1       5.017   4.062  -0.017  0.00  0.00    +0.000 C 
ATOM     18  O   UNL     1       5.141   3.799   1.178  0.00  0.00    +0.000 OA
ATOM     19  N   UNL     1       3.819   3.875  -0.666  0.00  0.00    +0.000 N 
ATOM     20  H   UNL     1       3.740   4.079  -1.651  0.00  0.00    +0.000 HD
BRANCH  17  28
ATOM     21  C   UNL     1       5.401   4.873  -3.330  0.00  0.00    +0.000 A 
ATOM     22  N   UNL     1       5.777   5.345  -4.534  0.00  0.00    +0.000 NA
ATOM     23  C   UNL     1       6.999   5.874  -4.644  0.00  0.00    +0.000 A 
ATOM     24  N   UNL     1       7.917   5.978  -3.686  0.00  0.00    +0.000 NA
ATOM     25  C   UNL     1       7.494   5.510  -2.500  0.00  0.00    +0.000 A 
ATOM     26  S   UNL     1       8.536   5.546  -1.160  0.00  0.00    +0.000 S 
ATOM     27  C   UNL     1       7.346   4.864  -0.154  0.00  0.00    +0.000 A 
ATOM     28  C   UNL     1       6.140   4.610  -0.800  0.00  0.00    +0.000 A 
ATOM     29  C   UNL     1       6.247   4.963  -2.213  0.00  0.00    +0.000 A 
BRANCH  21  31
ATOM     30  C   UNL     1       3.658   3.763  -4.425  0.00  0.00    +0.000 C 
ATOM     31  O   UNL     1       4.143   4.326  -3.210  0.00  0.00    +0.000 OA
ENDBRANCH  21  31
ENDBRANCH  17  28
ENDBRANCH   1  19
TORSDOF 8
