REMARK  Name = 
REMARK  6 active torsions:
REMARK  status: ('A' for Active; 'I' for Inactive)
REMARK    1  A    between atoms: N_1  and  C_2
REMARK    2  A    between atoms: C_2  and  C_3
REMARK    3  A    between atoms: C_7  and  C_8
REMARK    4  A    between atoms: C_8  and  C_9
REMARK    5  A    between atoms: C_9  and  N_10
REMARK    6  A    between atoms: C_14  and  C_15
REMARK                            x       y       z     vdW  Elec       q    Type
REMARK                         _______ _______ _______ _____ _____    ______ ____
ROOT
ATOM      1  N   UNL     1       3.493   2.012   7.036  0.00  0.00    +0.000 N 
ATOM      2  C   UNL     1       3.414   3.111   7.917  0.00  0.00    +0.000 A 
ATOM      3  C   UNL     1       3.484   2.886   9.290  0.00  0.00    +0.000 A 
ATOM      4  C   UNL     1       3.410   3.972  10.170  0.00  0.00    +0.000 A 
ATOM      5  C   UNL     1       3.266   5.266   9.665  0.00  0.00    +0.000 A 
ATOM      6  C   UNL     1       3.186   5.394   8.291  0.00  0.00    +0.000 A 
ATOM      7  N   UNL     1       3.251   4.354   7.423  0.00  0.00    +0.000 NA
ATOM      8  H   UNL     1       4.347   1.500   7.240  0.00  0.00    +0.000 HD
ENDROOT
BRANCH   5   9
ATOM      9  C   UNL     1       3.208   6.419  10.594  0.00  0.00    +0.000 C 
ATOM     10  N   UNL     1       3.085   7.682  10.080  0.00  0.00    +0.000 N 
ATOM     11  O   UNL     1       3.276   6.256  11.807  0.00  0.00    +0.000 OA
ATOM     12  H   UNL     1       3.037   7.929   9.104  0.00  0.00    +0.000 HD
ATOM     13  H   UNL     1       3.063   8.440  10.752  0.00  0.00    +0.000 HD
ENDBRANCH   5   9
BRANCH   1  14
ATOM     14  C   UNL     1       3.411   2.421   5.627  0.00  0.00    +0.000 C 
BRANCH  14  15
ATOM     15  C   UNL     1       3.514   1.217   4.684  0.00  0.00    +0.000 C 
BRANCH  15  20
ATOM     16  C   UNL     1       1.998   2.374   1.368  0.00  0.00    +0.000 A 
ATOM     17  C   UNL     1       3.156   2.697   0.647  0.00  0.00    +0.000 A 
ATOM     18  C   UNL     1       4.419   2.499   1.206  0.00  0.00    +0.000 A 
ATOM     19  C   UNL     1       4.541   1.992   2.500  0.00  0.00    +0.000 A 
ATOM     20  C   UNL     1       3.399   1.664   3.243  0.00  0.00    +0.000 A 
ATOM     21  C   UNL     1       2.134   1.847   2.662  0.00  0.00    +0.000 A 
BRANCH  16  22
ATOM     22  C   UNL     1       0.632   2.659   0.796  0.00  0.00    +0.000 C 
BRANCH  22  23
ATOM     23  N   UNL     1       0.438   2.033  -0.507  0.00  0.00    +0.000 NA
ATOM     24  H   UNL     1      -0.533   2.152  -0.787  0.00  0.00    +0.000 HD
ATOM     25  H   UNL     1       0.590   1.029  -0.410  0.00  0.00    +0.000 HD
ENDBRANCH  22  23
ENDBRANCH  16  22
ENDBRANCH  15  20
ENDBRANCH  14  15
ENDBRANCH   1  14
TORSDOF 6
