REMARK  Name = 
REMARK  5 active torsions:
REMARK  status: ('A' for Active; 'I' for Inactive)
REMARK    1  A    between atoms: N_1  and  C_2
REMARK    2  A    between atoms: C_2  and  C_3
REMARK    3  A    between atoms: C_3  and  C_4
REMARK    4  A    between atoms: C_7  and  C_8
REMARK    5  A    between atoms: C_8  and  C_9
REMARK                            x       y       z     vdW  Elec       q    Type
REMARK                         _______ _______ _______ _____ _____    ______ ____
ROOT
ATOM      1  C   UNL     1       4.512  -1.180   0.827  0.00  0.00    +0.000 A 
ATOM      2  C   UNL     1       5.271  -2.097   0.088  0.00  0.00    +0.000 A 
ATOM      3  C   UNL     1       6.669  -2.062   0.128  0.00  0.00    +0.000 A 
ATOM      4  C   UNL     1       7.339  -1.116   0.918  0.00  0.00    +0.000 A 
ATOM      5  C   UNL     1       6.572  -0.197   1.637  0.00  0.00    +0.000 A 
ATOM      6  F   UNL     1       7.176   0.724   2.403  0.00  0.00    +0.000 F 
ATOM      7  C   UNL     1       5.178  -0.222   1.600  0.00  0.00    +0.000 A 
ENDROOT
BRANCH   1   8
ATOM      8  C   UNL     1       3.003  -1.248   0.820  0.00  0.00    +0.000 C 
BRANCH   8   9
ATOM      9  C   UNL     1       2.470  -2.202   1.896  0.00  0.00    +0.000 C 
BRANCH   9  10
ATOM     10  N   UNL     1       1.009  -2.256   1.881  0.00  0.00    +0.000 NA
ATOM     11  H   UNL     1       0.690  -2.912   2.593  0.00  0.00    +0.000 HD
ATOM     12  H   UNL     1       0.688  -2.630   0.988  0.00  0.00    +0.000 HD
ENDBRANCH   9  10
ENDBRANCH   8   9
ENDBRANCH   1   8
BRANCH   4  13
ATOM     13  C   UNL     1       8.843  -1.113   1.013  0.00  0.00    +0.000 C 
BRANCH  13  14
ATOM     14  C   UNL     1       9.353  -0.272  -0.110  0.00  0.00    +0.000 A 
ATOM     15  N   UNL     1       9.613  -0.822  -1.312  0.00  0.00    +0.000 NA
ATOM     16  N   UNL     1      10.061   0.219  -2.046  0.00  0.00    +0.000 N 
ATOM     17  C   UNL     1      10.126   1.395  -1.362  0.00  0.00    +0.000 A 
ATOM     18  N   UNL     1      10.543   2.580  -1.848  0.00  0.00    +0.000 NA
ATOM     19  C   UNL     1      10.500   3.564  -0.919  0.00  0.00    +0.000 A 
ATOM     20  C   UNL     1      10.095   3.418   0.404  0.00  0.00    +0.000 A 
ATOM     21  C   UNL     1       9.678   2.162   0.851  0.00  0.00    +0.000 A 
ATOM     22  C   UNL     1       9.685   1.112  -0.079  0.00  0.00    +0.000 A 
ATOM     23  H   UNL     1      10.321   0.068  -3.012  0.00  0.00    +0.000 HD
ENDBRANCH  13  14
ENDBRANCH   4  13
TORSDOF 5
