REMARK  Name = 
REMARK  7 active torsions:
REMARK  status: ('A' for Active; 'I' for Inactive)
REMARK    1  A    between atoms: C_1  and  C_2
REMARK    2  A    between atoms: C_2  and  N_3
REMARK    3  A    between atoms: C_2  and  C_21
REMARK    4  A    between atoms: C_4  and  C_6
REMARK    5  A    between atoms: C_9  and  C_10
REMARK    6  A    between atoms: C_10  and  N_11
REMARK    7  A    between atoms: C_12  and  C_14
REMARK                            x       y       z     vdW  Elec       q    Type
REMARK                         _______ _______ _______ _____ _____    ______ ____
ROOT
ATOM      1  N   UNL     1       4.974  -0.531   4.800  0.00  0.00    +0.000 N 
ATOM      2  C   UNL     1       4.615  -1.466   3.825  0.00  0.00    +0.000 C 
ATOM      3  O   UNL     1       5.450  -2.125   3.203  0.00  0.00    +0.000 OA
ATOM      4  H   UNL     1       4.287   0.015   5.307  0.00  0.00    +0.000 HD
ENDROOT
BRANCH   2   5
ATOM      5  C   UNL     1       3.116  -1.659   3.526  0.00  0.00    +0.000 C 
ATOM      6  C   UNL     1       2.854  -3.080   3.076  0.00  0.00    +0.000 C 
ATOM      7  C   UNL     1       3.105  -4.066   4.193  0.00  0.00    +0.000 C 
ATOM      8  C   UNL     1       2.256  -3.775   5.415  0.00  0.00    +0.000 C 
ATOM      9  C   UNL     1       2.484  -2.347   5.878  0.00  0.00    +0.000 C 
ATOM     10  C   UNL     1       2.253  -1.352   4.757  0.00  0.00    +0.000 C 
BRANCH   8  11
ATOM     11  C   UNL     1       2.600  -4.760   6.527  0.00  0.00    +0.000 C 
BRANCH  11  12
ATOM     12  N   UNL     1       2.360  -6.159   6.136  0.00  0.00    +0.000 N 
ATOM     13  C   UNL     1       1.110  -6.793   6.355  0.00  0.00    +0.000 C 
ATOM     14  O   UNL     1       0.189  -6.173   6.885  0.00  0.00    +0.000 OA
ATOM     15  H   UNL     1       3.133  -6.639   5.685  0.00  0.00    +0.000 HD
BRANCH  13  16
ATOM     16  C   UNL     1       0.984  -8.212   5.956  0.00  0.00    +0.000 A 
ATOM     17  C   UNL     1      -0.146  -8.986   6.089  0.00  0.00    +0.000 A 
ATOM     18  C   UNL     1       0.017 -10.326   5.702  0.00  0.00    +0.000 A 
ATOM     19  C   UNL     1       1.281 -10.579   5.245  0.00  0.00    +0.000 A 
ATOM     20  S   UNL     1       2.260  -9.168   5.266  0.00  0.00    +0.000 S 
ENDBRANCH  13  16
ENDBRANCH  11  12
ENDBRANCH   8  11
ENDBRANCH   2   5
BRANCH   1  22
ATOM     21  C   UNL     1       7.013  -1.589   5.617  0.00  0.00    +0.000 C 
ATOM     22  C   UNL     1       6.394  -0.295   5.128  0.00  0.00    +0.000 C 
BRANCH  22  23
ATOM     23  C   UNL     1       6.580   0.784   6.184  0.00  0.00    +0.000 A 
ATOM     24  C   UNL     1       7.716   1.599   6.177  0.00  0.00    +0.000 A 
ATOM     25  S   UNL     1       7.644   2.817   7.375  0.00  0.00    +0.000 S 
ATOM     26  C   UNL     1       6.114   2.332   7.949  0.00  0.00    +0.000 A 
ATOM     27  N   UNL     1       5.411   2.934   8.962  0.00  0.00    +0.000 NA
ATOM     28  C   UNL     1       4.337   2.356   9.163  0.00  0.00    +0.000 A 
ATOM     29  N   UNL     1       3.271   1.799   9.388  0.00  0.00    +0.000 N 
ATOM     30  C   UNL     1       4.107   0.799   7.909  0.00  0.00    +0.000 A 
ATOM     31  O   UNL     1       3.886  -0.118   7.192  0.00  0.00    +0.000 OA
ATOM     32  C   UNL     1       5.611   1.263   7.308  0.00  0.00    +0.000 A 
ATOM     33  H   UNL     1       3.191   2.709  10.264  0.00  0.00    +0.000 HD
ENDBRANCH  22  23
ENDBRANCH   1  22
TORSDOF 6
