REMARK  Name = 
REMARK  7 active torsions:
REMARK  status: ('A' for Active; 'I' for Inactive)
REMARK    1  A    between atoms: C_1  and  C_2
REMARK    2  A    between atoms: C_2  and  N_3
REMARK    3  A    between atoms: C_2  and  C_13
REMARK    4  A    between atoms: C_4  and  C_6
REMARK    5  A    between atoms: C_16  and  C_17
REMARK    6  A    between atoms: C_17  and  N_18
REMARK    7  A    between atoms: C_19  and  C_21
REMARK                            x       y       z     vdW  Elec       q    Type
REMARK                         _______ _______ _______ _____ _____    ______ ____
ROOT
ATOM      1  C   UNL     1      -4.635   3.320  -1.466  0.00  0.00    +0.000 A 
ATOM      2  C   UNL     1      -5.833   2.834  -2.017  0.00  0.00    +0.000 A 
ATOM      3  C   UNL     1      -7.071   3.179  -1.469  0.00  0.00    +0.000 A 
ATOM      4  C   UNL     1      -7.145   4.034  -0.364  0.00  0.00    +0.000 A 
ATOM      5  C   UNL     1      -5.956   4.518   0.193  0.00  0.00    +0.000 A 
ATOM      6  C   UNL     1      -4.719   4.179  -0.361  0.00  0.00    +0.000 A 
ENDROOT
BRANCH   1   8
ATOM      7  C   UNL     1      -2.135   2.886  -1.130  0.00  0.00    +0.000 C 
ATOM      8  C   UNL     1      -3.315   2.929  -2.110  0.00  0.00    +0.000 C 
BRANCH   8   9
ATOM      9  N   UNL     1      -3.026   3.822  -3.220  0.00  0.00    +0.000 N 
ATOM     10  C   UNL     1      -2.127   3.493  -4.206  0.00  0.00    +0.000 C 
ATOM     11  O   UNL     1      -1.697   2.345  -4.328  0.00  0.00    +0.000 OA
ATOM     12  H   UNL     1      -3.297   4.801  -3.120  0.00  0.00    +0.000 HD
BRANCH  10  13
ATOM     13  C   UNL     1      -1.741   4.605  -5.186  0.00  0.00    +0.000 C 
ATOM     14  C   UNL     1      -0.417   4.221  -5.874  0.00  0.00    +0.000 C 
ATOM     15  C   UNL     1       0.235   5.395  -6.589  0.00  0.00    +0.000 C 
ATOM     16  C   UNL     1       0.485   6.498  -5.583  0.00  0.00    +0.000 C 
ATOM     17  N   UNL     1      -0.735   6.870  -4.912  0.00  0.00    +0.000 N 
ATOM     18  C   UNL     1      -1.722   5.996  -4.561  0.00  0.00    +0.000 C 
ATOM     19  O   UNL     1      -2.614   6.391  -3.806  0.00  0.00    +0.000 OA
ATOM     20  H   UNL     1      -0.774   7.756  -4.420  0.00  0.00    +0.000 HD
ENDBRANCH  10  13
ENDBRANCH   8   9
ENDBRANCH   1   8
BRANCH   4  21
ATOM     21  C   UNL     1      -8.473   4.409   0.237  0.00  0.00    +0.000 C 
BRANCH  21  22
ATOM     22  N   UNL     1      -8.873   3.474   1.257  0.00  0.00    +0.000 N 
ATOM     23  C   UNL     1     -10.099   3.581   1.862  0.00  0.00    +0.000 C 
ATOM     24  O   UNL     1     -10.916   4.435   1.525  0.00  0.00    +0.000 OA
ATOM     25  H   UNL     1      -8.144   2.913   1.688  0.00  0.00    +0.000 HD
BRANCH  23  26
ATOM     26  C   UNL     1     -10.417   2.590   2.896  0.00  0.00    +0.000 A 
ATOM     27  C   UNL     1     -11.746   2.329   3.205  0.00  0.00    +0.000 A 
ATOM     28  S   UNL     1     -11.950   1.129   4.398  0.00  0.00    +0.000 S 
ATOM     29  C   UNL     1     -10.268   0.948   4.579  0.00  0.00    +0.000 A 
ATOM     30  N   UNL     1      -9.755   0.075   5.486  0.00  0.00    +0.000 NA
ATOM     31  C   UNL     1      -8.466   0.063   5.543  0.00  0.00    +0.000 A 
ATOM     32  N   UNL     1      -7.642   0.840   4.771  0.00  0.00    +0.000 N 
ATOM     33  C   UNL     1      -8.115   1.715   3.821  0.00  0.00    +0.000 A 
ATOM     34  O   UNL     1      -7.350   2.365   3.117  0.00  0.00    +0.000 OA
ATOM     35  C   UNL     1      -9.560   1.778   3.727  0.00  0.00    +0.000 A 
ATOM     36  H   UNL     1      -6.639   0.773   4.857  0.00  0.00    +0.000 HD
ENDBRANCH  23  26
ENDBRANCH  21  22
ENDBRANCH   4  21
TORSDOF 6
