REMARK  Name = 
REMARK  5 active torsions:
REMARK  status: ('A' for Active; 'I' for Inactive)
REMARK    1  A    between atoms: C_2  and  C_19
REMARK    2  A    between atoms: N_3  and  C_4
REMARK    3  A    between atoms: C_4  and  C_5
REMARK    4  A    between atoms: C_8  and  C_9
REMARK    5  A    between atoms: C_9  and  N_10
REMARK                            x       y       z     vdW  Elec       q    Type
REMARK                         _______ _______ _______ _____ _____    ______ ____
ROOT
ATOM      1  C   UNL     1       2.239  -2.414  -0.545  0.00  0.00    +0.000 C 
ENDROOT
BRANCH   1   2
ATOM      2  C   UNL     1       3.165  -3.427  -1.144  0.00  0.00    +0.000 A 
ATOM      3  C   UNL     1       4.327  -3.052  -1.828  0.00  0.00    +0.000 A 
ATOM      4  C   UNL     1       5.180  -4.030  -2.340  0.00  0.00    +0.000 A 
ATOM      5  C   UNL     1       4.849  -5.372  -2.169  0.00  0.00    +0.000 A 
ATOM      6  N   UNL     1       3.693  -5.755  -1.568  0.00  0.00    +0.000 NA
ATOM      7  C   UNL     1       2.887  -4.787  -1.079  0.00  0.00    +0.000 A 
BRANCH   5   8
ATOM      8  C   UNL     1       5.818  -6.466  -2.583  0.00  0.00    +0.000 C 
BRANCH   8   9
ATOM      9  N   UNL     1       5.627  -6.878  -3.963  0.00  0.00    +0.000 N 
ATOM     10  C   UNL     1       6.502  -7.886  -4.348  0.00  0.00    +0.000 A 
ATOM     11  N   UNL     1       6.939  -8.780  -3.448  0.00  0.00    +0.000 NA
ATOM     12  C   UNL     1       7.789  -9.729  -3.877  0.00  0.00    +0.000 A 
ATOM     13  C   UNL     1       8.229  -9.816  -5.171  0.00  0.00    +0.000 A 
ATOM     14  C   UNL     1       7.736  -8.854  -6.017  0.00  0.00    +0.000 A 
ATOM     15  N   UNL     1       6.883  -7.882  -5.632  0.00  0.00    +0.000 NA
ATOM     16  H   UNL     1       5.681  -6.150  -4.663  0.00  0.00    +0.000 HD
ENDBRANCH   8   9
ENDBRANCH   5   8
ENDBRANCH   1   2
BRANCH   1  19
ATOM     17  O   UNL     1       0.272  -0.396  -0.200  0.00  0.00    +0.000 OA
ATOM     18  C   UNL     1       0.233  -1.136  -1.170  0.00  0.00    +0.000 C 
ATOM     19  N   UNL     1       1.193  -2.075  -1.473  0.00  0.00    +0.000 N 
ATOM     20  H   UNL     1       0.975  -2.768  -2.173  0.00  0.00    +0.000 HD
BRANCH  18  21
ATOM     21  C   UNL     1      -0.937  -1.286  -2.028  0.00  0.00    +0.000 A 
ATOM     22  C   UNL     1      -2.228  -1.303  -1.533  0.00  0.00    +0.000 A 
ATOM     23  S   UNL     1      -3.322  -2.018  -2.648  0.00  0.00    +0.000 S 
ATOM     24  C   UNL     1      -2.103  -2.181  -3.829  0.00  0.00    +0.000 A 
ATOM     25  N   UNL     1      -2.298  -2.853  -4.995  0.00  0.00    +0.000 NA
ATOM     26  C   UNL     1      -1.281  -2.832  -5.795  0.00  0.00    +0.000 A 
ATOM     27  N   UNL     1      -0.107  -2.155  -5.561  0.00  0.00    +0.000 N 
ATOM     28  C   UNL     1       0.128  -1.450  -4.403  0.00  0.00    +0.000 A 
ATOM     29  O   UNL     1       1.146  -0.788  -4.241  0.00  0.00    +0.000 OA
ATOM     30  C   UNL     1      -0.936  -1.566  -3.431  0.00  0.00    +0.000 A 
ATOM     31  H   UNL     1       0.614  -2.108  -6.264  0.00  0.00    +0.000 HD
ENDBRANCH  18  21
ENDBRANCH   1  19
TORSDOF 5
