REMARK  Name = 
REMARK  6 active torsions:
REMARK  status: ('A' for Active; 'I' for Inactive)
REMARK    1  A    between atoms: C_1  and  O_2
REMARK    2  A    between atoms: O_2  and  C_3
REMARK    3  A    between atoms: C_7  and  N_8
REMARK    4  A    between atoms: C_12  and  C_13
REMARK    5  A    between atoms: C_13  and  N_14
REMARK    6  A    between atoms: C_15  and  C_17
REMARK                            x       y       z     vdW  Elec       q    Type
REMARK                         _______ _______ _______ _____ _____    ______ ____
ROOT
ATOM      1  N   UNL     1       5.836   0.802  -3.393  0.00  0.00    +0.000 N 
ATOM      2  C   UNL     1       6.237   1.823  -4.254  0.00  0.00    +0.000 A 
ATOM      3  C   UNL     1       6.829   2.962  -3.710  0.00  0.00    +0.000 A 
ATOM      4  C   UNL     1       7.292   3.973  -4.552  0.00  0.00    +0.000 A 
ATOM      5  C   UNL     1       7.164   3.828  -5.930  0.00  0.00    +0.000 A 
ATOM      6  C   UNL     1       6.562   2.670  -6.390  0.00  0.00    +0.000 A 
ATOM      7  N   UNL     1       6.111   1.683  -5.589  0.00  0.00    +0.000 NA
ATOM      8  H   UNL     1       5.822   1.015  -2.407  0.00  0.00    +0.000 HD
ENDROOT
BRANCH   1  13
ATOM      9  C   UNL     1       4.989  -2.553  -2.619  0.00  0.00    +0.000 A 
ATOM     10  C   UNL     1       4.855  -3.200  -3.834  0.00  0.00    +0.000 A 
ATOM     11  C   UNL     1       5.026  -2.449  -4.985  0.00  0.00    +0.000 A 
ATOM     12  C   UNL     1       5.334  -1.097  -4.871  0.00  0.00    +0.000 A 
ATOM     13  C   UNL     1       5.466  -0.518  -3.612  0.00  0.00    +0.000 A 
ATOM     14  N   UNL     1       5.279  -1.241  -2.487  0.00  0.00    +0.000 NA
BRANCH   9  16
ATOM     15  C   UNL     1       5.046  -2.606  -0.286  0.00  0.00    +0.000 C 
ATOM     16  O   UNL     1       4.816  -3.331  -1.490  0.00  0.00    +0.000 OA
ENDBRANCH   9  16
ENDBRANCH   1  13
BRANCH   5  17
ATOM     17  C   UNL     1       7.590   4.898  -6.884  0.00  0.00    +0.000 C 
BRANCH  17  18
ATOM     18  N   UNL     1       6.494   5.787  -7.175  0.00  0.00    +0.000 N 
ATOM     19  C   UNL     1       6.325   6.979  -6.520  0.00  0.00    +0.000 C 
ATOM     20  O   UNL     1       7.123   7.383  -5.679  0.00  0.00    +0.000 OA
ATOM     21  H   UNL     1       5.713   5.394  -7.690  0.00  0.00    +0.000 HD
BRANCH  19  22
ATOM     22  C   UNL     1       5.170   7.786  -6.930  0.00  0.00    +0.000 A 
ATOM     23  C   UNL     1       5.189   9.158  -6.720  0.00  0.00    +0.000 A 
ATOM     24  S   UNL     1       3.791   9.956  -7.279  0.00  0.00    +0.000 S 
ATOM     25  C   UNL     1       3.089   8.490  -7.780  0.00  0.00    +0.000 A 
ATOM     26  N   UNL     1       1.845   8.464  -8.330  0.00  0.00    +0.000 NA
ATOM     27  C   UNL     1       1.419   7.283  -8.633  0.00  0.00    +0.000 A 
ATOM     28  N   UNL     1       2.131   6.126  -8.448  0.00  0.00    +0.000 N 
ATOM     29  C   UNL     1       3.415   6.107  -7.958  0.00  0.00    +0.000 A 
ATOM     30  O   UNL     1       4.070   5.074  -7.915  0.00  0.00    +0.000 OA
ATOM     31  C   UNL     1       3.923   7.409  -7.556  0.00  0.00    +0.000 A 
ATOM     32  H   UNL     1       1.748   5.236  -8.731  0.00  0.00    +0.000 HD
ENDBRANCH  19  22
ENDBRANCH  17  18
ENDBRANCH   5  17
TORSDOF 5
