REMARK  Name = 
REMARK  9 active torsions:
REMARK  status: ('A' for Active; 'I' for Inactive)
REMARK    1  A    between atoms: C_2  and  C_25
REMARK    2  A    between atoms: N_3  and  C_4
REMARK    3  A    between atoms: C_4  and  C_5
REMARK    4  A    between atoms: C_8  and  C_9
REMARK    5  A    between atoms: C_9  and  C_10
REMARK    6  A    between atoms: C_10  and  N_11
REMARK    7  A    between atoms: N_11  and  C_12
REMARK    8  A    between atoms: C_12  and  C_13
REMARK    9  A    between atoms: C_16  and  C_17
REMARK                            x       y       z     vdW  Elec       q    Type
REMARK                         _______ _______ _______ _____ _____    ______ ____
ROOT
ATOM      1  C   UNL     1       3.317   3.501  -0.086  0.00  0.00    +0.000 A 
ATOM      2  C   UNL     1       2.806   4.795  -0.222  0.00  0.00    +0.000 A 
ATOM      3  C   UNL     1       3.653   5.902  -0.213  0.00  0.00    +0.000 A 
ATOM      4  C   UNL     1       5.037   5.734  -0.080  0.00  0.00    +0.000 A 
ATOM      5  C   UNL     1       5.553   4.436   0.032  0.00  0.00    +0.000 A 
ATOM      6  C   UNL     1       4.703   3.326   0.019  0.00  0.00    +0.000 A 
ENDROOT
BRANCH   1   7
ATOM      7  C   UNL     1       2.360   2.340  -0.052  0.00  0.00    +0.000 C 
BRANCH   7  10
ATOM      8  O   UNL     1       0.208   3.110  -1.747  0.00  0.00    +0.000 OA
ATOM      9  C   UNL     1       1.028   2.286  -2.136  0.00  0.00    +0.000 C 
ATOM     10  N   UNL     1       2.070   1.839  -1.364  0.00  0.00    +0.000 N 
ATOM     11  H   UNL     1       2.828   1.335  -1.804  0.00  0.00    +0.000 HD
BRANCH   9  12
ATOM     12  C   UNL     1       0.925   1.659  -3.459  0.00  0.00    +0.000 A 
ATOM     13  C   UNL     1      -0.302   1.564  -4.104  0.00  0.00    +0.000 A 
ATOM     14  S   UNL     1      -0.199   0.796  -5.629  0.00  0.00    +0.000 S 
ATOM     15  C   UNL     1       1.485   0.594  -5.480  0.00  0.00    +0.000 A 
ATOM     16  N   UNL     1       2.219   0.016  -6.471  0.00  0.00    +0.000 NA
ATOM     17  C   UNL     1       3.486  -0.045  -6.228  0.00  0.00    +0.000 A 
ATOM     18  N   UNL     1       4.090   0.406  -5.088  0.00  0.00    +0.000 N 
ATOM     19  C   UNL     1       3.384   0.935  -4.034  0.00  0.00    +0.000 A 
ATOM     20  O   UNL     1       3.950   1.200  -2.982  0.00  0.00    +0.000 OA
ATOM     21  C   UNL     1       1.961   1.074  -4.274  0.00  0.00    +0.000 A 
ATOM     22  H   UNL     1       5.080   0.292  -4.931  0.00  0.00    +0.000 HD
ENDBRANCH   9  12
ENDBRANCH   7  10
ENDBRANCH   1   7
BRANCH   4  23
ATOM     23  C   UNL     1       5.969   6.921  -0.062  0.00  0.00    +0.000 C 
BRANCH  23  24
ATOM     24  C   UNL     1       5.712   7.912   1.082  0.00  0.00    +0.000 C 
BRANCH  24  25
ATOM     25  N   UNL     1       5.866   7.276   2.391  0.00  0.00    +0.000 NA
ATOM     26  H   UNL     1       6.802   6.886   2.486  0.00  0.00    +0.000 HD
BRANCH  25  27
ATOM     27  C   UNL     1       5.603   8.221   3.469  0.00  0.00    +0.000 C 
BRANCH  27  28
ATOM     28  C   UNL     1       5.723   7.560   4.812  0.00  0.00    +0.000 A 
ATOM     29  C   UNL     1       4.905   6.487   5.175  0.00  0.00    +0.000 A 
ATOM     30  C   UNL     1       5.037   5.910   6.436  0.00  0.00    +0.000 A 
ATOM     31  C   UNL     1       5.992   6.418   7.319  0.00  0.00    +0.000 A 
ATOM     32  N   UNL     1       6.795   7.468   6.980  0.00  0.00    +0.000 NA
ATOM     33  C   UNL     1       6.643   8.006   5.750  0.00  0.00    +0.000 A 
BRANCH  31  34
ATOM     34  C   UNL     1       6.160   5.795   8.697  0.00  0.00    +0.000 C 
ATOM     35  F   UNL     1       5.316   4.743   8.925  0.00  0.00    +0.000 F 
ATOM     36  F   UNL     1       7.414   5.303   8.911  0.00  0.00    +0.000 F 
ATOM     37  F   UNL     1       5.922   6.673   9.715  0.00  0.00    +0.000 F 
ENDBRANCH  31  34
ENDBRANCH  27  28
ENDBRANCH  25  27
ENDBRANCH  24  25
ENDBRANCH  23  24
ENDBRANCH   4  23
TORSDOF 9
