REMARK  Name = 
REMARK  9 active torsions:
REMARK  status: ('A' for Active; 'I' for Inactive)
REMARK    1  A    between atoms: C_1  and  C_2
REMARK    2  A    between atoms: C_2  and  N_3
REMARK    3  A    between atoms: C_2  and  C_19
REMARK    4  A    between atoms: N_3  and  C_4
REMARK    5  A    between atoms: C_4  and  C_5
REMARK    6  A    between atoms: C_8  and  C_9
REMARK    7  A    between atoms: C_9  and  N_10
REMARK    8  A    between atoms: N_10  and  C_11
REMARK    9  A    between atoms: C_11  and  C_12
REMARK                            x       y       z     vdW  Elec       q    Type
REMARK                         _______ _______ _______ _____ _____    ______ ____
ROOT
ATOM      1  C   UNL     1       2.659   2.239  -0.770  0.00  0.00    +0.000 C 
ENDROOT
BRANCH   1   2
ATOM      2  C   UNL     1       3.062   3.640  -0.374  0.00  0.00    +0.000 A 
ATOM      3  C   UNL     1       2.370   4.757  -0.851  0.00  0.00    +0.000 A 
ATOM      4  C   UNL     1       2.755   6.039  -0.463  0.00  0.00    +0.000 A 
ATOM      5  C   UNL     1       3.834   6.184   0.404  0.00  0.00    +0.000 A 
ATOM      6  N   UNL     1       4.546   5.121   0.858  0.00  0.00    +0.000 NA
ATOM      7  C   UNL     1       4.147   3.888   0.461  0.00  0.00    +0.000 A 
BRANCH   5   8
ATOM      8  C   UNL     1       4.262   7.566   0.863  0.00  0.00    +0.000 C 
BRANCH   8   9
ATOM      9  N   UNL     1       5.664   7.898   0.568  0.00  0.00    +0.000 NA
ATOM     10  H   UNL     1       6.230   7.142   0.962  0.00  0.00    +0.000 HD
BRANCH   9  11
ATOM     11  C   UNL     1       5.924   7.930  -0.868  0.00  0.00    +0.000 C 
BRANCH  11  12
ATOM     12  C   UNL     1       7.354   8.279  -1.085  0.00  0.00    +0.000 A 
ATOM     13  C   UNL     1       8.372   7.589  -1.715  0.00  0.00    +0.000 A 
ATOM     14  C   UNL     1       9.545   8.375  -1.619  0.00  0.00    +0.000 A 
ATOM     15  C   UNL     1       9.214   9.524  -0.936  0.00  0.00    +0.000 A 
ATOM     16  N   UNL     1       7.885   9.456  -0.614  0.00  0.00    +0.000 N 
ATOM     17  H   UNL     1       7.366  10.137  -0.075  0.00  0.00    +0.000 HD
ENDBRANCH  11  12
ENDBRANCH   9  11
ENDBRANCH   8   9
ENDBRANCH   5   8
ENDBRANCH   1   2
BRANCH   1  18
ATOM     18  N   UNL     1       2.212   1.451   0.379  0.00  0.00    +0.000 NA
ATOM     19  H   UNL     1       2.975   1.382   1.050  0.00  0.00    +0.000 HD
BRANCH  18  21
ATOM     20  C   UNL     1       0.576   0.057  -0.906  0.00  0.00    +0.000 C 
ATOM     21  C   UNL     1       1.779   0.079   0.048  0.00  0.00    +0.000 C 
BRANCH  21  22
ATOM     22  C   UNL     1       1.416  -0.576   1.374  0.00  0.00    +0.000 A 
ATOM     23  C   UNL     1       0.410  -0.096   2.205  0.00  0.00    +0.000 A 
ATOM     24  S   UNL     1       0.250  -0.962   3.661  0.00  0.00    +0.000 S 
ATOM     25  C   UNL     1       1.513  -2.022   3.236  0.00  0.00    +0.000 A 
ATOM     26  N   UNL     1       1.909  -3.002   4.089  0.00  0.00    +0.000 NA
ATOM     27  C   UNL     1       2.875  -3.737   3.638  0.00  0.00    +0.000 A 
ATOM     28  N   UNL     1       3.461  -3.587   2.409  0.00  0.00    +0.000 N 
ATOM     29  C   UNL     1       3.071  -2.630   1.496  0.00  0.00    +0.000 A 
ATOM     30  O   UNL     1       3.563  -2.569   0.377  0.00  0.00    +0.000 OA
ATOM     31  C   UNL     1       2.021  -1.740   1.979  0.00  0.00    +0.000 A 
ATOM     32  H   UNL     1       4.186  -4.223   2.109  0.00  0.00    +0.000 HD
ENDBRANCH  21  22
ENDBRANCH  18  21
ENDBRANCH   1  18
TORSDOF 8
