REMARK  Name = 
REMARK  9 active torsions:
REMARK  status: ('A' for Active; 'I' for Inactive)
REMARK    1  A    between atoms: C_1  and  O_2
REMARK    2  A    between atoms: O_2  and  C_3
REMARK    3  A    between atoms: C_10  and  C_11
REMARK    4  A    between atoms: N_13  and  C_14
REMARK    5  A    between atoms: C_14  and  C_15
REMARK    6  A    between atoms: C_18  and  C_19
REMARK    7  A    between atoms: C_19  and  C_20
REMARK    8  A    between atoms: C_20  and  C_21
REMARK    9  A    between atoms: C_21  and  C_22
REMARK                            x       y       z     vdW  Elec       q    Type
REMARK                         _______ _______ _______ _____ _____    ______ ____
ROOT
ATOM      1  C   UNL     1       2.984  -0.696  -3.418  0.00  0.00    +0.000 C 
ENDROOT
BRANCH   1   2
ATOM      2  C   UNL     1       1.789  -1.521  -3.020  0.00  0.00    +0.000 A 
ATOM      3  C   UNL     1       1.864  -2.919  -2.987  0.00  0.00    +0.000 A 
ATOM      4  C   UNL     1       0.764  -3.681  -2.584  0.00  0.00    +0.000 A 
ATOM      5  C   UNL     1      -0.433  -3.061  -2.203  0.00  0.00    +0.000 A 
ATOM      6  C   UNL     1      -0.523  -1.665  -2.287  0.00  0.00    +0.000 A 
ATOM      7  C   UNL     1       0.575  -0.903  -2.695  0.00  0.00    +0.000 A 
BRANCH   5   8
ATOM      8  C   UNL     1      -1.607  -3.870  -1.705  0.00  0.00    +0.000 C 
BRANCH   8   9
ATOM      9  C   UNL     1      -1.311  -4.718  -0.459  0.00  0.00    +0.000 C 
BRANCH   9  10
ATOM     10  C   UNL     1      -0.888  -3.880   0.753  0.00  0.00    +0.000 C 
BRANCH  10  11
ATOM     11  C   UNL     1      -0.635  -4.735   1.971  0.00  0.00    +0.000 A 
ATOM     12  C   UNL     1       0.635  -5.280   2.206  0.00  0.00    +0.000 A 
ATOM     13  C   UNL     1       0.872  -6.060   3.340  0.00  0.00    +0.000 A 
ATOM     14  C   UNL     1      -0.158  -6.308   4.245  0.00  0.00    +0.000 A 
ATOM     15  C   UNL     1      -1.428  -5.783   4.013  0.00  0.00    +0.000 A 
ATOM     16  C   UNL     1      -1.667  -5.004   2.879  0.00  0.00    +0.000 A 
ENDBRANCH  10  11
ENDBRANCH   9  10
ENDBRANCH   8   9
ENDBRANCH   5   8
ENDBRANCH   1   2
BRANCH   1  19
ATOM     17  C   UNL     1       4.077   0.166  -5.435  0.00  0.00    +0.000 C 
ATOM     18  O   UNL     1       4.973   0.669  -4.762  0.00  0.00    +0.000 OA
ATOM     19  N   UNL     1       3.047  -0.515  -4.846  0.00  0.00    +0.000 N 
ATOM     20  H   UNL     1       2.284  -0.876  -5.403  0.00  0.00    +0.000 HD
BRANCH  17  28
ATOM     21  C   UNL     1       1.965  -1.004  -7.902  0.00  0.00    +0.000 A 
ATOM     22  N   UNL     1       1.379  -1.400  -9.051  0.00  0.00    +0.000 NA
ATOM     23  C   UNL     1       1.958  -1.060 -10.205  0.00  0.00    +0.000 A 
ATOM     24  N   UNL     1       3.071  -0.350 -10.362  0.00  0.00    +0.000 NA
ATOM     25  C   UNL     1       3.631   0.013  -9.197  0.00  0.00    +0.000 A 
ATOM     26  S   UNL     1       5.055   0.937  -9.210  0.00  0.00    +0.000 S 
ATOM     27  C   UNL     1       5.121   0.949  -7.514  0.00  0.00    +0.000 A 
ATOM     28  C   UNL     1       4.080   0.258  -6.904  0.00  0.00    +0.000 A 
ATOM     29  C   UNL     1       3.169  -0.277  -7.915  0.00  0.00    +0.000 A 
BRANCH  21  31
ATOM     30  C   UNL     1       0.101  -1.999  -6.868  0.00  0.00    +0.000 C 
ATOM     31  O   UNL     1       1.341  -1.311  -6.709  0.00  0.00    +0.000 OA
ENDBRANCH  21  31
ENDBRANCH  17  28
ENDBRANCH   1  19
TORSDOF 8
