REMARK  Name = 
REMARK  5 active torsions:
REMARK  status: ('A' for Active; 'I' for Inactive)
REMARK    1  A    between atoms: C_1  and  O_2
REMARK    2  A    between atoms: O_2  and  C_3
REMARK    3  A    between atoms: C_6  and  C_7
REMARK    4  A    between atoms: N_10  and  C_11
REMARK    5  A    between atoms: C_14  and  C_15
REMARK                            x       y       z     vdW  Elec       q    Type
REMARK                         _______ _______ _______ _____ _____    ______ ____
ROOT
ATOM      1  C   UNL     1       5.257  -4.472   0.980  0.00  0.00    +0.000 C 
ATOM      2  C   UNL     1       5.682  -4.735  -0.483  0.00  0.00    +0.000 C 
ATOM      3  C   UNL     1       4.511  -5.294  -1.292  0.00  0.00    +0.000 C 
ATOM      4  N   UNL     1       4.111  -6.569  -0.683  0.00  0.00    +0.000 N 
ATOM      5  C   UNL     1       3.683  -6.496   0.715  0.00  0.00    +0.000 C 
ATOM      6  C   UNL     1       4.767  -5.815   1.564  0.00  0.00    +0.000 C 
ENDROOT
BRANCH   1  10
ATOM      7  C   UNL     1       2.375  -1.243   0.718  0.00  0.00    +0.000 A 
ATOM      8  C   UNL     1       2.048  -2.397   1.421  0.00  0.00    +0.000 A 
ATOM      9  C   UNL     1       3.000  -3.404   1.608  0.00  0.00    +0.000 A 
ATOM     10  C   UNL     1       4.278  -3.300   1.045  0.00  0.00    +0.000 A 
ATOM     11  C   UNL     1       4.626  -2.084   0.438  0.00  0.00    +0.000 A 
ATOM     12  C   UNL     1       3.677  -1.079   0.253  0.00  0.00    +0.000 A 
BRANCH   7  14
ATOM     13  C   UNL     1       0.326  -0.158   1.174  0.00  0.00    +0.000 C 
ATOM     14  O   UNL     1       1.514  -0.232   0.397  0.00  0.00    +0.000 OA
ENDBRANCH   7  14
ENDBRANCH   1  10
BRANCH   4  15
ATOM     15  C   UNL     1       3.596  -7.559  -1.509  0.00  0.00    +0.000 A 
ATOM     16  C   UNL     1       4.280  -7.928  -2.677  0.00  0.00    +0.000 A 
ATOM     17  C   UNL     1       3.854  -9.003  -3.456  0.00  0.00    +0.000 A 
ATOM     18  C   UNL     1       2.724  -9.693  -3.045  0.00  0.00    +0.000 A 
ATOM     19  N   UNL     1       1.994  -9.370  -1.942  0.00  0.00    +0.000 NA
ATOM     20  C   UNL     1       2.456  -8.320  -1.217  0.00  0.00    +0.000 A 
BRANCH  18  21
ATOM     21  C   UNL     1       2.278 -10.900  -3.804  0.00  0.00    +0.000 C 
ATOM     22  N   UNL     1       1.178 -11.536  -3.291  0.00  0.00    +0.000 N 
ATOM     23  O   UNL     1       2.852 -11.306  -4.805  0.00  0.00    +0.000 OA
ATOM     24  H   UNL     1       0.748 -11.179  -2.445  0.00  0.00    +0.000 HD
ATOM     25  H   UNL     1       0.836 -12.375  -3.731  0.00  0.00    +0.000 HD
ENDBRANCH  18  21
ENDBRANCH   4  15
TORSDOF 4
