REMARK  Name = 
REMARK  5 active torsions:
REMARK  status: ('A' for Active; 'I' for Inactive)
REMARK    1  A    between atoms: C_2  and  C_3
REMARK    2  A    between atoms: C_6  and  C_7
REMARK    3  A    between atoms: C_7  and  N_8
REMARK    4  A    between atoms: C_12  and  C_13
REMARK    5  A    between atoms: C_21  and  O_22
REMARK                            x       y       z     vdW  Elec       q    Type
REMARK                         _______ _______ _______ _____ _____    ______ ____
ROOT
ATOM      1  C   UNL     1       7.996   0.233  -0.585  0.00  0.00    +0.000 C 
ATOM      2  C   UNL     1       8.625  -0.413  -1.804  0.00  0.00    +0.000 C 
ATOM      3  C   UNL     1       8.909  -0.986  -0.456  0.00  0.00    +0.000 C 
ENDROOT
BRANCH   1   4
ATOM      4  N   UNL     1       8.522   1.468  -0.011  0.00  0.00    +0.000 N 
ATOM      5  C   UNL     1       8.520   2.709  -0.636  0.00  0.00    +0.000 A 
ATOM      6  N   UNL     1       7.716   2.997  -1.673  0.00  0.00    +0.000 NA
ATOM      7  C   UNL     1       7.782   4.262  -2.164  0.00  0.00    +0.000 A 
ATOM      8  C   UNL     1       8.611   5.239  -1.658  0.00  0.00    +0.000 A 
ATOM      9  C   UNL     1       9.412   4.834  -0.621  0.00  0.00    +0.000 A 
ATOM     10  N   UNL     1       9.381   3.591  -0.097  0.00  0.00    +0.000 NA
ATOM     11  H   UNL     1       9.328   1.438   0.603  0.00  0.00    +0.000 HD
BRANCH   8  12
ATOM     12  C   UNL     1       8.644   6.592  -2.234  0.00  0.00    +0.000 C 
ATOM     13  N   UNL     1       9.083   7.617  -1.441  0.00  0.00    +0.000 N 
ATOM     14  O   UNL     1       8.269   6.796  -3.381  0.00  0.00    +0.000 OA
ATOM     15  H   UNL     1       9.203   7.553  -0.439  0.00  0.00    +0.000 HD
ATOM     16  H   UNL     1       9.024   8.550  -1.835  0.00  0.00    +0.000 HD
ENDBRANCH   8  12
ENDBRANCH   1   4
BRANCH   1  20
ATOM     17  C   UNL     1       3.736  -0.348   0.184  0.00  0.00    +0.000 A 
ATOM     18  C   UNL     1       4.689  -0.759   1.120  0.00  0.00    +0.000 A 
ATOM     19  C   UNL     1       6.052  -0.570   0.868  0.00  0.00    +0.000 A 
ATOM     20  C   UNL     1       6.507   0.018  -0.326  0.00  0.00    +0.000 A 
ATOM     21  C   UNL     1       5.533   0.422  -1.257  0.00  0.00    +0.000 A 
ATOM     22  C   UNL     1       4.169   0.248  -1.002  0.00  0.00    +0.000 A 
BRANCH  17  24
ATOM     23  N   UNL     1       1.228  -0.701   0.751  0.00  0.00    +0.000 NA
ATOM     24  C   UNL     1       2.341  -0.533   0.470  0.00  0.00    +0.000 C 
ENDBRANCH  17  24
BRANCH  22  25
ATOM     25  O   UNL     1       3.248   0.674  -1.918  0.00  0.00    +0.000 OA
ATOM     26  H   UNL     1       3.703   1.170  -2.620  0.00  0.00    +0.000 HD
ENDBRANCH  22  25
ENDBRANCH   1  20
TORSDOF 5
