REMARK  Name = 
REMARK  7 active torsions:
REMARK  status: ('A' for Active; 'I' for Inactive)
REMARK    1  A    between atoms: C_1  and  C_2
REMARK    2  A    between atoms: C_2  and  N_3
REMARK    3  A    between atoms: C_2  and  C_16
REMARK    4  A    between atoms: C_4  and  C_6
REMARK    5  A    between atoms: C_19  and  C_20
REMARK    6  A    between atoms: C_20  and  N_21
REMARK    7  A    between atoms: C_22  and  C_24
REMARK                            x       y       z     vdW  Elec       q    Type
REMARK                         _______ _______ _______ _____ _____    ______ ____
ROOT
ATOM      1  C   UNL     1       3.369   0.113  -1.296  0.00  0.00    +0.000 C 
ATOM      2  C   UNL     1       2.418   0.094  -0.093  0.00  0.00    +0.000 C 
ENDROOT
BRANCH   2   3
ATOM      3  C   UNL     1       2.813  -1.020   0.874  0.00  0.00    +0.000 A 
ATOM      4  C   UNL     1       3.228  -0.732   2.182  0.00  0.00    +0.000 A 
ATOM      5  C   UNL     1       3.540  -1.766   3.079  0.00  0.00    +0.000 A 
ATOM      6  C   UNL     1       3.450  -3.109   2.688  0.00  0.00    +0.000 A 
ATOM      7  C   UNL     1       3.041  -3.398   1.381  0.00  0.00    +0.000 A 
ATOM      8  C   UNL     1       2.734  -2.368   0.486  0.00  0.00    +0.000 A 
BRANCH   6   9
ATOM      9  C   UNL     1       3.752  -4.228   3.653  0.00  0.00    +0.000 C 
BRANCH   9  10
ATOM     10  N   UNL     1       2.572  -4.629   4.387  0.00  0.00    +0.000 N 
ATOM     11  C   UNL     1       2.597  -5.683   5.271  0.00  0.00    +0.000 C 
ATOM     12  O   UNL     1       3.607  -6.349   5.474  0.00  0.00    +0.000 OA
ATOM     13  H   UNL     1       1.739  -4.070   4.283  0.00  0.00    +0.000 HD
BRANCH  11  14
ATOM     14  C   UNL     1       1.352  -5.948   5.946  0.00  0.00    +0.000 A 
ATOM     15  C   UNL     1       0.097  -5.374   5.878  0.00  0.00    +0.000 A 
ATOM     16  N   UNL     1      -0.787  -5.984   6.733  0.00  0.00    +0.000 NA
ATOM     17  C   UNL     1      -0.093  -6.925   7.328  0.00  0.00    +0.000 A 
ATOM     18  N   UNL     1       1.198  -6.949   6.886  0.00  0.00    +0.000 N 
ATOM     19  H   UNL     1       1.928  -7.580   7.187  0.00  0.00    +0.000 HD
ENDBRANCH  11  14
ENDBRANCH   9  10
ENDBRANCH   6   9
ENDBRANCH   2   3
BRANCH   2  20
ATOM     20  N   UNL     1       1.025  -0.092  -0.480  0.00  0.00    +0.000 N 
ATOM     21  C   UNL     1       0.341   0.757  -1.313  0.00  0.00    +0.000 C 
ATOM     22  O   UNL     1       0.862   1.734  -1.842  0.00  0.00    +0.000 OA
ATOM     23  H   UNL     1       0.475  -0.669   0.150  0.00  0.00    +0.000 HD
BRANCH  21  24
ATOM     24  C   UNL     1      -1.053   0.396  -1.601  0.00  0.00    +0.000 A 
ATOM     25  C   UNL     1      -1.627   0.772  -2.809  0.00  0.00    +0.000 A 
ATOM     26  S   UNL     1      -3.253   0.282  -2.976  0.00  0.00    +0.000 S 
ATOM     27  C   UNL     1      -3.257  -0.418  -1.425  0.00  0.00    +0.000 A 
ATOM     28  N   UNL     1      -4.383  -0.986  -0.915  0.00  0.00    +0.000 NA
ATOM     29  C   UNL     1      -4.252  -1.449   0.283  0.00  0.00    +0.000 A 
ATOM     30  N   UNL     1      -3.090  -1.414   1.010  0.00  0.00    +0.000 N 
ATOM     31  C   UNL     1      -1.918  -0.893   0.520  0.00  0.00    +0.000 A 
ATOM     32  O   UNL     1      -0.875  -0.947   1.162  0.00  0.00    +0.000 OA
ATOM     33  C   UNL     1      -2.023  -0.317  -0.807  0.00  0.00    +0.000 A 
ATOM     34  H   UNL     1      -3.047  -1.819   1.934  0.00  0.00    +0.000 HD
ENDBRANCH  21  24
ENDBRANCH   2  20
TORSDOF 6
