REMARK  Name = 
REMARK  9 active torsions:
REMARK  status: ('A' for Active; 'I' for Inactive)
REMARK    1  A    between atoms: N_1  and  C_2
REMARK    2  A    between atoms: C_2  and  N_3
REMARK    3  A    between atoms: C_2  and  C_19
REMARK    4  A    between atoms: N_3  and  C_4
REMARK    5  A    between atoms: C_4  and  C_5
REMARK    6  A    between atoms: C_8  and  C_9
REMARK    7  A    between atoms: C_9  and  N_10
REMARK    8  A    between atoms: N_10  and  C_11
REMARK    9  A    between atoms: C_11  and  C_12
REMARK                            x       y       z     vdW  Elec       q    Type
REMARK                         _______ _______ _______ _____ _____    ______ ____
ROOT
ATOM      1  N   UNL     1       2.748   2.275  -1.773  0.00  0.00    +0.000 NA
ATOM      2  H   UNL     1       2.289   3.025  -2.300  0.00  0.00    +0.000 HD
ENDROOT
BRANCH   1   3
ATOM      3  C   UNL     1       2.272   1.028  -2.329  0.00  0.00    +0.000 C 
BRANCH   3   4
ATOM      4  C   UNL     1       2.686   0.888  -3.791  0.00  0.00    +0.000 A 
ATOM      5  C   UNL     1       3.064  -0.326  -4.360  0.00  0.00    +0.000 A 
ATOM      6  S   UNL     1       3.599  -0.209  -5.972  0.00  0.00    +0.000 S 
ATOM      7  C   UNL     1       3.280   1.459  -6.006  0.00  0.00    +0.000 A 
ATOM      8  N   UNL     1       3.551   2.195  -7.119  0.00  0.00    +0.000 NA
ATOM      9  C   UNL     1       3.250   3.446  -7.011  0.00  0.00    +0.000 A 
ATOM     10  N   UNL     1       2.673   4.021  -5.907  0.00  0.00    +0.000 N 
ATOM     11  C   UNL     1       2.332   3.306  -4.780  0.00  0.00    +0.000 A 
ATOM     12  O   UNL     1       1.714   3.821  -3.852  0.00  0.00    +0.000 OA
ATOM     13  C   UNL     1       2.732   1.910  -4.819  0.00  0.00    +0.000 A 
ATOM     14  H   UNL     1       2.421   4.997  -5.915  0.00  0.00    +0.000 HD
ENDBRANCH   3   4
BRANCH   3  15
ATOM     15  N   UNL     1       2.976  -0.009  -1.610  0.00  0.00    +0.000 NA
ATOM     16  H   UNL     1       2.644  -0.052  -0.654  0.00  0.00    +0.000 HD
ATOM     17  H   UNL     1       3.940   0.321  -1.551  0.00  0.00    +0.000 HD
ENDBRANCH   3  15
ENDBRANCH   1   3
BRANCH   1  18
ATOM     18  C   UNL     1       2.386   2.479  -0.358  0.00  0.00    +0.000 C 
BRANCH  18  19
ATOM     19  C   UNL     1       2.818   3.828   0.187  0.00  0.00    +0.000 A 
ATOM     20  C   UNL     1       2.240   5.000  -0.291  0.00  0.00    +0.000 A 
ATOM     21  C   UNL     1       2.629   6.214   0.266  0.00  0.00    +0.000 A 
ATOM     22  C   UNL     1       3.576   6.242   1.294  0.00  0.00    +0.000 A 
ATOM     23  C   UNL     1       4.104   5.025   1.701  0.00  0.00    +0.000 A 
ATOM     24  N   UNL     1       3.747   3.830   1.178  0.00  0.00    +0.000 NA
BRANCH  22  25
ATOM     25  C   UNL     1       3.991   7.536   1.939  0.00  0.00    +0.000 C 
BRANCH  25  26
ATOM     26  N   UNL     1       2.831   8.201   2.531  0.00  0.00    +0.000 NA
ATOM     27  H   UNL     1       2.421   7.577   3.228  0.00  0.00    +0.000 HD
BRANCH  26  28
ATOM     28  C   UNL     1       3.202   9.445   3.190  0.00  0.00    +0.000 C 
BRANCH  28  29
ATOM     29  C   UNL     1       1.977  10.048   3.763  0.00  0.00    +0.000 A 
ATOM     30  C   UNL     1       1.626  10.414   5.044  0.00  0.00    +0.000 A 
ATOM     31  N   UNL     1       0.354  10.926   5.075  0.00  0.00    +0.000 NA
ATOM     32  C   UNL     1      -0.075  10.869   3.836  0.00  0.00    +0.000 A 
ATOM     33  N   UNL     1       0.872  10.350   3.003  0.00  0.00    +0.000 N 
ATOM     34  H   UNL     1       0.774  10.172   2.012  0.00  0.00    +0.000 HD
ENDBRANCH  28  29
ENDBRANCH  26  28
ENDBRANCH  25  26
ENDBRANCH  22  25
ENDBRANCH  18  19
ENDBRANCH   1  18
TORSDOF 9
