REMARK  Name = 
REMARK  11 active torsions:
REMARK  status: ('A' for Active; 'I' for Inactive)
REMARK    1  A    between atoms: C_1  and  O_2
REMARK    2  A    between atoms: O_2  and  C_3
REMARK    3  A    between atoms: C_10  and  C_11
REMARK    4  A    between atoms: N_13  and  C_14
REMARK    5  A    between atoms: C_14  and  C_15
REMARK    6  A    between atoms: C_18  and  C_19
REMARK    7  A    between atoms: C_19  and  N_20
REMARK    8  A    between atoms: N_20  and  CA_21
REMARK    9  A    between atoms: CA_21  and  C_22
REMARK   10  A    between atoms: CA_21  and  C_24
REMARK   11  A    between atoms: C_22  and  O_23
REMARK                            x       y       z     vdW  Elec       q    Type
REMARK                         _______ _______ _______ _____ _____    ______ ____
ROOT
ATOM      1  C   UNL     1       1.765   3.202   1.178  0.00  0.00    +0.000 A 
ATOM      2  C   UNL     1       0.734   2.295   0.899  0.00  0.00    +0.000 A 
ATOM      3  C   UNL     1      -0.369   2.683   0.129  0.00  0.00    +0.000 A 
ATOM      4  C   UNL     1      -0.467   3.985  -0.384  0.00  0.00    +0.000 A 
ATOM      5  C   UNL     1       0.543   4.903  -0.065  0.00  0.00    +0.000 A 
ATOM      6  C   UNL     1       1.649   4.514   0.702  0.00  0.00    +0.000 A 
ENDROOT
BRANCH   1   7
ATOM      7  C   UNL     1       3.000   2.757   1.920  0.00  0.00    +0.000 C 
BRANCH   7  10
ATOM      8  C   UNL     1       5.188   1.730   1.489  0.00  0.00    +0.000 C 
ATOM      9  O   UNL     1       5.440   1.744   2.696  0.00  0.00    +0.000 OA
ATOM     10  N   UNL     1       4.000   2.224   1.019  0.00  0.00    +0.000 N 
ATOM     11  H   UNL     1       3.791   2.204   0.029  0.00  0.00    +0.000 HD
BRANCH   8  19
ATOM     12  C   UNL     1       5.185   1.348  -1.943  0.00  0.00    +0.000 A 
ATOM     13  N   UNL     1       5.432   1.045  -3.235  0.00  0.00    +0.000 NA
ATOM     14  C   UNL     1       6.589   0.448  -3.533  0.00  0.00    +0.000 A 
ATOM     15  N   UNL     1       7.555   0.113  -2.684  0.00  0.00    +0.000 NA
ATOM     16  C   UNL     1       7.263   0.418  -1.408  0.00  0.00    +0.000 A 
ATOM     17  S   UNL     1       8.389   0.063  -0.189  0.00  0.00    +0.000 S 
ATOM     18  C   UNL     1       7.360   0.687   1.008  0.00  0.00    +0.000 A 
ATOM     19  C   UNL     1       6.151   1.175   0.521  0.00  0.00    +0.000 A 
ATOM     20  C   UNL     1       6.102   1.022  -0.931  0.00  0.00    +0.000 A 
BRANCH  12  22
ATOM     21  C   UNL     1       3.482   2.723  -2.743  0.00  0.00    +0.000 C 
ATOM     22  O   UNL     1       3.992   1.973  -1.641  0.00  0.00    +0.000 OA
ENDBRANCH  12  22
ENDBRANCH   8  19
ENDBRANCH   7  10
ENDBRANCH   1   7
BRANCH   4  23
ATOM     23  C   UNL     1      -1.590   4.366  -1.332  0.00  0.00    +0.000 C 
BRANCH  23  24
ATOM     24  N   UNL     1      -2.904   4.191  -0.718  0.00  0.00    +0.000 NA
ATOM     25  H   UNL     1      -2.936   4.784   0.113  0.00  0.00    +0.000 HD
BRANCH  24  26
ATOM     26  CA  UNL     1      -4.033   4.595  -1.596  0.00  0.00    +0.000 C 
BRANCH  26  27
ATOM     27  C   UNL     1      -5.378   4.492  -0.861  0.00  0.00    +0.000 A 
ATOM     28  C   UNL     1      -5.593   3.555   0.150  0.00  0.00    +0.000 A 
ATOM     29  C   UNL     1      -6.846   3.483   0.754  0.00  0.00    +0.000 A 
ATOM     30  C   UNL     1      -7.858   4.334   0.329  0.00  0.00    +0.000 A 
ATOM     31  C   UNL     1      -7.576   5.222  -0.693  0.00  0.00    +0.000 A 
ATOM     32  N   UNL     1      -6.372   5.312  -1.300  0.00  0.00    +0.000 NA
ENDBRANCH  26  27
BRANCH  26  33
ATOM     33  C   UNL     1      -4.156   3.783  -2.915  0.00  0.00    +0.000 C 
BRANCH  33  34
ATOM     34  O   UNL     1      -5.183   4.272  -3.786  0.00  0.00    +0.000 OA
ATOM     35  H   UNL     1      -5.964   4.473  -3.230  0.00  0.00    +0.000 HD
ENDBRANCH  33  34
ENDBRANCH  26  33
ENDBRANCH  24  26
ENDBRANCH  23  24
ENDBRANCH   4  23
TORSDOF 10
