REMARK  Name = 
REMARK  8 active torsions:
REMARK  status: ('A' for Active; 'I' for Inactive)
REMARK    1  A    between atoms: C_1  and  C_2
REMARK    2  A    between atoms: C_2  and  N_3
REMARK    3  A    between atoms: C_2  and  C_16
REMARK    4  A    between atoms: C_4  and  C_6
REMARK    5  A    between atoms: C_19  and  C_20
REMARK    6  A    between atoms: C_20  and  O_21
REMARK    7  A    between atoms: O_21  and  C_22
REMARK    8  A    between atoms: C_22  and  C_23
REMARK                            x       y       z     vdW  Elec       q    Type
REMARK                         _______ _______ _______ _____ _____    ______ ____
ROOT
ATOM      1  C   UNL     1       1.188  -0.766  -0.667  0.00  0.00    +0.000 C 
ATOM      2  C   UNL     1       2.440  -0.098  -0.094  0.00  0.00    +0.000 C 
ENDROOT
BRANCH   2   3
ATOM      3  C   UNL     1       2.942   0.954  -1.071  0.00  0.00    +0.000 A 
ATOM      4  C   UNL     1       2.488   2.275  -0.932  0.00  0.00    +0.000 A 
ATOM      5  C   UNL     1       2.855   3.259  -1.850  0.00  0.00    +0.000 A 
ATOM      6  C   UNL     1       3.695   2.950  -2.925  0.00  0.00    +0.000 A 
ATOM      7  C   UNL     1       4.162   1.640  -3.066  0.00  0.00    +0.000 A 
ATOM      8  C   UNL     1       3.777   0.650  -2.158  0.00  0.00    +0.000 A 
BRANCH   6   9
ATOM      9  C   UNL     1       4.109   4.025  -3.899  0.00  0.00    +0.000 C 
BRANCH   9  10
ATOM     10  O   UNL     1       4.743   5.124  -3.242  0.00  0.00    +0.000 OA
BRANCH  10  11
ATOM     11  C   UNL     1       5.999   4.765  -2.671  0.00  0.00    +0.000 C 
BRANCH  11  12
ATOM     12  C   UNL     1       6.617   5.983  -2.044  0.00  0.00    +0.000 A 
ATOM     13  C   UNL     1       6.815   6.051  -0.662  0.00  0.00    +0.000 A 
ATOM     14  C   UNL     1       7.410   7.184  -0.132  0.00  0.00    +0.000 A 
ATOM     15  N   UNL     1       7.814   8.240  -0.872  0.00  0.00    +0.000 NA
ATOM     16  C   UNL     1       7.597   8.158  -2.204  0.00  0.00    +0.000 A 
ATOM     17  C   UNL     1       7.013   7.069  -2.827  0.00  0.00    +0.000 A 
ENDBRANCH  11  12
ENDBRANCH  10  11
ENDBRANCH   9  10
ENDBRANCH   6   9
ENDBRANCH   2   3
BRANCH   2  18
ATOM     18  N   UNL     1       3.451  -1.083   0.247  0.00  0.00    +0.000 N 
ATOM     19  C   UNL     1       3.390  -1.831   1.395  0.00  0.00    +0.000 C 
ATOM     20  O   UNL     1       2.506  -1.666   2.232  0.00  0.00    +0.000 OA
ATOM     21  H   UNL     1       4.242  -1.196  -0.375  0.00  0.00    +0.000 HD
BRANCH  19  22
ATOM     22  C   UNL     1       4.403  -2.883   1.556  0.00  0.00    +0.000 A 
ATOM     23  C   UNL     1       4.172  -3.915   2.457  0.00  0.00    +0.000 A 
ATOM     24  S   UNL     1       5.425  -5.068   2.517  0.00  0.00    +0.000 S 
ATOM     25  C   UNL     1       6.346  -4.207   1.375  0.00  0.00    +0.000 A 
ATOM     26  N   UNL     1       7.576  -4.648   0.996  0.00  0.00    +0.000 NA
ATOM     27  C   UNL     1       8.182  -3.882   0.152  0.00  0.00    +0.000 A 
ATOM     28  N   UNL     1       7.664  -2.721  -0.357  0.00  0.00    +0.000 N 
ATOM     29  C   UNL     1       6.400  -2.276  -0.058  0.00  0.00    +0.000 A 
ATOM     30  O   UNL     1       5.922  -1.302  -0.631  0.00  0.00    +0.000 OA
ATOM     31  C   UNL     1       5.691  -3.073   0.927  0.00  0.00    +0.000 A 
ATOM     32  H   UNL     1       8.177  -2.183  -1.040  0.00  0.00    +0.000 HD
ENDBRANCH  19  22
ENDBRANCH   2  18
TORSDOF 7
