REMARK  Name = 
REMARK  10 active torsions:
REMARK  status: ('A' for Active; 'I' for Inactive)
REMARK    1  A    between atoms: C_2  and  C_23
REMARK    2  A    between atoms: N_3  and  C_4
REMARK    3  A    between atoms: C_4  and  C_5
REMARK    4  A    between atoms: C_8  and  C_9
REMARK    5  A    between atoms: C_9  and  N_10
REMARK    6  A    between atoms: N_10  and  C_11
REMARK    7  A    between atoms: N_10  and  C_14
REMARK    8  A    between atoms: C_11  and  C_12
REMARK    9  A    between atoms: C_12  and  O_13
REMARK   10  A    between atoms: C_14  and  C_15
REMARK                            x       y       z     vdW  Elec       q    Type
REMARK                         _______ _______ _______ _____ _____    ______ ____
ROOT
ATOM      1  C   UNL     1       3.076   2.921  -2.488  0.00  0.00    +0.000 A 
ATOM      2  C   UNL     1       2.629   4.225  -2.667  0.00  0.00    +0.000 A 
ATOM      3  C   UNL     1       3.484   5.157  -3.247  0.00  0.00    +0.000 A 
ATOM      4  C   UNL     1       4.783   4.783  -3.603  0.00  0.00    +0.000 A 
ATOM      5  C   UNL     1       5.152   3.466  -3.361  0.00  0.00    +0.000 A 
ATOM      6  N   UNL     1       4.337   2.532  -2.810  0.00  0.00    +0.000 NA
ENDROOT
BRANCH   1   7
ATOM      7  C   UNL     1       2.170   1.899  -1.833  0.00  0.00    +0.000 C 
BRANCH   7  10
ATOM      8  O   UNL     1       0.521   3.330  -0.009  0.00  0.00    +0.000 OA
ATOM      9  C   UNL     1       1.520   2.740   0.387  0.00  0.00    +0.000 C 
ATOM     10  N   UNL     1       2.315   1.936  -0.400  0.00  0.00    +0.000 N 
ATOM     11  H   UNL     1       3.259   1.767  -0.084  0.00  0.00    +0.000 HD
BRANCH   9  12
ATOM     12  C   UNL     1       2.148   3.003   1.670  0.00  0.00    +0.000 A 
ATOM     13  C   UNL     1       2.224   4.275   2.210  0.00  0.00    +0.000 A 
ATOM     14  S   UNL     1       3.562   4.408   3.277  0.00  0.00    +0.000 S 
ATOM     15  C   UNL     1       3.876   2.733   3.178  0.00  0.00    +0.000 A 
ATOM     16  N   UNL     1       4.976   2.162   3.738  0.00  0.00    +0.000 NA
ATOM     17  C   UNL     1       5.014   0.874   3.625  0.00  0.00    +0.000 A 
ATOM     18  N   UNL     1       4.037   0.097   3.055  0.00  0.00    +0.000 N 
ATOM     19  C   UNL     1       2.913   0.632   2.448  0.00  0.00    +0.000 A 
ATOM     20  O   UNL     1       2.033  -0.071   1.972  0.00  0.00    +0.000 OA
ATOM     21  C   UNL     1       2.902   2.078   2.460  0.00  0.00    +0.000 A 
ATOM     22  H   UNL     1       4.086  -0.908   3.087  0.00  0.00    +0.000 HD
ENDBRANCH   9  12
ENDBRANCH   7  10
ENDBRANCH   1   7
BRANCH   4  23
ATOM     23  C   UNL     1       5.767   5.802  -4.123  0.00  0.00    +0.000 C 
BRANCH  23  24
ATOM     24  N   UNL     1       6.368   5.497  -5.442  0.00  0.00    +0.000 NA
BRANCH  24  25
ATOM     25  C   UNL     1       5.331   5.471  -6.503  0.00  0.00    +0.000 C 
BRANCH  25  26
ATOM     26  C   UNL     1       5.841   5.118  -7.914  0.00  0.00    +0.000 C 
BRANCH  26  27
ATOM     27  O   UNL     1       4.753   5.037  -8.833  0.00  0.00    +0.000 OA
ATOM     28  H   UNL     1       4.392   4.138  -8.774  0.00  0.00    +0.000 HD
ENDBRANCH  26  27
ENDBRANCH  25  26
ENDBRANCH  24  25
BRANCH  24  29
ATOM     29  C   UNL     1       7.380   6.553  -5.756  0.00  0.00    +0.000 C 
BRANCH  29  30
ATOM     30  C   UNL     1       8.576   6.666  -4.817  0.00  0.00    +0.000 A 
ATOM     31  N   UNL     1       9.663   5.911  -5.084  0.00  0.00    +0.000 NA
ATOM     32  C   UNL     1      10.737   6.108  -4.297  0.00  0.00    +0.000 A 
ATOM     33  C   UNL     1      10.767   7.013  -3.264  0.00  0.00    +0.000 A 
ATOM     34  C   UNL     1       9.605   7.717  -3.059  0.00  0.00    +0.000 A 
ATOM     35  N   UNL     1       8.501   7.569  -3.815  0.00  0.00    +0.000 NA
ENDBRANCH  29  30
ENDBRANCH  24  29
ENDBRANCH  23  24
ENDBRANCH   4  23
TORSDOF 10
