REMARK  Name = 
REMARK  5 active torsions:
REMARK  status: ('A' for Active; 'I' for Inactive)
REMARK    1  A    between atoms: N_1  and  C_2
REMARK    2  A    between atoms: C_2  and  C_3
REMARK    3  A    between atoms: C_3  and  C_4
REMARK    4  A    between atoms: C_7  and  C_8
REMARK    5  A    between atoms: C_8  and  N_9
REMARK                            x       y       z     vdW  Elec       q    Type
REMARK                         _______ _______ _______ _____ _____    ______ ____
ROOT
ATOM      1  C   UNL     1       4.472  -1.350   0.093  0.00  0.00    +0.000 A 
ATOM      2  C   UNL     1       5.168  -0.141  -0.023  0.00  0.00    +0.000 A 
ATOM      3  C   UNL     1       6.564  -0.110   0.066  0.00  0.00    +0.000 A 
ATOM      4  C   UNL     1       7.296  -1.289   0.267  0.00  0.00    +0.000 A 
ATOM      5  C   UNL     1       6.597  -2.502   0.353  0.00  0.00    +0.000 A 
ATOM      6  C   UNL     1       5.202  -2.532   0.261  0.00  0.00    +0.000 A 
ENDROOT
BRANCH   1   7
ATOM      7  C   UNL     1       2.962  -1.379   0.058  0.00  0.00    +0.000 C 
BRANCH   7   8
ATOM      8  C   UNL     1       2.399  -1.569  -1.354  0.00  0.00    +0.000 C 
BRANCH   8   9
ATOM      9  N   UNL     1       0.936  -1.605  -1.335  0.00  0.00    +0.000 NA
ATOM     10  H   UNL     1       0.589  -1.727  -2.286  0.00  0.00    +0.000 HD
ATOM     11  H   UNL     1       0.573  -0.708  -1.014  0.00  0.00    +0.000 HD
ENDBRANCH   8   9
ENDBRANCH   7   8
ENDBRANCH   1   7
BRANCH   4  12
ATOM     12  C   UNL     1       8.800  -1.258   0.382  0.00  0.00    +0.000 C 
BRANCH  12  13
ATOM     13  N   UNL     1       9.263  -1.095   1.759  0.00  0.00    +0.000 N 
ATOM     14  C   UNL     1       9.491  -2.142   2.626  0.00  0.00    +0.000 A 
ATOM     15  C   UNL     1      10.071  -1.636   3.768  0.00  0.00    +0.000 A 
ATOM     16  C   UNL     1      10.210  -0.242   3.590  0.00  0.00    +0.000 A 
ATOM     17  N   UNL     1      10.755   0.667   4.434  0.00  0.00    +0.000 NA
ATOM     18  C   UNL     1      10.763   1.935   3.977  0.00  0.00    +0.000 A 
ATOM     19  C   UNL     1      10.261   2.351   2.753  0.00  0.00    +0.000 A 
ATOM     20  C   UNL     1       9.701   1.412   1.890  0.00  0.00    +0.000 A 
ATOM     21  C   UNL     1       9.691   0.085   2.334  0.00  0.00    +0.000 A 
ENDBRANCH  12  13
ENDBRANCH   4  12
TORSDOF 5
