REMARK  Name = 
REMARK  5 active torsions:
REMARK  status: ('A' for Active; 'I' for Inactive)
REMARK    1  A    between atoms: C_2  and  C_4
REMARK    2  A    between atoms: C_7  and  N_8
REMARK    3  A    between atoms: N_8  and  C_9
REMARK    4  A    between atoms: C_9  and  C_10
REMARK    5  A    between atoms: C_14  and  C_15
REMARK                            x       y       z     vdW  Elec       q    Type
REMARK                         _______ _______ _______ _____ _____    ______ ____
ROOT
ATOM      1  N   UNL     1       5.740  -3.877   2.438  0.00  0.00    +0.000 N 
ATOM      2  H   UNL     1       6.307  -3.405   3.143  0.00  0.00    +0.000 HD
ENDROOT
BRANCH   1   6
ATOM      3  C   UNL     1       2.966  -1.212   0.705  0.00  0.00    +0.000 A 
ATOM      4  C   UNL     1       2.536  -2.084   1.710  0.00  0.00    +0.000 A 
ATOM      5  C   UNL     1       3.446  -2.962   2.315  0.00  0.00    +0.000 A 
ATOM      6  C   UNL     1       4.785  -3.000   1.909  0.00  0.00    +0.000 A 
ATOM      7  C   UNL     1       5.217  -2.067   0.961  0.00  0.00    +0.000 A 
ATOM      8  C   UNL     1       4.315  -1.198   0.342  0.00  0.00    +0.000 A 
BRANCH   3  10
ATOM      9  N   UNL     1       0.881   0.051   0.596  0.00  0.00    +0.000 N 
ATOM     10  C   UNL     1       2.028  -0.331  -0.039  0.00  0.00    +0.000 C 
ATOM     11  O   UNL     1       2.277   0.060  -1.172  0.00  0.00    +0.000 OA
ATOM     12  H   UNL     1       0.306   0.724   0.105  0.00  0.00    +0.000 HD
ATOM     13  H   UNL     1       0.757  -0.034   1.595  0.00  0.00    +0.000 HD
ENDBRANCH   3  10
ENDBRANCH   1   6
BRANCH   1  14
ATOM     14  C   UNL     1       5.289  -5.190   2.885  0.00  0.00    +0.000 C 
BRANCH  14  15
ATOM     15  C   UNL     1       6.408  -6.198   2.813  0.00  0.00    +0.000 A 
ATOM     16  C   UNL     1       6.379  -7.319   3.635  0.00  0.00    +0.000 A 
ATOM     17  N   UNL     1       7.297  -8.312   3.604  0.00  0.00    +0.000 NA
ATOM     18  C   UNL     1       8.294  -8.197   2.698  0.00  0.00    +0.000 A 
ATOM     19  C   UNL     1       8.418  -7.136   1.814  0.00  0.00    +0.000 A 
ATOM     20  C   UNL     1       7.447  -6.129   1.875  0.00  0.00    +0.000 A 
BRANCH  19  21
ATOM     21  C   UNL     1       9.545  -7.086   0.831  0.00  0.00    +0.000 C 
ATOM     22  F   UNL     1      10.396  -8.146   0.922  0.00  0.00    +0.000 F 
ATOM     23  F   UNL     1       9.115  -7.066  -0.460  0.00  0.00    +0.000 F 
ATOM     24  F   UNL     1      10.321  -5.977   0.983  0.00  0.00    +0.000 F 
ENDBRANCH  19  21
ENDBRANCH  14  15
ENDBRANCH   1  14
TORSDOF 5
