REMARK  Name = 
REMARK  5 active torsions:
REMARK  status: ('A' for Active; 'I' for Inactive)
REMARK    1  A    between atoms: N_1  and  C_2
REMARK    2  A    between atoms: C_2  and  C_3
REMARK    3  A    between atoms: C_3  and  C_4
REMARK    4  A    between atoms: C_7  and  C_8
REMARK    5  A    between atoms: C_8  and  N_9
REMARK                            x       y       z     vdW  Elec       q    Type
REMARK                         _______ _______ _______ _____ _____    ______ ____
ROOT
ATOM      1  C   UNL     1       4.515   0.822  -1.387  0.00  0.00    +0.000 A 
ATOM      2  C   UNL     1       5.215   1.925  -0.902  0.00  0.00    +0.000 A 
ATOM      3  C   UNL     1       6.606   1.870  -0.839  0.00  0.00    +0.000 A 
ATOM      4  C   UNL     1       7.271   0.714  -1.246  0.00  0.00    +0.000 A 
ATOM      5  C   UNL     1       6.494  -0.318  -1.755  0.00  0.00    +0.000 A 
ATOM      6  N   UNL     1       5.142  -0.289  -1.829  0.00  0.00    +0.000 NA
ENDROOT
BRANCH   1   7
ATOM      7  C   UNL     1       3.006   0.801  -1.368  0.00  0.00    +0.000 C 
BRANCH   7   8
ATOM      8  C   UNL     1       2.483   0.186  -0.064  0.00  0.00    +0.000 C 
BRANCH   8   9
ATOM      9  N   UNL     1       1.018   0.154  -0.034  0.00  0.00    +0.000 NA
ATOM     10  H   UNL     1       0.713  -0.296   0.829  0.00  0.00    +0.000 HD
ATOM     11  H   UNL     1       0.681  -0.443  -0.791  0.00  0.00    +0.000 HD
ENDBRANCH   8   9
ENDBRANCH   7   8
ENDBRANCH   1   7
BRANCH   4  12
ATOM     12  C   UNL     1       8.736   0.515  -0.994  0.00  0.00    +0.000 C 
BRANCH  12  13
ATOM     13  N   UNL     1       9.632   0.880  -2.089  0.00  0.00    +0.000 N 
ATOM     14  C   UNL     1       9.927   0.033  -3.133  0.00  0.00    +0.000 A 
ATOM     15  C   UNL     1      11.225   0.283  -3.521  0.00  0.00    +0.000 A 
ATOM     16  C   UNL     1      11.694   1.396  -2.773  0.00  0.00    +0.000 A 
ATOM     17  C   UNL     1      12.918   2.072  -2.692  0.00  0.00    +0.000 A 
ATOM     18  N   UNL     1      13.047   3.177  -1.917  0.00  0.00    +0.000 NA
ATOM     19  C   UNL     1      11.972   3.618  -1.230  0.00  0.00    +0.000 A 
ATOM     20  C   UNL     1      10.734   2.990  -1.200  0.00  0.00    +0.000 A 
ATOM     21  C   UNL     1      10.630   1.835  -1.978  0.00  0.00    +0.000 A 
ENDBRANCH  12  13
ENDBRANCH   4  12
TORSDOF 5
