REMARK  Name = 
REMARK  4 active torsions:
REMARK  status: ('A' for Active; 'I' for Inactive)
REMARK    1  A    between atoms: C_2  and  C_3
REMARK    2  A    between atoms: C_6  and  C_7
REMARK    3  A    between atoms: C_7  and  N_8
REMARK    4  A    between atoms: C_12  and  C_13
REMARK                            x       y       z     vdW  Elec       q    Type
REMARK                         _______ _______ _______ _____ _____    ______ ____
ROOT
ATOM      1  N   UNL     1      -3.151  -1.328  -1.208  0.00  0.00    +0.000 N 
ATOM      2  C   UNL     1      -4.004  -0.250  -1.012  0.00  0.00    +0.000 A 
ATOM      3  N   UNL     1      -4.080   0.576  -2.071  0.00  0.00    +0.000 NA
ATOM      4  C   UNL     1      -5.012   1.553  -2.037  0.00  0.00    +0.000 A 
ATOM      5  C   UNL     1      -5.888   1.724  -0.993  0.00  0.00    +0.000 A 
ATOM      6  C   UNL     1      -5.701   0.869   0.065  0.00  0.00    +0.000 A 
ATOM      7  N   UNL     1      -4.766  -0.119   0.086  0.00  0.00    +0.000 NA
ATOM      8  H   UNL     1      -2.659  -1.154  -2.078  0.00  0.00    +0.000 HD
ENDROOT
BRANCH   5   9
ATOM      9  C   UNL     1      -6.924   2.766  -1.083  0.00  0.00    +0.000 C 
ATOM     10  N   UNL     1      -8.074   2.591  -0.367  0.00  0.00    +0.000 N 
ATOM     11  O   UNL     1      -6.787   3.728  -1.828  0.00  0.00    +0.000 OA
ATOM     12  H   UNL     1      -8.346   1.708   0.044  0.00  0.00    +0.000 HD
ATOM     13  H   UNL     1      -8.820   3.246  -0.574  0.00  0.00    +0.000 HD
ENDBRANCH   5   9
BRANCH   1  14
ATOM     14  C   UNL     1      -2.436  -2.062  -0.164  0.00  0.00    +0.000 C 
ATOM     15  C   UNL     1      -3.149  -2.918   0.867  0.00  0.00    +0.000 C 
ATOM     16  C   UNL     1      -2.520  -3.583  -0.310  0.00  0.00    +0.000 C 
BRANCH  14  20
ATOM     17  C   UNL     1       1.586  -0.691   0.879  0.00  0.00    +0.000 A 
ATOM     18  C   UNL     1       0.543  -0.597   1.801  0.00  0.00    +0.000 A 
ATOM     19  C   UNL     1      -0.751  -0.989   1.439  0.00  0.00    +0.000 A 
ATOM     20  C   UNL     1      -1.041  -1.505   0.159  0.00  0.00    +0.000 A 
ATOM     21  C   UNL     1       0.024  -1.524  -0.769  0.00  0.00    +0.000 A 
ATOM     22 CL   UNL     1      -0.217  -2.048  -2.403  0.00  0.00    +0.000 Cl
ATOM     23  C   UNL     1       1.319  -1.130  -0.417  0.00  0.00    +0.000 A 
BRANCH  17  25
ATOM     24  N   UNL     1       4.022  -0.128   1.572  0.00  0.00    +0.000 NA
ATOM     25  C   UNL     1       2.930  -0.367   1.263  0.00  0.00    +0.000 C 
ENDBRANCH  17  25
ENDBRANCH  14  20
ENDBRANCH   1  14
TORSDOF 4
