REMARK  Name = 
REMARK  5 active torsions:
REMARK  status: ('A' for Active; 'I' for Inactive)
REMARK    1  A    between atoms: N_1  and  C_2
REMARK    2  A    between atoms: C_2  and  C_17
REMARK    3  A    between atoms: C_3  and  C_4
REMARK    4  A    between atoms: C_7  and  C_8
REMARK    5  A    between atoms: C_8  and  N_9
REMARK                            x       y       z     vdW  Elec       q    Type
REMARK                         _______ _______ _______ _____ _____    ______ ____
ROOT
ATOM      1  C   UNL     1       2.636  -0.607   0.959  0.00  0.00    +0.000 C 
ATOM      2  C   UNL     1       3.248  -1.228  -0.074  0.00  0.00    +0.000 C 
ENDROOT
BRANCH   1   3
ATOM      3  C   UNL     1       3.166   0.630   1.472  0.00  0.00    +0.000 A 
ATOM      4  C   UNL     1       2.765   1.854   0.972  0.00  0.00    +0.000 A 
ATOM      5  S   UNL     1       3.562   3.161   1.738  0.00  0.00    +0.000 S 
ATOM      6  C   UNL     1       4.421   2.113   2.772  0.00  0.00    +0.000 A 
ATOM      7  N   UNL     1       5.309   2.580   3.689  0.00  0.00    +0.000 NA
ATOM      8  C   UNL     1       5.869   1.660   4.401  0.00  0.00    +0.000 A 
ATOM      9  N   UNL     1       5.623   0.315   4.288  0.00  0.00    +0.000 N 
ATOM     10  C   UNL     1       4.714  -0.209   3.394  0.00  0.00    +0.000 A 
ATOM     11  O   UNL     1       4.464  -1.412   3.367  0.00  0.00    +0.000 OA
ATOM     12  C   UNL     1       4.095   0.785   2.545  0.00  0.00    +0.000 A 
ATOM     13  H   UNL     1       6.073  -0.348   4.900  0.00  0.00    +0.000 HD
ENDBRANCH   1   3
BRANCH   2  14
ATOM     14  C   UNL     1       2.661  -2.354  -0.816  0.00  0.00    +0.000 A 
ATOM     15  C   UNL     1       1.768  -2.053  -1.852  0.00  0.00    +0.000 A 
ATOM     16  C   UNL     1       1.065  -3.066  -2.506  0.00  0.00    +0.000 A 
ATOM     17  C   UNL     1       1.241  -4.409  -2.149  0.00  0.00    +0.000 A 
ATOM     18  C   UNL     1       2.189  -4.713  -1.154  0.00  0.00    +0.000 A 
ATOM     19  C   UNL     1       2.891  -3.690  -0.491  0.00  0.00    +0.000 A 
BRANCH  17  20
ATOM     20  C   UNL     1       0.297  -5.463  -2.690  0.00  0.00    +0.000 C 
BRANCH  20  21
ATOM     21  N   UNL     1       0.581  -6.135  -3.951  0.00  0.00    +0.000 NA
ATOM     22  C   UNL     1       1.750  -7.011  -3.999  0.00  0.00    +0.000 C 
ATOM     23  C   UNL     1       3.025  -6.354  -4.554  0.00  0.00    +0.000 C 
ATOM     24  O   UNL     1       2.790  -5.677  -5.796  0.00  0.00    +0.000 OA
ATOM     25  C   UNL     1       1.748  -4.704  -5.661  0.00  0.00    +0.000 C 
ATOM     26  C   UNL     1       0.443  -5.353  -5.180  0.00  0.00    +0.000 C 
ENDBRANCH  20  21
ENDBRANCH  17  20
ENDBRANCH   2  14
BRANCH   1  27
ATOM     27  N   UNL     1       1.466  -1.061   1.545  0.00  0.00    +0.000 N 
ATOM     28  H   UNL     1       1.329  -2.058   1.391  0.00  0.00    +0.000 HD
ATOM     29  H   UNL     1       1.431  -0.839   2.537  0.00  0.00    +0.000 HD
ENDBRANCH   1  27
TORSDOF 5
