REMARK  Name = 
REMARK  9 active torsions:
REMARK  status: ('A' for Active; 'I' for Inactive)
REMARK    1  A    between atoms: C_1  and  O_2
REMARK    2  A    between atoms: O_2  and  C_3
REMARK    3  A    between atoms: C_5  and  C_6
REMARK    4  A    between atoms: C_6  and  N_7
REMARK    5  A    between atoms: N_7  and  C_8
REMARK    6  A    between atoms: C_8  and  C_9
REMARK    7  A    between atoms: C_17  and  C_18
REMARK    8  A    between atoms: C_18  and  N_19
REMARK    9  A    between atoms: C_20  and  C_22
REMARK                            x       y       z     vdW  Elec       q    Type
REMARK                         _______ _______ _______ _____ _____    ______ ____
ROOT
ATOM      1  C   UNL     1       3.053  -0.429  -1.219  0.00  0.00    +0.000 A 
ATOM      2  C   UNL     1       2.763   0.133  -2.470  0.00  0.00    +0.000 A 
ATOM      3  C   UNL     1       3.534  -0.177  -3.602  0.00  0.00    +0.000 A 
ATOM      4  C   UNL     1       4.605  -1.064  -3.468  0.00  0.00    +0.000 A 
ATOM      5  C   UNL     1       4.905  -1.622  -2.227  0.00  0.00    +0.000 A 
ATOM      6  C   UNL     1       4.140  -1.311  -1.090  0.00  0.00    +0.000 A 
ENDROOT
BRANCH   1   8
ATOM      7  C   UNL     1       1.034   0.368  -0.248  0.00  0.00    +0.000 C 
ATOM      8  O   UNL     1       2.350  -0.147  -0.074  0.00  0.00    +0.000 OA
ENDBRANCH   1   8
BRANCH   3   9
ATOM      9  C   UNL     1       3.170   0.389  -4.954  0.00  0.00    +0.000 C 
BRANCH   9  10
ATOM     10  N   UNL     1       2.249  -0.511  -5.642  0.00  0.00    +0.000 NA
ATOM     11  H   UNL     1       1.406  -0.616  -5.076  0.00  0.00    +0.000 HD
BRANCH  10  12
ATOM     12  C   UNL     1       1.869   0.013  -6.957  0.00  0.00    +0.000 C 
BRANCH  12  13
ATOM     13  C   UNL     1       0.921  -0.913  -7.685  0.00  0.00    +0.000 A 
ATOM     14  C   UNL     1       1.289  -2.228  -7.959  0.00  0.00    +0.000 A 
ATOM     15  N   UNL     1       0.485  -3.099  -8.617  0.00  0.00    +0.000 NA
ATOM     16  C   UNL     1      -0.714  -2.603  -8.990  0.00  0.00    +0.000 A 
ATOM     17  C   UNL     1      -1.092  -1.299  -8.723  0.00  0.00    +0.000 A 
ATOM     18  N   UNL     1      -0.291  -0.426  -8.068  0.00  0.00    +0.000 NA
ENDBRANCH  12  13
ENDBRANCH  10  12
ENDBRANCH   9  10
ENDBRANCH   3   9
BRANCH   6  19
ATOM     19  C   UNL     1       4.489  -1.977   0.219  0.00  0.00    +0.000 C 
BRANCH  19  20
ATOM     20  N   UNL     1       3.756  -3.203   0.424  0.00  0.00    +0.000 N 
ATOM     21  C   UNL     1       4.209  -4.431   0.025  0.00  0.00    +0.000 C 
ATOM     22  O   UNL     1       5.233  -4.578  -0.641  0.00  0.00    +0.000 OA
ATOM     23  H   UNL     1       2.940  -3.135   1.022  0.00  0.00    +0.000 HD
BRANCH  21  24
ATOM     24  C   UNL     1       3.394  -5.584   0.427  0.00  0.00    +0.000 A 
ATOM     25  C   UNL     1       3.421  -6.753  -0.322  0.00  0.00    +0.000 A 
ATOM     26  S   UNL     1       2.445  -7.996   0.319  0.00  0.00    +0.000 S 
ATOM     27  C   UNL     1       1.983  -7.030   1.641  0.00  0.00    +0.000 A 
ATOM     28  N   UNL     1       1.171  -7.520   2.617  0.00  0.00    +0.000 NA
ATOM     29  C   UNL     1       0.944  -6.696   3.585  0.00  0.00    +0.000 A 
ATOM     30  N   UNL     1       1.440  -5.422   3.657  0.00  0.00    +0.000 N 
ATOM     31  C   UNL     1       2.202  -4.859   2.660  0.00  0.00    +0.000 A 
ATOM     32  O   UNL     1       2.520  -3.675   2.700  0.00  0.00    +0.000 OA
ATOM     33  C   UNL     1       2.535  -5.763   1.576  0.00  0.00    +0.000 A 
ATOM     34  H   UNL     1       1.196  -4.814   4.426  0.00  0.00    +0.000 HD
ENDBRANCH  21  24
ENDBRANCH  19  20
ENDBRANCH   6  19
TORSDOF 8
