REMARK  Name = 
REMARK  5 active torsions:
REMARK  status: ('A' for Active; 'I' for Inactive)
REMARK    1  A    between atoms: N_1  and  C_2
REMARK    2  A    between atoms: C_2  and  C_3
REMARK    3  A    between atoms: C_3  and  C_4
REMARK    4  A    between atoms: C_7  and  C_8
REMARK    5  A    between atoms: C_8  and  C_9
REMARK                            x       y       z     vdW  Elec       q    Type
REMARK                         _______ _______ _______ _____ _____    ______ ____
ROOT
ATOM      1  C   UNL     1       4.491   1.116   0.673  0.00  0.00    +0.000 A 
ATOM      2  C   UNL     1       5.161   2.158   1.325  0.00  0.00    +0.000 A 
ATOM      3  C   UNL     1       6.558   2.167   1.406  0.00  0.00    +0.000 A 
ATOM      4  C   UNL     1       7.316   1.138   0.831  0.00  0.00    +0.000 A 
ATOM      5  C   UNL     1       6.643   0.110   0.155  0.00  0.00    +0.000 A 
ATOM      6  C   UNL     1       5.247   0.101   0.073  0.00  0.00    +0.000 A 
ENDROOT
BRANCH   1   7
ATOM      7  C   UNL     1       2.982   1.071   0.641  0.00  0.00    +0.000 C 
BRANCH   7   8
ATOM      8  C   UNL     1       2.381   1.811  -0.558  0.00  0.00    +0.000 C 
BRANCH   8   9
ATOM      9  N   UNL     1       0.918   1.756  -0.521  0.00  0.00    +0.000 NA
ATOM     10  H   UNL     1       0.539   2.282  -1.309  0.00  0.00    +0.000 HD
ATOM     11  H   UNL     1       0.578   2.220   0.321  0.00  0.00    +0.000 HD
ENDBRANCH   8   9
ENDBRANCH   7   8
ENDBRANCH   1   7
BRANCH   4  12
ATOM     12  C   UNL     1       8.824   1.148   0.911  0.00  0.00    +0.000 C 
BRANCH  12  13
ATOM     13  C   UNL     1       9.219   0.382   2.135  0.00  0.00    +0.000 A 
ATOM     14  C   UNL     1       9.437  -0.987   2.218  0.00  0.00    +0.000 A 
ATOM     15  N   UNL     1       9.844  -1.287   3.492  0.00  0.00    +0.000 N 
ATOM     16  C   UNL     1       9.925  -0.144   4.235  0.00  0.00    +0.000 A 
ATOM     17  N   UNL     1      10.331  -0.102   5.518  0.00  0.00    +0.000 NA
ATOM     18  C   UNL     1      10.332   1.151   6.026  0.00  0.00    +0.000 A 
ATOM     19  C   UNL     1       9.959   2.301   5.343  0.00  0.00    +0.000 A 
ATOM     20  C   UNL     1       9.548   2.198   4.013  0.00  0.00    +0.000 A 
ATOM     21  C   UNL     1       9.532   0.919   3.428  0.00  0.00    +0.000 A 
ATOM     22  H   UNL     1      10.083  -2.200   3.850  0.00  0.00    +0.000 HD
ENDBRANCH  12  13
ENDBRANCH   4  12
TORSDOF 5
