REMARK  Name = 
REMARK  5 active torsions:
REMARK  status: ('A' for Active; 'I' for Inactive)
REMARK    1  A    between atoms: C_2  and  C_3
REMARK    2  A    between atoms: C_5  and  C_6
REMARK    3  A    between atoms: C_12  and  C_13
REMARK    4  A    between atoms: C_13  and  N_14
REMARK    5  A    between atoms: C_18  and  C_19
REMARK                            x       y       z     vdW  Elec       q    Type
REMARK                         _______ _______ _______ _____ _____    ______ ____
ROOT
ATOM      1  C   UNL     1      -0.293   2.460  -0.112  0.00  0.00    +0.000 C 
ATOM      2  C   UNL     1      -1.087   3.282   0.885  0.00  0.00    +0.000 C 
ATOM      3  C   UNL     1      -1.691   2.985  -0.439  0.00  0.00    +0.000 C 
ENDROOT
BRANCH   1   4
ATOM      4  N   UNL     1       0.710   2.841  -1.089  0.00  0.00    +0.000 N 
ATOM      5  C   UNL     1       1.418   4.010  -1.275  0.00  0.00    +0.000 A 
ATOM      6  C   UNL     1       1.640   4.979  -0.313  0.00  0.00    +0.000 A 
ATOM      7  C   UNL     1       2.355   6.130  -0.660  0.00  0.00    +0.000 A 
ATOM      8  C   UNL     1       2.846   6.266  -1.958  0.00  0.00    +0.000 A 
ATOM      9  C   UNL     1       2.614   5.230  -2.845  0.00  0.00    +0.000 A 
ATOM     10  N   UNL     1       1.922   4.115  -2.525  0.00  0.00    +0.000 NA
ATOM     11  H   UNL     1       0.694   2.369  -1.991  0.00  0.00    +0.000 HD
BRANCH   8  12
ATOM     12  C   UNL     1       3.547   7.464  -2.457  0.00  0.00    +0.000 C 
ATOM     13  N   UNL     1       4.167   8.264  -1.541  0.00  0.00    +0.000 N 
ATOM     14  O   UNL     1       3.586   7.726  -3.653  0.00  0.00    +0.000 OA
ATOM     15  H   UNL     1       4.361   7.968  -0.596  0.00  0.00    +0.000 HD
ATOM     16  H   UNL     1       4.707   9.035  -1.914  0.00  0.00    +0.000 HD
ENDBRANCH   8  12
ENDBRANCH   1   4
BRANCH   1  22
ATOM     17  C   UNL     1       0.723   0.639   1.389  0.00  0.00    +0.000 A 
ATOM     18  C   UNL     1       0.828  -0.705   1.778  0.00  0.00    +0.000 A 
ATOM     19  C   UNL     1       0.142  -1.705   1.071  0.00  0.00    +0.000 A 
ATOM     20  C   UNL     1      -0.574  -1.355  -0.079  0.00  0.00    +0.000 A 
ATOM     21  C   UNL     1      -0.678  -0.021  -0.462  0.00  0.00    +0.000 A 
ATOM     22  C   UNL     1      -0.086   1.005   0.291  0.00  0.00    +0.000 A 
BRANCH  19  23
ATOM     23  C   UNL     1       0.122  -3.137   1.543  0.00  0.00    +0.000 C 
ATOM     24  F   UNL     1       0.843  -3.345   2.678  0.00  0.00    +0.000 F 
ATOM     25  F   UNL     1      -1.144  -3.556   1.822  0.00  0.00    +0.000 F 
ATOM     26  F   UNL     1       0.610  -4.003   0.616  0.00  0.00    +0.000 F 
ENDBRANCH  19  23
BRANCH  17  28
ATOM     27  N   UNL     1       2.033   2.438   2.735  0.00  0.00    +0.000 NA
ATOM     28  C   UNL     1       1.452   1.641   2.128  0.00  0.00    +0.000 C 
ENDBRANCH  17  28
ENDBRANCH   1  22
TORSDOF 5
