REMARK  Name = 
REMARK  7 active torsions:
REMARK  status: ('A' for Active; 'I' for Inactive)
REMARK    1  A    between atoms: C_1  and  C_2
REMARK    2  A    between atoms: C_2  and  N_3
REMARK    3  A    between atoms: C_2  and  C_16
REMARK    4  A    between atoms: C_4  and  C_6
REMARK    5  A    between atoms: C_19  and  C_20
REMARK    6  A    between atoms: C_20  and  N_21
REMARK    7  A    between atoms: C_22  and  C_24
REMARK                            x       y       z     vdW  Elec       q    Type
REMARK                         _______ _______ _______ _____ _____    ______ ____
ROOT
ATOM      1  C   UNL     1       3.660  -0.864  -0.277  0.00  0.00    +0.000 C 
ATOM      2  C   UNL     1       2.415  -0.004  -0.026  0.00  0.00    +0.000 C 
ENDROOT
BRANCH   2   3
ATOM      3  C   UNL     1       2.775   1.216   0.813  0.00  0.00    +0.000 A 
ATOM      4  C   UNL     1       2.630   2.510   0.298  0.00  0.00    +0.000 A 
ATOM      5  C   UNL     1       2.909   3.629   1.092  0.00  0.00    +0.000 A 
ATOM      6  C   UNL     1       3.345   3.479   2.415  0.00  0.00    +0.000 A 
ATOM      7  C   UNL     1       3.495   2.187   2.931  0.00  0.00    +0.000 A 
ATOM      8  C   UNL     1       3.219   1.070   2.139  0.00  0.00    +0.000 A 
BRANCH   6   9
ATOM      9  C   UNL     1       3.622   4.678   3.280  0.00  0.00    +0.000 C 
BRANCH   9  10
ATOM     10  N   UNL     1       2.458   5.095   4.016  0.00  0.00    +0.000 N 
ATOM     11  C   UNL     1       2.489   6.185   4.854  0.00  0.00    +0.000 C 
ATOM     12  O   UNL     1       3.502   6.853   5.043  0.00  0.00    +0.000 OA
ATOM     13  H   UNL     1       1.575   4.600   3.927  0.00  0.00    +0.000 HD
BRANCH  11  14
ATOM     14  C   UNL     1       1.222   6.482   5.492  0.00  0.00    +0.000 A 
ATOM     15  N   UNL     1       0.095   5.807   5.317  0.00  0.00    +0.000 NA
ATOM     16  C   UNL     1      -0.837   6.447   6.094  0.00  0.00    +0.000 A 
ATOM     17  C   UNL     1      -0.278   7.515   6.756  0.00  0.00    +0.000 A 
ATOM     18  N   UNL     1       1.032   7.525   6.366  0.00  0.00    +0.000 N 
ATOM     19  H   UNL     1       1.754   8.175   6.644  0.00  0.00    +0.000 HD
ENDBRANCH  11  14
ENDBRANCH   9  10
ENDBRANCH   6   9
ENDBRANCH   2   3
BRANCH   2  20
ATOM     20  N   UNL     1       1.347  -0.735   0.644  0.00  0.00    +0.000 N 
ATOM     21  C   UNL     1       0.750  -1.853   0.120  0.00  0.00    +0.000 C 
ATOM     22  O   UNL     1       1.106  -2.365  -0.936  0.00  0.00    +0.000 OA
ATOM     23  H   UNL     1       0.820  -0.202   1.329  0.00  0.00    +0.000 HD
BRANCH  21  24
ATOM     24  C   UNL     1      -0.309  -2.461   0.935  0.00  0.00    +0.000 A 
ATOM     25  C   UNL     1      -0.539  -3.828   0.854  0.00  0.00    +0.000 A 
ATOM     26  S   UNL     1      -1.793  -4.372   1.873  0.00  0.00    +0.000 S 
ATOM     27  C   UNL     1      -2.104  -2.793   2.424  0.00  0.00    +0.000 A 
ATOM     28  N   UNL     1      -3.110  -2.543   3.305  0.00  0.00    +0.000 NA
ATOM     29  C   UNL     1      -3.256  -1.296   3.607  0.00  0.00    +0.000 A 
ATOM     30  N   UNL     1      -2.479  -0.278   3.120  0.00  0.00    +0.000 N 
ATOM     31  C   UNL     1      -1.424  -0.488   2.264  0.00  0.00    +0.000 A 
ATOM     32  O   UNL     1      -0.698   0.432   1.900  0.00  0.00    +0.000 OA
ATOM     33  C   UNL     1      -1.239  -1.869   1.864  0.00  0.00    +0.000 A 
ATOM     34  H   UNL     1      -2.632   0.676   3.414  0.00  0.00    +0.000 HD
ENDBRANCH  21  24
ENDBRANCH   2  20
TORSDOF 6
