REMARK  Name = 
REMARK  6 active torsions:
REMARK  status: ('A' for Active; 'I' for Inactive)
REMARK    1  A    between atoms: C_2  and  C_25
REMARK    2  A    between atoms: N_3  and  C_4
REMARK    3  A    between atoms: C_4  and  C_5
REMARK    4  A    between atoms: C_8  and  C_9
REMARK    5  A    between atoms: C_9  and  N_10
REMARK    6  A    between atoms: C_11  and  C_13
REMARK                            x       y       z     vdW  Elec       q    Type
REMARK                         _______ _______ _______ _____ _____    ______ ____
ROOT
ATOM      1  C   UNL     1       3.338  -2.589  -2.530  0.00  0.00    +0.000 A 
ATOM      2  C   UNL     1       4.323  -1.977  -3.303  0.00  0.00    +0.000 A 
ATOM      3  C   UNL     1       5.155  -2.769  -4.094  0.00  0.00    +0.000 A 
ATOM      4  C   UNL     1       5.011  -4.157  -4.083  0.00  0.00    +0.000 A 
ATOM      5  C   UNL     1       4.000  -4.680  -3.284  0.00  0.00    +0.000 A 
ATOM      6  N   UNL     1       3.174  -3.936  -2.507  0.00  0.00    +0.000 NA
ENDROOT
BRANCH   1   7
ATOM      7  C   UNL     1       2.395  -1.748  -1.700  0.00  0.00    +0.000 C 
BRANCH   7  10
ATOM      8  O   UNL     1       1.783   0.574  -0.260  0.00  0.00    +0.000 OA
ATOM      9  C   UNL     1       2.506  -0.269   0.259  0.00  0.00    +0.000 C 
ATOM     10  N   UNL     1       2.925  -1.409  -0.396  0.00  0.00    +0.000 N 
ATOM     11  H   UNL     1       3.383  -2.126   0.160  0.00  0.00    +0.000 HD
BRANCH   9  12
ATOM     12  C   UNL     1       2.986  -0.101   1.669  0.00  0.00    +0.000 A 
ATOM     13  C   UNL     1       2.586   1.022   2.387  0.00  0.00    +0.000 A 
ATOM     14  C   UNL     1       3.058   1.180   3.687  0.00  0.00    +0.000 A 
ATOM     15  C   UNL     1       3.906   0.218   4.220  0.00  0.00    +0.000 A 
ATOM     16  C   UNL     1       4.247  -0.875   3.433  0.00  0.00    +0.000 A 
ATOM     17  N   UNL     1       3.806  -1.067   2.168  0.00  0.00    +0.000 NA
ENDBRANCH   9  12
ENDBRANCH   7  10
ENDBRANCH   1   7
BRANCH   4  18
ATOM     18  C   UNL     1       5.873  -5.048  -4.931  0.00  0.00    +0.000 C 
BRANCH  18  19
ATOM     19  N   UNL     1       5.284  -5.256  -6.229  0.00  0.00    +0.000 N 
ATOM     20  C   UNL     1       5.822  -6.135  -7.137  0.00  0.00    +0.000 C 
ATOM     21  O   UNL     1       6.803  -6.827  -6.875  0.00  0.00    +0.000 OA
ATOM     22  H   UNL     1       4.654  -4.536  -6.562  0.00  0.00    +0.000 HD
BRANCH  20  23
ATOM     23  C   UNL     1       5.117  -6.252  -8.421  0.00  0.00    +0.000 A 
ATOM     24  C   UNL     1       5.243  -7.405  -9.181  0.00  0.00    +0.000 A 
ATOM     25  S   UNL     1       4.295  -7.395 -10.601  0.00  0.00    +0.000 S 
ATOM     26  C   UNL     1       3.728  -5.823 -10.277  0.00  0.00    +0.000 A 
ATOM     27  N   UNL     1       2.871  -5.197 -11.128  0.00  0.00    +0.000 NA
ATOM     28  C   UNL     1       2.547  -3.998 -10.772  0.00  0.00    +0.000 A 
ATOM     29  N   UNL     1       3.002  -3.368  -9.644  0.00  0.00    +0.000 N 
ATOM     30  C   UNL     1       3.849  -3.970  -8.745  0.00  0.00    +0.000 A 
ATOM     31  O   UNL     1       4.212  -3.389  -7.727  0.00  0.00    +0.000 OA
ATOM     32  C   UNL     1       4.246  -5.320  -9.098  0.00  0.00    +0.000 A 
ATOM     33  H   UNL     1       2.707  -2.430  -9.419  0.00  0.00    +0.000 HD
ENDBRANCH  20  23
ENDBRANCH  18  19
ENDBRANCH   4  18
TORSDOF 6
