REMARK  Name = 
REMARK  6 active torsions:
REMARK  status: ('A' for Active; 'I' for Inactive)
REMARK    1  A    between atoms: C_2  and  C_18
REMARK    2  A    between atoms: N_3  and  C_4
REMARK    3  A    between atoms: C_4  and  C_5
REMARK    4  A    between atoms: C_8  and  C_9
REMARK    5  A    between atoms: C_9  and  O_10
REMARK    6  A    between atoms: C_9  and  C_11
REMARK                            x       y       z     vdW  Elec       q    Type
REMARK                         _______ _______ _______ _____ _____    ______ ____
ROOT
ATOM      1  C   UNL     1       9.753  -5.363   4.453  0.00  0.00    +0.000 C 
ENDROOT
BRANCH   1   2
ATOM      2  C   UNL     1       8.657  -4.576   5.121  0.00  0.00    +0.000 A 
ATOM      3  C   UNL     1       8.727  -4.290   6.488  0.00  0.00    +0.000 A 
ATOM      4  C   UNL     1       7.761  -3.486   7.095  0.00  0.00    +0.000 A 
ATOM      5  C   UNL     1       6.701  -2.940   6.351  0.00  0.00    +0.000 A 
ATOM      6  C   UNL     1       6.593  -3.295   4.998  0.00  0.00    +0.000 A 
ATOM      7  C   UNL     1       7.558  -4.106   4.391  0.00  0.00    +0.000 A 
BRANCH   5   8
ATOM      8  C   UNL     1       5.759  -1.942   7.013  0.00  0.00    +0.000 C 
BRANCH   8   9
ATOM      9  C   UNL     1       6.525  -0.673   7.469  0.00  0.00    +0.000 C 
ATOM     10  C   UNL     1       5.670   0.325   8.242  0.00  0.00    +0.000 C 
ATOM     11  C   UNL     1       5.169   1.286   7.188  0.00  0.00    +0.000 C 
ATOM     12  N   UNL     1       6.252   1.385   6.207  0.00  0.00    +0.000 NA
ATOM     13  C   UNL     1       7.063   0.163   6.305  0.00  0.00    +0.000 C 
ATOM     14  H   UNL     1       6.844   2.181   6.451  0.00  0.00    +0.000 HD
ENDBRANCH   8   9
BRANCH   8  15
ATOM     15  O   UNL     1       4.648  -1.631   6.175  0.00  0.00    +0.000 OA
ATOM     16  H   UNL     1       4.945  -0.976   5.518  0.00  0.00    +0.000 HD
ENDBRANCH   8  15
ENDBRANCH   5   8
ENDBRANCH   1   2
BRANCH   1  19
ATOM     17  O   UNL     1      10.737  -7.126   6.413  0.00  0.00    +0.000 OA
ATOM     18  C   UNL     1       9.998  -7.560   5.535  0.00  0.00    +0.000 C 
ATOM     19  N   UNL     1       9.516  -6.781   4.517  0.00  0.00    +0.000 N 
ATOM     20  H   UNL     1       8.775  -7.136   3.923  0.00  0.00    +0.000 HD
BRANCH  18  21
ATOM     21  C   UNL     1       9.622  -8.975   5.488  0.00  0.00    +0.000 A 
ATOM     22  C   UNL     1      10.442  -9.938   6.060  0.00  0.00    +0.000 A 
ATOM     23  S   UNL     1       9.820 -11.522   5.933  0.00  0.00    +0.000 S 
ATOM     24  C   UNL     1       8.426 -10.970   5.129  0.00  0.00    +0.000 A 
ATOM     25  N   UNL     1       7.441 -11.830   4.755  0.00  0.00    +0.000 NA
ATOM     26  C   UNL     1       6.428 -11.265   4.190  0.00  0.00    +0.000 A 
ATOM     27  N   UNL     1       6.314  -9.921   3.947  0.00  0.00    +0.000 N 
ATOM     28  C   UNL     1       7.316  -9.028   4.224  0.00  0.00    +0.000 A 
ATOM     29  O   UNL     1       7.254  -7.867   3.838  0.00  0.00    +0.000 OA
ATOM     30  C   UNL     1       8.451  -9.602   4.927  0.00  0.00    +0.000 A 
ATOM     31  H   UNL     1       5.513  -9.548   3.457  0.00  0.00    +0.000 HD
ENDBRANCH  18  21
ENDBRANCH   1  19
TORSDOF 6
