REMARK  Name = 
REMARK  7 active torsions:
REMARK  status: ('A' for Active; 'I' for Inactive)
REMARK    1  A    between atoms: C_1  and  C_2
REMARK    2  A    between atoms: N_4  and  C_5
REMARK    3  A    between atoms: C_7  and  C_8
REMARK    4  A    between atoms: C_8  and  C_9
REMARK    5  A    between atoms: C_9  and  N_10
REMARK    6  A    between atoms: C_14  and  C_15
REMARK    7  A    between atoms: C_21  and  C_22
REMARK                            x       y       z     vdW  Elec       q    Type
REMARK                         _______ _______ _______ _____ _____    ______ ____
ROOT
ATOM      1  C   UNL     1       1.765   1.404  -3.201  0.00  0.00    +0.000 A 
ATOM      2  C   UNL     1       2.169   2.684  -3.620  0.00  0.00    +0.000 A 
ATOM      3  C   UNL     1       1.427   3.451  -4.531  0.00  0.00    +0.000 A 
ATOM      4  C   UNL     1       0.224   2.931  -5.018  0.00  0.00    +0.000 A 
ATOM      5  C   UNL     1      -0.224   1.668  -4.616  0.00  0.00    +0.000 A 
ATOM      6  C   UNL     1       0.544   0.931  -3.698  0.00  0.00    +0.000 A 
ENDROOT
BRANCH   1  10
ATOM      7  C   UNL     1       1.838  -2.340  -3.042  0.00  0.00    +0.000 C 
ATOM      8  C   UNL     1       2.533  -1.781  -1.797  0.00  0.00    +0.000 C 
ATOM      9  C   UNL     1       2.023  -0.359  -1.441  0.00  0.00    +0.000 C 
ATOM     10  N   UNL     1       2.563   0.661  -2.350  0.00  0.00    +0.000 N 
ATOM     11  C   UNL     1       4.020   0.605  -2.570  0.00  0.00    +0.000 C 
ATOM     12  C   UNL     1       4.489  -0.835  -2.885  0.00  0.00    +0.000 C 
ATOM     13  N   UNL     1       4.009  -1.854  -1.928  0.00  0.00    +0.000 NA
ATOM     14  H   UNL     1       4.408  -1.624  -1.017  0.00  0.00    +0.000 HD
ENDBRANCH   1  10
BRANCH   5  15
ATOM     15  C   UNL     1      -1.479   1.064  -5.195  0.00  0.00    +0.000 C 
ATOM     16  F   UNL     1      -2.094   1.866  -6.109  0.00  0.00    +0.000 F 
ATOM     17  F   UNL     1      -1.237  -0.112  -5.840  0.00  0.00    +0.000 F 
ATOM     18  F   UNL     1      -2.418   0.785  -4.251  0.00  0.00    +0.000 F 
ENDBRANCH   5  15
BRANCH   3  19
ATOM     19  C   UNL     1       1.961   4.775  -5.035  0.00  0.00    +0.000 C 
BRANCH  19  20
ATOM     20  C   UNL     1       1.038   5.960  -4.737  0.00  0.00    +0.000 C 
BRANCH  20  21
ATOM     21  N   UNL     1       1.581   7.213  -5.295  0.00  0.00    +0.000 N 
ATOM     22  C   UNL     1       0.741   8.317  -5.039  0.00  0.00    +0.000 A 
ATOM     23  C   UNL     1       1.078   9.604  -5.483  0.00  0.00    +0.000 A 
ATOM     24  N   UNL     1       0.317  10.716  -5.274  0.00  0.00    +0.000 NA
ATOM     25  C   UNL     1      -0.828  10.484  -4.574  0.00  0.00    +0.000 A 
ATOM     26  C   UNL     1      -1.174   9.226  -4.120  0.00  0.00    +0.000 A 
ATOM     27  N   UNL     1      -0.399   8.134  -4.337  0.00  0.00    +0.000 NA
ATOM     28  H   UNL     1       1.737   7.146  -6.298  0.00  0.00    +0.000 HD
BRANCH  25  29
ATOM     29  C   UNL     1      -1.743  11.630  -4.304  0.00  0.00    +0.000 C 
ATOM     30  N   UNL     1      -1.359  12.854  -4.770  0.00  0.00    +0.000 N 
ATOM     31  O   UNL     1      -2.796  11.485  -3.695  0.00  0.00    +0.000 OA
ATOM     32  H   UNL     1      -0.486  12.975  -5.267  0.00  0.00    +0.000 HD
ATOM     33  H   UNL     1      -1.964  13.645  -4.602  0.00  0.00    +0.000 HD
ENDBRANCH  25  29
ENDBRANCH  20  21
ENDBRANCH  19  20
ENDBRANCH   3  19
TORSDOF 6
