REMARK  Name = 
REMARK  7 active torsions:
REMARK  status: ('A' for Active; 'I' for Inactive)
REMARK    1  A    between atoms: C_1  and  S_2
REMARK    2  A    between atoms: S_2  and  C_3
REMARK    3  A    between atoms: C_6  and  C_7
REMARK    4  A    between atoms: C_7  and  C_8
REMARK    5  A    between atoms: C_7  and  N_9
REMARK    6  A    between atoms: N_9  and  C_10
REMARK    7  A    between atoms: C_13  and  C_14
REMARK                            x       y       z     vdW  Elec       q    Type
REMARK                         _______ _______ _______ _____ _____    ______ ____
ROOT
ATOM      1  N   UNL     1       5.480  -5.487   2.705  0.00  0.00    +0.000 N 
ATOM      2  H   UNL     1       5.545  -4.584   3.171  0.00  0.00    +0.000 HD
ENDROOT
BRANCH   1   3
ATOM      3  C   UNL     1       5.694  -6.515   3.631  0.00  0.00    +0.000 A 
ATOM      4  C   UNL     1       5.272  -7.837   3.465  0.00  0.00    +0.000 A 
ATOM      5  C   UNL     1       5.618  -8.838   4.386  0.00  0.00    +0.000 A 
ATOM      6  C   UNL     1       6.422  -8.543   5.489  0.00  0.00    +0.000 A 
ATOM      7  C   UNL     1       6.862  -7.233   5.672  0.00  0.00    +0.000 A 
ATOM      8  C   UNL     1       6.514  -6.241   4.742  0.00  0.00    +0.000 A 
BRANCH   6   9
ATOM      9  C   UNL     1       6.769  -9.643   6.429  0.00  0.00    +0.000 C 
ATOM     10  N   UNL     1       7.899  -9.499   7.186  0.00  0.00    +0.000 N 
ATOM     11  O   UNL     1       6.095 -10.663   6.504  0.00  0.00    +0.000 OA
ATOM     12  H   UNL     1       8.608  -8.809   6.982  0.00  0.00    +0.000 HD
ATOM     13  H   UNL     1       8.176 -10.307   7.731  0.00  0.00    +0.000 HD
ENDBRANCH   6   9
ENDBRANCH   1   3
BRANCH   1  14
ATOM     14  C   UNL     1       4.335  -5.502   1.771  0.00  0.00    +0.000 C 
ATOM     15  C   UNL     1       4.676  -6.253   0.479  0.00  0.00    +0.000 C 
BRANCH  14  19
ATOM     16  C   UNL     1       3.105  -1.506   0.707  0.00  0.00    +0.000 A 
ATOM     17  C   UNL     1       4.395  -1.925   0.394  0.00  0.00    +0.000 A 
ATOM     18  C   UNL     1       4.819  -3.205   0.756  0.00  0.00    +0.000 A 
ATOM     19  C   UNL     1       3.933  -4.061   1.416  0.00  0.00    +0.000 A 
ATOM     20  N   UNL     1       2.675  -3.666   1.740  0.00  0.00    +0.000 NA
ATOM     21  C   UNL     1       2.292  -2.415   1.374  0.00  0.00    +0.000 A 
BRANCH  16  23
ATOM     22  C   UNL     1       2.139   0.826   1.803  0.00  0.00    +0.000 C 
ATOM     23  S   UNL     1       2.544   0.101   0.193  0.00  0.00    +0.000 S 
ENDBRANCH  16  23
ENDBRANCH  14  19
ENDBRANCH   1  14
TORSDOF 5
