REMARK  Name = 
REMARK  9 active torsions:
REMARK  status: ('A' for Active; 'I' for Inactive)
REMARK    1  A    between atoms: C_1  and  O_2
REMARK    2  A    between atoms: O_2  and  C_3
REMARK    3  A    between atoms: N_8  and  C_9
REMARK    4  A    between atoms: C_9  and  C_10
REMARK    5  A    between atoms: C_13  and  C_14
REMARK    6  A    between atoms: C_14  and  C_15
REMARK    7  A    between atoms: C_15  and  N_16
REMARK    8  A    between atoms: C_21  and  O_22
REMARK    9  A    between atoms: O_22  and  C_23
REMARK                            x       y       z     vdW  Elec       q    Type
REMARK                         _______ _______ _______ _____ _____    ______ ____
ROOT
ATOM      1  C   UNL     1       3.201  -0.547   1.082  0.00  0.00    +0.000 A 
ATOM      2  C   UNL     1       4.305   0.202   1.537  0.00  0.00    +0.000 A 
ATOM      3  C   UNL     1       5.061  -0.247   2.636  0.00  0.00    +0.000 A 
ATOM      4  C   UNL     1       6.250   0.212   3.265  0.00  0.00    +0.000 A 
ATOM      5  C   UNL     1       6.570  -0.686   4.259  0.00  0.00    +0.000 A 
ATOM      6  N   UNL     1       5.608  -1.669   4.267  0.00  0.00    +0.000 N 
ATOM      7  C   UNL     1       4.651  -1.394   3.309  0.00  0.00    +0.000 A 
ATOM      8  C   UNL     1       3.467  -2.059   2.960  0.00  0.00    +0.000 A 
ATOM      9  C   UNL     1       2.747  -1.642   1.828  0.00  0.00    +0.000 A 
ENDROOT
BRANCH   1  11
ATOM     10  C   UNL     1       3.420   0.236  -1.137  0.00  0.00    +0.000 C 
ATOM     11  O   UNL     1       2.558  -0.188  -0.076  0.00  0.00    +0.000 OA
ENDBRANCH   1  11
BRANCH   9  12
ATOM     12  O   UNL     1       1.662  -2.451   1.614  0.00  0.00    +0.000 OA
ATOM     13  C   UNL     1       0.895  -2.298   0.434  0.00  0.00    +0.000 C 
ENDBRANCH   9  12
BRANCH   6  14
ATOM     14  C   UNL     1       5.678  -2.890   5.073  0.00  0.00    +0.000 C 
BRANCH  14  15
ATOM     15  C   UNL     1       5.225  -2.646   6.493  0.00  0.00    +0.000 A 
ATOM     16  C   UNL     1       3.889  -2.325   6.772  0.00  0.00    +0.000 A 
ATOM     17  C   UNL     1       3.509  -1.919   8.049  0.00  0.00    +0.000 A 
ATOM     18  C   UNL     1       4.459  -1.822   9.072  0.00  0.00    +0.000 A 
ATOM     19  C   UNL     1       5.769  -2.254   8.827  0.00  0.00    +0.000 A 
ATOM     20  C   UNL     1       6.152  -2.650   7.544  0.00  0.00    +0.000 A 
BRANCH  18  21
ATOM     21  C   UNL     1       4.102  -1.151  10.375  0.00  0.00    +0.000 C 
BRANCH  21  22
ATOM     22  C   UNL     1       3.471  -2.073  11.417  0.00  0.00    +0.000 C 
BRANCH  22  23
ATOM     23  N   UNL     1       3.126  -1.307  12.617  0.00  0.00    +0.000 NA
ATOM     24  H   UNL     1       3.969  -0.903  13.022  0.00  0.00    +0.000 HD
ATOM     25  H   UNL     1       2.737  -1.931  13.322  0.00  0.00    +0.000 HD
ENDBRANCH  22  23
ENDBRANCH  21  22
ENDBRANCH  18  21
ENDBRANCH  14  15
ENDBRANCH   6  14
TORSDOF 7
