REMARK  Name = 
REMARK  10 active torsions:
REMARK  status: ('A' for Active; 'I' for Inactive)
REMARK    1  A    between atoms: N_1  and  C_2
REMARK    2  A    between atoms: C_2  and  C_3
REMARK    3  A    between atoms: C_3  and  N_4
REMARK    4  A    between atoms: N_4  and  C_5
REMARK    5  A    between atoms: C_5  and  C_6
REMARK    6  A    between atoms: C_8  and  C_9
REMARK    7  A    between atoms: C_9  and  N_10
REMARK    8  A    between atoms: C_11  and  C_13
REMARK    9  A    between atoms: C_25  and  C_26
REMARK   10  A    between atoms: C_26  and  N_27
REMARK                            x       y       z     vdW  Elec       q    Type
REMARK                         _______ _______ _______ _____ _____    ______ ____
ROOT
ATOM      1  C   UNL     1       6.438  -2.382   1.456  0.00  0.00    +0.000 A 
ATOM      2  C   UNL     1       7.104  -3.563   1.867  0.00  0.00    +0.000 A 
ATOM      3  C   UNL     1       8.498  -3.696   1.809  0.00  0.00    +0.000 A 
ATOM      4  C   UNL     1       9.245  -2.614   1.345  0.00  0.00    +0.000 A 
ATOM      5  C   UNL     1       8.615  -1.412   1.010  0.00  0.00    +0.000 A 
ATOM      6  C   UNL     1       7.214  -1.258   1.096  0.00  0.00    +0.000 A 
ENDROOT
BRANCH   1   7
ATOM      7  C   UNL     1       4.919  -2.434   1.453  0.00  0.00    +0.000 C 
BRANCH   7   8
ATOM      8  N   UNL     1       4.235  -1.782   0.328  0.00  0.00    +0.000 NA
ATOM      9  H   UNL     1       3.244  -2.024   0.406  0.00  0.00    +0.000 HD
BRANCH   8  10
ATOM     10  C   UNL     1       4.673  -2.233  -1.001  0.00  0.00    +0.000 C 
BRANCH  10  11
ATOM     11  C   UNL     1       4.355  -3.705  -1.313  0.00  0.00    +0.000 C 
BRANCH  11  12
ATOM     12  N   UNL     1       2.932  -4.001  -1.120  0.00  0.00    +0.000 NA
ATOM     13  H   UNL     1       2.761  -4.970  -1.379  0.00  0.00    +0.000 HD
ATOM     14  H   UNL     1       2.387  -3.433  -1.768  0.00  0.00    +0.000 HD
ENDBRANCH  11  12
ENDBRANCH  10  11
ENDBRANCH   8  10
ENDBRANCH   7   8
ENDBRANCH   1   7
BRANCH   3  15
ATOM     15  C   UNL     1       9.169  -4.962   2.276  0.00  0.00    +0.000 C 
BRANCH  15  16
ATOM     16  N   UNL     1       9.498  -4.887   3.680  0.00  0.00    +0.000 N 
ATOM     17  C   UNL     1      10.236  -5.863   4.300  0.00  0.00    +0.000 C 
ATOM     18  O   UNL     1      10.696  -6.822   3.688  0.00  0.00    +0.000 OA
ATOM     19  H   UNL     1       8.942  -4.249   4.242  0.00  0.00    +0.000 HD
BRANCH  17  20
ATOM     20  C   UNL     1      10.510  -5.663   5.731  0.00  0.00    +0.000 A 
ATOM     21  C   UNL     1      11.611  -6.275   6.316  0.00  0.00    +0.000 A 
ATOM     22  S   UNL     1      11.817  -5.885   7.964  0.00  0.00    +0.000 S 
ATOM     23  C   UNL     1      10.408  -4.931   7.972  0.00  0.00    +0.000 A 
ATOM     24  N   UNL     1       9.986  -4.312   9.108  0.00  0.00    +0.000 NA
ATOM     25  C   UNL     1       8.887  -3.648   8.976  0.00  0.00    +0.000 A 
ATOM     26  N   UNL     1       8.173  -3.540   7.811  0.00  0.00    +0.000 N 
ATOM     27  C   UNL     1       8.573  -4.126   6.633  0.00  0.00    +0.000 A 
ATOM     28  O   UNL     1       7.932  -3.984   5.600  0.00  0.00    +0.000 OA
ATOM     29  C   UNL     1       9.801  -4.895   6.729  0.00  0.00    +0.000 A 
ATOM     30  H   UNL     1       7.324  -2.997   7.770  0.00  0.00    +0.000 HD
ENDBRANCH  17  20
ENDBRANCH  15  16
ENDBRANCH   3  15
BRANCH   6  31
ATOM     31  C   UNL     1       6.649   0.129   0.829  0.00  0.00    +0.000 C 
BRANCH  31  32
ATOM     32  N   UNL     1       6.509   0.857   2.076  0.00  0.00    +0.000 N 
ATOM     33  C   UNL     1       6.281   2.218   1.961  0.00  0.00    +0.000 A 
ATOM     34  N   UNL     1       5.833   2.740   0.808  0.00  0.00    +0.000 NA
ATOM     35  C   UNL     1       5.619   4.067   0.772  0.00  0.00    +0.000 A 
ATOM     36  C   UNL     1       5.829   4.900   1.841  0.00  0.00    +0.000 A 
ATOM     37  C   UNL     1       6.293   4.279   2.973  0.00  0.00    +0.000 A 
ATOM     38  N   UNL     1       6.540   2.955   3.050  0.00  0.00    +0.000 NA
ATOM     39  H   UNL     1       7.215   0.700   2.783  0.00  0.00    +0.000 HD
ENDBRANCH  31  32
ENDBRANCH   6  31
TORSDOF 10
