REMARK  Name = 
REMARK  11 active torsions:
REMARK  status: ('A' for Active; 'I' for Inactive)
REMARK    1  A    between atoms: C_1  and  C_2
REMARK    2  A    between atoms: C_4  and  O_5
REMARK    3  A    between atoms: O_5  and  C_6
REMARK    4  A    between atoms: C_6  and  C_7
REMARK    5  A    between atoms: C_7  and  C_8
REMARK    6  A    between atoms: C_7  and  C_9
REMARK    7  A    between atoms: C_7  and  C_10
REMARK    8  A    between atoms: C_12  and  N_13
REMARK    9  A    between atoms: C_16  and  C_17
REMARK   10  A    between atoms: C_17  and  O_19
REMARK   11  A    between atoms: C_26  and  C_27
REMARK                            x       y       z     vdW  Elec       q    Type
REMARK                         _______ _______ _______ _____ _____    ______ ____
ROOT
ATOM      1  C   UNL     1      -2.252  -6.267   0.056  0.00  0.00    +0.000 A 
ATOM      2  C   UNL     1      -3.505  -5.669   0.193  0.00  0.00    +0.000 A 
ATOM      3  C   UNL     1      -4.660  -6.440   0.349  0.00  0.00    +0.000 A 
ATOM      4  C   UNL     1      -4.521  -7.823   0.288  0.00  0.00    +0.000 A 
ATOM      5  C   UNL     1      -3.253  -8.358   0.148  0.00  0.00    +0.000 A 
ATOM      6  N   UNL     1      -2.126  -7.619   0.043  0.00  0.00    +0.000 NA
ENDROOT
BRANCH   3   7
ATOM      7  N   UNL     1      -5.900  -5.883   0.670  0.00  0.00    +0.000 N 
ATOM      8  C   UNL     1      -5.885  -4.644   1.446  0.00  0.00    +0.000 C 
ATOM      9  C   UNL     1      -7.190  -4.588   2.229  0.00  0.00    +0.000 C 
ATOM     10  C   UNL     1      -8.402  -4.629   1.289  0.00  0.00    +0.000 C 
ATOM     11  C   UNL     1      -8.302  -5.807   0.296  0.00  0.00    +0.000 C 
ATOM     12  C   UNL     1      -6.927  -5.915  -0.380  0.00  0.00    +0.000 C 
BRANCH  10  13
ATOM     13  C   UNL     1      -8.567  -3.304   0.568  0.00  0.00    +0.000 C 
ATOM     14  O   UNL     1      -8.500  -3.154  -0.644  0.00  0.00    +0.000 OA
BRANCH  13  15
ATOM     15  O   UNL     1      -8.827  -2.269   1.401  0.00  0.00    +0.000 OA
ATOM     16  H   UNL     1      -8.899  -2.513   2.342  0.00  0.00    +0.000 HD
ENDBRANCH  13  15
ENDBRANCH  10  13
ENDBRANCH   3   7
BRANCH   1  17
ATOM     17  C   UNL     1      -0.950  -5.455  -0.022  0.00  0.00    +0.000 C 
ATOM     18  C   UNL     1      -0.190  -5.841  -1.307  0.00  0.00    +0.000 C 
ATOM     19  C   UNL     1      -0.082  -5.818   1.203  0.00  0.00    +0.000 C 
BRANCH  17  20
ATOM     20  C   UNL     1      -1.152  -3.913  -0.001  0.00  0.00    +0.000 C 
BRANCH  20  21
ATOM     21  O   UNL     1      -1.859  -3.486  -1.171  0.00  0.00    +0.000 OA
BRANCH  21  25
ATOM     22  C   UNL     1      -1.993   1.239   0.346  0.00  0.00    +0.000 C 
ATOM     23  C   UNL     1      -2.354   0.116  -0.578  0.00  0.00    +0.000 A 
ATOM     24  C   UNL     1      -1.896  -1.176  -0.343  0.00  0.00    +0.000 A 
ATOM     25  C   UNL     1      -2.243  -2.177  -1.241  0.00  0.00    +0.000 A 
ATOM     26  C   UNL     1      -3.039  -1.861  -2.337  0.00  0.00    +0.000 A 
ATOM     27  C   UNL     1      -3.456  -0.547  -2.510  0.00  0.00    +0.000 A 
ATOM     28  C   UNL     1      -4.293  -0.150  -3.687  0.00  0.00    +0.000 C 
ATOM     29  N   UNL     1      -3.124   0.437  -1.642  0.00  0.00    +0.000 NA
ENDBRANCH  21  25
ENDBRANCH  20  21
ENDBRANCH  17  20
ENDBRANCH   1  17
TORSDOF 7
