REMARK  Name = 
REMARK  6 active torsions:
REMARK  status: ('A' for Active; 'I' for Inactive)
REMARK    1  A    between atoms: N_1  and  C_2
REMARK    2  A    between atoms: C_2  and  C_3
REMARK    3  A    between atoms: C_6  and  C_7
REMARK    4  A    between atoms: C_7  and  C_8
REMARK    5  A    between atoms: C_8  and  N_9
REMARK    6  A    between atoms: C_13  and  C_14
REMARK                            x       y       z     vdW  Elec       q    Type
REMARK                         _______ _______ _______ _____ _____    ______ ____
ROOT
ATOM      1  N   UNL     1       4.835   0.824   7.583  0.00  0.00    +0.000 N 
ATOM      2  C   UNL     1       5.110   2.059   8.209  0.00  0.00    +0.000 A 
ATOM      3  C   UNL     1       5.491   2.115   9.560  0.00  0.00    +0.000 A 
ATOM      4  N   UNL     1       5.772   3.270  10.234  0.00  0.00    +0.000 NA
ATOM      5  C   UNL     1       5.642   4.399   9.485  0.00  0.00    +0.000 A 
ATOM      6  C   UNL     1       5.256   4.363   8.157  0.00  0.00    +0.000 A 
ATOM      7  N   UNL     1       4.982   3.204   7.507  0.00  0.00    +0.000 NA
ATOM      8  H   UNL     1       5.645   0.217   7.686  0.00  0.00    +0.000 HD
ENDROOT
BRANCH   5   9
ATOM      9  C   UNL     1       5.927   5.717  10.116  0.00  0.00    +0.000 C 
ATOM     10  N   UNL     1       6.293   5.707  11.434  0.00  0.00    +0.000 N 
ATOM     11  O   UNL     1       5.841   6.766   9.491  0.00  0.00    +0.000 OA
ATOM     12  H   UNL     1       6.361   4.830  11.941  0.00  0.00    +0.000 HD
ATOM     13  H   UNL     1       6.497   6.583  11.897  0.00  0.00    +0.000 HD
ENDBRANCH   5   9
BRANCH   1  14
ATOM     14  C   UNL     1       4.442   0.986   6.170  0.00  0.00    +0.000 C 
BRANCH  14  15
ATOM     15  C   UNL     1       4.147  -0.366   5.510  0.00  0.00    +0.000 C 
BRANCH  15  19
ATOM     16  C   UNL     1       2.903   0.078   1.371  0.00  0.00    +0.000 A 
ATOM     17  C   UNL     1       4.255  -0.092   1.695  0.00  0.00    +0.000 A 
ATOM     18  C   UNL     1       4.661  -0.240   3.027  0.00  0.00    +0.000 A 
ATOM     19  C   UNL     1       3.720  -0.220   4.064  0.00  0.00    +0.000 A 
ATOM     20  C   UNL     1       2.368  -0.042   3.741  0.00  0.00    +0.000 A 
ATOM     21  C   UNL     1       1.964   0.103   2.408  0.00  0.00    +0.000 A 
BRANCH  16  22
ATOM     22  C   UNL     1       2.470   0.260  -0.066  0.00  0.00    +0.000 C 
BRANCH  22  23
ATOM     23  N   UNL     1       2.867  -0.869  -0.900  0.00  0.00    +0.000 NA
ATOM     24  H   UNL     1       2.435  -0.774  -1.817  0.00  0.00    +0.000 HD
ATOM     25  H   UNL     1       2.491  -1.723  -0.491  0.00  0.00    +0.000 HD
ENDBRANCH  22  23
ENDBRANCH  16  22
ENDBRANCH  15  19
ENDBRANCH  14  15
ENDBRANCH   1  14
TORSDOF 6
