REMARK  Name = 
REMARK  6 active torsions:
REMARK  status: ('A' for Active; 'I' for Inactive)
REMARK    1  A    between atoms: C_1  and  C_2
REMARK    2  A    between atoms: C_2  and  C_3
REMARK    3  A    between atoms: C_2  and  C_4
REMARK    4  A    between atoms: C_2  and  C_5
REMARK    5  A    between atoms: C_12  and  C_13
REMARK    6  A    between atoms: C_13  and  C_14
REMARK                            x       y       z     vdW  Elec       q    Type
REMARK                         _______ _______ _______ _____ _____    ______ ____
ROOT
ATOM      1  C   UNL     1       2.923   0.767  -1.056  0.00  0.00    +0.000 A 
ATOM      2  C   UNL     1       3.334   0.635  -2.410  0.00  0.00    +0.000 A 
ATOM      3  N   UNL     1       3.491   1.801  -3.040  0.00  0.00    +0.000 NA
ATOM      4  N   UNL     1       3.145   2.693  -2.112  0.00  0.00    +0.000 N 
ATOM      5  C   UNL     1       2.918   2.146  -0.872  0.00  0.00    +0.000 A 
ATOM      6  C   UNL     1       2.667   3.026   0.304  0.00  0.00    +0.000 C 
ATOM      7  C   UNL     1       3.072   4.467  -0.001  0.00  0.00    +0.000 C 
ATOM      8  C   UNL     1       2.399   4.860  -1.324  0.00  0.00    +0.000 C 
ATOM      9  N   UNL     1       3.029   4.101  -2.421  0.00  0.00    +0.000 NA
ENDROOT
BRANCH   1  11
ATOM     10  C   UNL     1       2.727  -1.734  -0.675  0.00  0.00    +0.000 C 
ATOM     11  C   UNL     1       2.551  -0.326  -0.069  0.00  0.00    +0.000 C 
ATOM     12  C   UNL     1       1.063  -0.184   0.334  0.00  0.00    +0.000 C 
ATOM     13  C   UNL     1       3.417  -0.267   1.203  0.00  0.00    +0.000 C 
ENDBRANCH   1  11
BRANCH   8  14
ATOM     14  C   UNL     1       2.473   6.382  -1.533  0.00  0.00    +0.000 C 
BRANCH  14  15
ATOM     15  C   UNL     1       1.678   6.937  -2.739  0.00  0.00    +0.000 C 
ATOM     16  C   UNL     1       1.688   8.478  -2.681  0.00  0.00    +0.000 C 
ATOM     17  C   UNL     1       0.882   9.104  -3.815  0.00  0.00    +0.000 C 
ATOM     18  C   UNL     1      -0.551   8.585  -3.827  0.00  0.00    +0.000 C 
ATOM     19  C   UNL     1      -0.580   7.066  -3.919  0.00  0.00    +0.000 C 
ATOM     20  C   UNL     1       0.231   6.414  -2.802  0.00  0.00    +0.000 C 
ENDBRANCH  14  15
ENDBRANCH   8  14
TORSDOF 3
