REMARK  Name = 
REMARK  7 active torsions:
REMARK  status: ('A' for Active; 'I' for Inactive)
REMARK    1  A    between atoms: C_1  and  O_2
REMARK    2  A    between atoms: O_2  and  C_3
REMARK    3  A    between atoms: C_5  and  C_6
REMARK    4  A    between atoms: C_11  and  C_12
REMARK    5  A    between atoms: C_12  and  C_13
REMARK    6  A    between atoms: C_17  and  O_18
REMARK    7  A    between atoms: O_18  and  C_19
REMARK                            x       y       z     vdW  Elec       q    Type
REMARK                         _______ _______ _______ _____ _____    ______ ____
ROOT
ATOM      1  C   UNL     1       4.598   1.056   1.644  0.00  0.00    +0.000 C 
ATOM      2  C   UNL     1       3.908   2.406   1.604  0.00  0.00    +0.000 C 
ATOM      3  C   UNL     1       4.634   1.923   0.390  0.00  0.00    +0.000 C 
ENDROOT
BRANCH   1   9
ATOM      4  C   UNL     1       2.887  -0.624   2.660  0.00  0.00    +0.000 A 
ATOM      5  C   UNL     1       2.233  -1.857   2.584  0.00  0.00    +0.000 A 
ATOM      6  C   UNL     1       2.504  -2.679   1.500  0.00  0.00    +0.000 A 
ATOM      7  N   UNL     1       3.361  -2.361   0.495  0.00  0.00    +0.000 NA
ATOM      8  C   UNL     1       3.947  -1.152   0.592  0.00  0.00    +0.000 A 
ATOM      9  C   UNL     1       3.748  -0.221   1.619  0.00  0.00    +0.000 A 
BRANCH   6  10
ATOM     10  C   UNL     1       1.845  -4.012   1.385  0.00  0.00    +0.000 C 
ATOM     11  N   UNL     1       2.242  -4.761   0.303  0.00  0.00    +0.000 N 
ATOM     12  O   UNL     1       1.026  -4.433   2.190  0.00  0.00    +0.000 OA
ATOM     13  H   UNL     1       2.929  -4.363  -0.333  0.00  0.00    +0.000 HD
ATOM     14  H   UNL     1       1.837  -5.666   0.133  0.00  0.00    +0.000 HD
ENDBRANCH   6  10
BRANCH   4  16
ATOM     15  C   UNL     1       2.354  -0.340   4.959  0.00  0.00    +0.000 C 
ATOM     16  O   UNL     1       2.724   0.244   3.705  0.00  0.00    +0.000 OA
ENDBRANCH   4  16
ENDBRANCH   1   9
BRANCH   1  17
ATOM     17  C   UNL     1       5.895   0.842   2.419  0.00  0.00    +0.000 A 
ATOM     18  C   UNL     1       6.027   1.239   3.753  0.00  0.00    +0.000 A 
ATOM     19  C   UNL     1       6.978   0.636   4.575  0.00  0.00    +0.000 A 
ATOM     20  C   UNL     1       7.826  -0.355   4.071  0.00  0.00    +0.000 A 
ATOM     21  C   UNL     1       7.823  -0.649   2.714  0.00  0.00    +0.000 A 
ATOM     22  C   UNL     1       6.877  -0.022   1.898  0.00  0.00    +0.000 A 
BRANCH  21  23
ATOM     23  O   UNL     1       8.593  -1.550   2.048  0.00  0.00    +0.000 OA
BRANCH  23  24
ATOM     24  C   UNL     1       9.692  -2.195   2.665  0.00  0.00    +0.000 C 
ATOM     25  F   UNL     1      10.177  -1.550   3.744  0.00  0.00    +0.000 F 
ATOM     26  F   UNL     1       9.346  -3.452   3.018  0.00  0.00    +0.000 F 
ATOM     27  F   UNL     1      10.691  -2.275   1.756  0.00  0.00    +0.000 F 
ENDBRANCH  23  24
ENDBRANCH  21  23
ENDBRANCH   1  17
TORSDOF 6
