REMARK  Name = 
REMARK  7 active torsions:
REMARK  status: ('A' for Active; 'I' for Inactive)
REMARK    1  A    between atoms: C_1  and  C_2
REMARK    2  A    between atoms: C_2  and  N_3
REMARK    3  A    between atoms: C_2  and  C_16
REMARK    4  A    between atoms: C_4  and  C_6
REMARK    5  A    between atoms: C_19  and  C_20
REMARK    6  A    between atoms: C_20  and  N_21
REMARK    7  A    between atoms: C_22  and  C_24
REMARK                            x       y       z     vdW  Elec       q    Type
REMARK                         _______ _______ _______ _____ _____    ______ ____
ROOT
ATOM      1  C   UNL     1       3.430  -1.189   0.288  0.00  0.00    +0.000 C 
ATOM      2  C   UNL     1       2.442  -0.066  -0.045  0.00  0.00    +0.000 C 
ENDROOT
BRANCH   2   3
ATOM      3  C   UNL     1       2.914   0.900  -1.123  0.00  0.00    +0.000 A 
ATOM      4  C   UNL     1       2.498   2.241  -1.060  0.00  0.00    +0.000 A 
ATOM      5  C   UNL     1       2.874   3.166  -2.041  0.00  0.00    +0.000 A 
ATOM      6  C   UNL     1       3.667   2.772  -3.126  0.00  0.00    +0.000 A 
ATOM      7  C   UNL     1       4.093   1.439  -3.191  0.00  0.00    +0.000 A 
ATOM      8  C   UNL     1       3.711   0.512  -2.210  0.00  0.00    +0.000 A 
BRANCH   6   9
ATOM      9  C   UNL     1       4.051   3.761  -4.199  0.00  0.00    +0.000 C 
BRANCH   9  10
ATOM     10  N   UNL     1       5.284   4.449  -3.885  0.00  0.00    +0.000 N 
ATOM     11  C   UNL     1       5.855   5.321  -4.794  0.00  0.00    +0.000 C 
ATOM     12  O   UNL     1       5.399   5.499  -5.919  0.00  0.00    +0.000 OA
ATOM     13  H   UNL     1       5.564   4.485  -2.914  0.00  0.00    +0.000 HD
BRANCH  11  14
ATOM     14  C   UNL     1       7.059   6.078  -4.248  0.00  0.00    +0.000 C 
ATOM     15  C   UNL     1       7.647   7.086  -5.214  0.00  0.00    +0.000 C 
ATOM     16  C   UNL     1       8.760   6.323  -5.896  0.00  0.00    +0.000 C 
ATOM     17  O   UNL     1       9.232   5.355  -4.956  0.00  0.00    +0.000 OA
ATOM     18  C   UNL     1       8.224   5.148  -3.957  0.00  0.00    +0.000 C 
ENDBRANCH  11  14
ENDBRANCH   9  10
ENDBRANCH   6   9
ENDBRANCH   2   3
BRANCH   2  19
ATOM     19  N   UNL     1       1.149  -0.618  -0.413  0.00  0.00    +0.000 N 
ATOM     20  C   UNL     1       0.227  -0.997   0.531  0.00  0.00    +0.000 C 
ATOM     21  O   UNL     1       0.407  -0.816   1.732  0.00  0.00    +0.000 OA
ATOM     22  H   UNL     1       1.042  -0.937  -1.370  0.00  0.00    +0.000 HD
BRANCH  20  23
ATOM     23  C   UNL     1      -1.025  -1.578   0.033  0.00  0.00    +0.000 A 
ATOM     24  C   UNL     1      -2.185  -1.461   0.787  0.00  0.00    +0.000 A 
ATOM     25  S   UNL     1      -3.550  -2.177   0.059  0.00  0.00    +0.000 S 
ATOM     26  C   UNL     1      -2.627  -2.720  -1.262  0.00  0.00    +0.000 A 
ATOM     27  N   UNL     1      -3.193  -3.458  -2.254  0.00  0.00    +0.000 NA
ATOM     28  C   UNL     1      -2.367  -3.845  -3.168  0.00  0.00    +0.000 A 
ATOM     29  N   UNL     1      -1.028  -3.550  -3.186  0.00  0.00    +0.000 N 
ATOM     30  C   UNL     1      -0.426  -2.755  -2.240  0.00  0.00    +0.000 A 
ATOM     31  O   UNL     1       0.753  -2.423  -2.338  0.00  0.00    +0.000 OA
ATOM     32  C   UNL     1      -1.302  -2.330  -1.167  0.00  0.00    +0.000 A 
ATOM     33  H   UNL     1      -0.442  -3.867  -3.944  0.00  0.00    +0.000 HD
ENDBRANCH  20  23
ENDBRANCH   2  19
TORSDOF 6
