REMARK  Name = 
REMARK  6 active torsions:
REMARK  status: ('A' for Active; 'I' for Inactive)
REMARK    1  A    between atoms: N_1  and  C_2
REMARK    2  A    between atoms: C_2  and  C_3
REMARK    3  A    between atoms: C_6  and  O_7
REMARK    4  A    between atoms: O_7  and  C_8
REMARK    5  A    between atoms: C_8  and  C_9
REMARK    6  A    between atoms: C_11  and  N_12
REMARK                            x       y       z     vdW  Elec       q    Type
REMARK                         _______ _______ _______ _____ _____    ______ ____
ROOT
ATOM      1  O   UNL     1       4.730   0.091  -5.148  0.00  0.00    +0.000 OA
ENDROOT
BRANCH   1   5
ATOM      2  C   UNL     1       3.067   0.052  -1.310  0.00  0.00    +0.000 A 
ATOM      3  C   UNL     1       3.334   1.282  -1.929  0.00  0.00    +0.000 A 
ATOM      4  C   UNL     1       3.897   1.337  -3.208  0.00  0.00    +0.000 A 
ATOM      5  C   UNL     1       4.206   0.160  -3.886  0.00  0.00    +0.000 A 
ATOM      6  C   UNL     1       3.923  -1.069  -3.287  0.00  0.00    +0.000 A 
ATOM      7  C   UNL     1       3.367  -1.126  -2.006  0.00  0.00    +0.000 A 
BRANCH   2   8
ATOM      8  C   UNL     1       2.488   0.007   0.080  0.00  0.00    +0.000 C 
BRANCH   8   9
ATOM      9  N   UNL     1       1.186   0.660   0.145  0.00  0.00    +0.000 NA
ATOM     10  H   UNL     1       0.807   0.554   1.084  0.00  0.00    +0.000 HD
ATOM     11  H   UNL     1       0.546   0.175  -0.482  0.00  0.00    +0.000 HD
ENDBRANCH   8   9
ENDBRANCH   2   8
ENDBRANCH   1   5
BRANCH   1  12
ATOM     12  C   UNL     1       5.595   1.170  -5.516  0.00  0.00    +0.000 C 
BRANCH  12  13
ATOM     13  C   UNL     1       6.138   0.911  -6.903  0.00  0.00    +0.000 A 
ATOM     14  C   UNL     1       5.271   0.844  -7.980  0.00  0.00    +0.000 A 
ATOM     15  C   UNL     1       5.830   0.619  -9.218  0.00  0.00    +0.000 A 
ATOM     16  N   UNL     1       7.146   0.488  -9.405  0.00  0.00    +0.000 NA
ATOM     17  C   UNL     1       7.908   0.573  -8.303  0.00  0.00    +0.000 A 
ATOM     18  N   UNL     1       7.474   0.779  -7.051  0.00  0.00    +0.000 NA
BRANCH  15  19
ATOM     19  N   UNL     1       5.027   0.585 -10.356  0.00  0.00    +0.000 N 
ATOM     20  H   UNL     1       4.245  -0.051 -10.255  0.00  0.00    +0.000 HD
ATOM     21  H   UNL     1       5.623   0.341 -11.144  0.00  0.00    +0.000 HD
ENDBRANCH  15  19
ENDBRANCH  12  13
ENDBRANCH   1  12
TORSDOF 6
