REMARK  Name = 
REMARK  4 active torsions:
REMARK  status: ('A' for Active; 'I' for Inactive)
REMARK    1  A    between atoms: N_1  and  C_2
REMARK    2  A    between atoms: C_2  and  C_3
REMARK    3  A    between atoms: N_8  and  C_9
REMARK    4  A    between atoms: C_9  and  C_10
REMARK                            x       y       z     vdW  Elec       q    Type
REMARK                         _______ _______ _______ _____ _____    ______ ____
ROOT
ATOM      1  C   UNL     1       3.409  -2.978   1.265  0.00  0.00    +0.000 A 
ATOM      2  C   UNL     1       2.475  -2.038   0.833  0.00  0.00    +0.000 A 
ATOM      3  C   UNL     1       2.346  -0.861   1.549  0.00  0.00    +0.000 A 
ATOM      4  N   UNL     1       3.081  -0.553   2.642  0.00  0.00    +0.000 NA
ATOM      5  C   UNL     1       3.972  -1.467   3.069  0.00  0.00    +0.000 A 
ATOM      6  N   UNL     1       4.809  -1.201   4.155  0.00  0.00    +0.000 N 
ATOM      7  C   UNL     1       4.137  -2.692   2.424  0.00  0.00    +0.000 A 
ATOM      8  H   UNL     1       4.609  -1.833   4.922  0.00  0.00    +0.000 HD
ENDROOT
BRANCH   1   9
ATOM      9  C   UNL     1       3.663  -4.238   0.484  0.00  0.00    +0.000 C 
BRANCH   9  10
ATOM     10  N   UNL     1       4.128  -3.933  -0.865  0.00  0.00    +0.000 NA
ATOM     11  H   UNL     1       4.412  -4.796  -1.325  0.00  0.00    +0.000 HD
ATOM     12  H   UNL     1       4.966  -3.355  -0.801  0.00  0.00    +0.000 HD
ENDBRANCH   9  10
ENDBRANCH   1   9
BRANCH   6  13
ATOM     13  C   UNL     1       4.911   0.186   4.577  0.00  0.00    +0.000 C 
BRANCH  13  14
ATOM     14  C   UNL     1       6.192   0.347   5.372  0.00  0.00    +0.000 A 
ATOM     15  C   UNL     1       7.418  -0.039   4.799  0.00  0.00    +0.000 A 
ATOM     16  C   UNL     1       8.616   0.123   5.496  0.00  0.00    +0.000 A 
ATOM     17  C   UNL     1       8.608   0.681   6.771  0.00  0.00    +0.000 A 
ATOM     18  C   UNL     1       7.399   1.071   7.351  0.00  0.00    +0.000 A 
ATOM     19  C   UNL     1       6.197   0.905   6.657  0.00  0.00    +0.000 A 
ENDBRANCH  13  14
ENDBRANCH   6  13
TORSDOF 4
