REMARK  Name = 
REMARK  6 active torsions:
REMARK  status: ('A' for Active; 'I' for Inactive)
REMARK    1  A    between atoms: N_1  and  C_2
REMARK    2  A    between atoms: C_2  and  C_3
REMARK    3  A    between atoms: C_3  and  C_4
REMARK    4  A    between atoms: C_7  and  C_8
REMARK    5  A    between atoms: C_8  and  N_9
REMARK    6  A    between atoms: C_14  and  C_15
REMARK                            x       y       z     vdW  Elec       q    Type
REMARK                         _______ _______ _______ _____ _____    ______ ____
ROOT
ATOM      1  N   UNL     1       9.640   0.442   0.602  0.00  0.00    +0.000 N 
ATOM      2  N   UNL     1       9.940  -0.420  -0.392  0.00  0.00    +0.000 NA
ATOM      3  N   UNL     1       9.809  -1.644   0.103  0.00  0.00    +0.000 NA
ATOM      4  C   UNL     1       9.542  -1.532   1.440  0.00  0.00    +0.000 A 
ATOM      5  C   UNL     1       9.207  -2.505   2.390  0.00  0.00    +0.000 A 
ATOM      6  C   UNL     1       8.985  -2.107   3.719  0.00  0.00    +0.000 A 
ATOM      7  C   UNL     1       9.175  -0.767   4.094  0.00  0.00    +0.000 A 
ATOM      8  C   UNL     1       9.473   0.227   3.148  0.00  0.00    +0.000 A 
ATOM      9  C   UNL     1       9.600  -0.196   1.817  0.00  0.00    +0.000 A 
ENDROOT
BRANCH   6  10
ATOM     10  C   UNL     1       8.495  -3.161   4.654  0.00  0.00    +0.000 C 
ATOM     11  N   UNL     1       8.307  -2.848   5.970  0.00  0.00    +0.000 N 
ATOM     12  O   UNL     1       8.238  -4.295   4.261  0.00  0.00    +0.000 OA
ATOM     13  H   UNL     1       8.516  -1.961   6.399  0.00  0.00    +0.000 HD
ATOM     14  H   UNL     1       7.957  -3.592   6.559  0.00  0.00    +0.000 HD
ENDBRANCH   6  10
BRANCH   1  15
ATOM     15  C   UNL     1       8.980   1.695   0.264  0.00  0.00    +0.000 C 
BRANCH  15  19
ATOM     16  C   UNL     1       4.691   0.971   0.393  0.00  0.00    +0.000 A 
ATOM     17  C   UNL     1       5.350   1.580   1.468  0.00  0.00    +0.000 A 
ATOM     18  C   UNL     1       6.721   1.855   1.410  0.00  0.00    +0.000 A 
ATOM     19  C   UNL     1       7.475   1.507   0.284  0.00  0.00    +0.000 A 
ATOM     20  C   UNL     1       6.824   0.873  -0.785  0.00  0.00    +0.000 A 
ATOM     21  C   UNL     1       5.451   0.607  -0.729  0.00  0.00    +0.000 A 
BRANCH  16  22
ATOM     22  C   UNL     1       3.218   0.614   0.427  0.00  0.00    +0.000 C 
BRANCH  22  23
ATOM     23  C   UNL     1       2.327   1.567   1.238  0.00  0.00    +0.000 C 
BRANCH  23  24
ATOM     24  N   UNL     1       0.917   1.184   1.152  0.00  0.00    +0.000 NA
ATOM     25  H   UNL     1       0.359   1.824   1.717  0.00  0.00    +0.000 HD
ATOM     26  H   UNL     1       0.789   0.259   1.562  0.00  0.00    +0.000 HD
ENDBRANCH  23  24
ENDBRANCH  22  23
ENDBRANCH  16  22
ENDBRANCH  15  19
ENDBRANCH   1  15
TORSDOF 6
