REMARK  Name = 
REMARK  4 active torsions:
REMARK  status: ('A' for Active; 'I' for Inactive)
REMARK    1  A    between atoms: C_2  and  C_3
REMARK    2  A    between atoms: C_6  and  N_7
REMARK    3  A    between atoms: N_7  and  C_8
REMARK    4  A    between atoms: C_8  and  C_9
REMARK                            x       y       z     vdW  Elec       q    Type
REMARK                         _______ _______ _______ _____ _____    ______ ____
ROOT
ATOM      1  N   UNL     1       7.680  -0.062  -0.252  0.00  0.00    +0.000 N 
ATOM      2  H   UNL     1       7.292   0.481  -1.015  0.00  0.00    +0.000 HD
ENDROOT
BRANCH   1   6
ATOM      3  C   UNL     1       5.048  -0.385   2.899  0.00  0.00    +0.000 A 
ATOM      4  C   UNL     1       5.676  -1.507   2.393  0.00  0.00    +0.000 A 
ATOM      5  N   UNL     1       6.549  -1.446   1.357  0.00  0.00    +0.000 NA
ATOM      6  C   UNL     1       6.783  -0.233   0.815  0.00  0.00    +0.000 A 
ATOM      7  C   UNL     1       6.143   0.889   1.352  0.00  0.00    +0.000 A 
ATOM      8  N   UNL     1       5.268   0.849   2.392  0.00  0.00    +0.000 NA
BRANCH   3  10
ATOM      9  N   UNL     1       3.388  -0.628   4.876  0.00  0.00    +0.000 NA
ATOM     10  C   UNL     1       4.130  -0.492   3.989  0.00  0.00    +0.000 C 
ENDBRANCH   3  10
ENDBRANCH   1   6
BRANCH   1  11
ATOM     11  C   UNL     1       8.809  -0.948  -0.561  0.00  0.00    +0.000 C 
ATOM     12  C   UNL     1       8.585  -2.092  -1.541  0.00  0.00    +0.000 C 
ATOM     13  C   UNL     1       8.931  -2.399  -0.123  0.00  0.00    +0.000 C 
BRANCH  11  14
ATOM     14  C   UNL     1      10.134  -0.195  -0.646  0.00  0.00    +0.000 A 
ATOM     15  C   UNL     1      10.894   0.034   0.513  0.00  0.00    +0.000 A 
ATOM     16  C   UNL     1      12.196   0.530   0.440  0.00  0.00    +0.000 A 
ATOM     17  C   UNL     1      12.752   0.835  -0.799  0.00  0.00    +0.000 A 
ATOM     18  C   UNL     1      11.988   0.700  -1.955  0.00  0.00    +0.000 A 
ATOM     19  C   UNL     1      10.684   0.207  -1.875  0.00  0.00    +0.000 A 
ENDBRANCH  11  14
ENDBRANCH   1  11
TORSDOF 4
