REMARK  Name = 
REMARK  8 active torsions:
REMARK  status: ('A' for Active; 'I' for Inactive)
REMARK    1  A    between atoms: C_2  and  C_3
REMARK    2  A    between atoms: C_3  and  N_4
REMARK    3  A    between atoms: C_5  and  C_7
REMARK    4  A    between atoms: N_12  and  C_13
REMARK    5  A    between atoms: C_13  and  C_14
REMARK    6  A    between atoms: C_17  and  C_18
REMARK    7  A    between atoms: C_18  and  N_19
REMARK    8  A    between atoms: C_20  and  C_22
REMARK                            x       y       z     vdW  Elec       q    Type
REMARK                         _______ _______ _______ _____ _____    ______ ____
ROOT
ATOM      1  C   UNL     1       7.986   0.384 -10.254  0.00  0.00    +0.000 A 
ATOM      2  C   UNL     1       8.460   1.689 -10.449  0.00  0.00    +0.000 A 
ATOM      3  C   UNL     1       9.633   1.923 -11.180  0.00  0.00    +0.000 A 
ATOM      4  C   UNL     1      10.347   0.857 -11.745  0.00  0.00    +0.000 A 
ATOM      5  C   UNL     1       9.880  -0.447 -11.535  0.00  0.00    +0.000 A 
ATOM      6  C   UNL     1       8.708  -0.680 -10.809  0.00  0.00    +0.000 A 
ENDROOT
BRANCH   1   7
ATOM      7  C   UNL     1       6.712   0.121  -9.491  0.00  0.00    +0.000 C 
BRANCH   7  10
ATOM      8  O   UNL     1       4.283  -1.294  -9.125  0.00  0.00    +0.000 OA
ATOM      9  C   UNL     1       4.394  -0.515 -10.070  0.00  0.00    +0.000 C 
ATOM     10  N   UNL     1       5.553   0.172 -10.354  0.00  0.00    +0.000 N 
ATOM     11  H   UNL     1       5.599   0.727 -11.205  0.00  0.00    +0.000 HD
BRANCH   9  12
ATOM     12  C   UNL     1       3.262  -0.303 -11.080  0.00  0.00    +0.000 C 
BRANCH  12  13
ATOM     13  N   UNL     1       3.350  -1.240 -12.186  0.00  0.00    +0.000 N 
ATOM     14  C   UNL     1       4.093  -0.935 -13.301  0.00  0.00    +0.000 C 
ATOM     15  O   UNL     1       4.691   0.135 -13.403  0.00  0.00    +0.000 OA
ATOM     16  H   UNL     1       2.927  -2.157 -12.089  0.00  0.00    +0.000 HD
BRANCH  14  17
ATOM     17  C   UNL     1       4.104  -2.035 -14.385  0.00  0.00    +0.000 C 
ATOM     18  C   UNL     1       4.901  -1.637 -15.616  0.00  0.00    +0.000 C 
ATOM     19  C   UNL     1       6.338  -1.915 -15.208  0.00  0.00    +0.000 C 
ATOM     20  C   UNL     1       6.239  -3.038 -14.185  0.00  0.00    +0.000 C 
ATOM     21  N   UNL     1       4.813  -3.238 -13.901  0.00  0.00    +0.000 NA
ATOM     22  H   UNL     1       4.673  -3.375 -12.902  0.00  0.00    +0.000 HD
ENDBRANCH  14  17
ENDBRANCH  12  13
ENDBRANCH   9  12
ENDBRANCH   7  10
ENDBRANCH   1   7
BRANCH   4  23
ATOM     23  C   UNL     1      11.603   1.090 -12.549  0.00  0.00    +0.000 C 
BRANCH  23  24
ATOM     24  N   UNL     1      12.783   1.057 -11.721  0.00  0.00    +0.000 N 
ATOM     25  C   UNL     1      14.029   1.290 -12.247  0.00  0.00    +0.000 C 
ATOM     26  O   UNL     1      14.197   1.569 -13.432  0.00  0.00    +0.000 OA
ATOM     27  H   UNL     1      12.705   0.577 -10.830  0.00  0.00    +0.000 HD
BRANCH  25  28
ATOM     28  C   UNL     1      15.157   1.250 -11.305  0.00  0.00    +0.000 A 
ATOM     29  C   UNL     1      16.315   1.964 -11.580  0.00  0.00    +0.000 A 
ATOM     30  S   UNL     1      17.503   1.838 -10.361  0.00  0.00    +0.000 S 
ATOM     31  C   UNL     1      16.531   0.782  -9.448  0.00  0.00    +0.000 A 
ATOM     32  N   UNL     1      16.977   0.258  -8.275  0.00  0.00    +0.000 NA
ATOM     33  C   UNL     1      16.150  -0.554  -7.704  0.00  0.00    +0.000 A 
ATOM     34  N   UNL     1      14.913  -0.878  -8.196  0.00  0.00    +0.000 N 
ATOM     35  C   UNL     1      14.407  -0.349  -9.357  0.00  0.00    +0.000 A 
ATOM     36  O   UNL     1      13.274  -0.620  -9.743  0.00  0.00    +0.000 OA
ATOM     37  C   UNL     1      15.308   0.551 -10.051  0.00  0.00    +0.000 A 
ATOM     38  H   UNL     1      14.304  -1.511  -7.693  0.00  0.00    +0.000 HD
ENDBRANCH  25  28
ENDBRANCH  23  24
ENDBRANCH   4  23
TORSDOF 8
