REMARK  Name = 
REMARK  6 active torsions:
REMARK  status: ('A' for Active; 'I' for Inactive)
REMARK    1  A    between atoms: C_2  and  C_19
REMARK    2  A    between atoms: N_3  and  C_4
REMARK    3  A    between atoms: C_4  and  C_5
REMARK    4  A    between atoms: C_8  and  C_9
REMARK    5  A    between atoms: C_9  and  O_10
REMARK    6  A    between atoms: O_10  and  C_11
REMARK                            x       y       z     vdW  Elec       q    Type
REMARK                         _______ _______ _______ _____ _____    ______ ____
ROOT
ATOM      1  O   UNL     1       0.490  -0.750  -1.904  0.00  0.00    +0.000 OA
ATOM      2  C   UNL     1       0.530  -0.062  -2.914  0.00  0.00    +0.000 C 
ATOM      3  N   UNL     1       1.277   1.090  -3.043  0.00  0.00    +0.000 N 
ATOM      4  H   UNL     1       1.336   1.525  -3.953  0.00  0.00    +0.000 HD
ENDROOT
BRANCH   2   5
ATOM      5  C   UNL     1      -0.031  -0.456  -4.196  0.00  0.00    +0.000 A 
ATOM      6  C   UNL     1       0.060  -1.748  -4.684  0.00  0.00    +0.000 A 
ATOM      7  S   UNL     1      -0.176  -1.803  -6.385  0.00  0.00    +0.000 S 
ATOM      8  C   UNL     1      -0.517  -0.132  -6.453  0.00  0.00    +0.000 A 
ATOM      9  N   UNL     1      -0.666   0.540  -7.624  0.00  0.00    +0.000 NA
ATOM     10  C   UNL     1      -0.950   1.796  -7.485  0.00  0.00    +0.000 A 
ATOM     11  N   UNL     1      -1.154   2.429  -6.284  0.00  0.00    +0.000 N 
ATOM     12  C   UNL     1      -1.044   1.783  -5.076  0.00  0.00    +0.000 A 
ATOM     13  O   UNL     1      -1.302   2.338  -4.016  0.00  0.00    +0.000 OA
ATOM     14  C   UNL     1      -0.591   0.412  -5.190  0.00  0.00    +0.000 A 
ATOM     15  H   UNL     1      -1.451   3.392  -6.243  0.00  0.00    +0.000 HD
ENDBRANCH   2   5
BRANCH   3  16
ATOM     16  C   UNL     1       2.254   1.540  -2.087  0.00  0.00    +0.000 C 
BRANCH  16  17
ATOM     17  C   UNL     1       3.222   2.454  -2.803  0.00  0.00    +0.000 A 
ATOM     18  C   UNL     1       2.988   3.834  -2.880  0.00  0.00    +0.000 A 
ATOM     19  C   UNL     1       3.834   4.659  -3.629  0.00  0.00    +0.000 A 
ATOM     20  C   UNL     1       4.915   4.118  -4.337  0.00  0.00    +0.000 A 
ATOM     21  C   UNL     1       5.149   2.739  -4.262  0.00  0.00    +0.000 A 
ATOM     22  C   UNL     1       4.305   1.915  -3.513  0.00  0.00    +0.000 A 
BRANCH  20  23
ATOM     23  C   UNL     1       5.823   5.001  -5.163  0.00  0.00    +0.000 C 
BRANCH  23  24
ATOM     24  O   UNL     1       6.875   5.483  -4.337  0.00  0.00    +0.000 OA
BRANCH  24  25
ATOM     25  C   UNL     1       7.669   6.384  -5.013  0.00  0.00    +0.000 A 
ATOM     26  N   UNL     1       8.309   7.271  -4.238  0.00  0.00    +0.000 NA
ATOM     27  C   UNL     1       9.084   8.163  -4.880  0.00  0.00    +0.000 A 
ATOM     28  C   UNL     1       9.247   8.187  -6.246  0.00  0.00    +0.000 A 
ATOM     29  C   UNL     1       8.558   7.221  -6.940  0.00  0.00    +0.000 A 
ATOM     30  N   UNL     1       7.760   6.310  -6.353  0.00  0.00    +0.000 NA
ENDBRANCH  24  25
ENDBRANCH  23  24
ENDBRANCH  20  23
ENDBRANCH  16  17
ENDBRANCH   3  16
TORSDOF 6
