REMARK  Name = 
REMARK  6 active torsions:
REMARK  status: ('A' for Active; 'I' for Inactive)
REMARK    1  A    between atoms: N_1  and  C_2
REMARK    2  A    between atoms: C_2  and  C_3
REMARK    3  A    between atoms: C_2  and  C_16
REMARK    4  A    between atoms: C_3  and  C_4
REMARK    5  A    between atoms: C_7  and  C_8
REMARK    6  A    between atoms: C_8  and  N_9
REMARK                            x       y       z     vdW  Elec       q    Type
REMARK                         _______ _______ _______ _____ _____    ______ ____
ROOT
ATOM      1  C   UNL     1      -0.036   1.306  -0.788  0.00  0.00    +0.000 C 
ENDROOT
BRANCH   1   2
ATOM      2  C   UNL     1       0.745   2.233  -1.716  0.00  0.00    +0.000 A 
ATOM      3  C   UNL     1       0.613   2.190  -3.097  0.00  0.00    +0.000 A 
ATOM      4  S   UNL     1       1.614   3.305  -3.917  0.00  0.00    +0.000 S 
ATOM      5  C   UNL     1       2.213   3.936  -2.454  0.00  0.00    +0.000 A 
ATOM      6  N   UNL     1       3.098   4.969  -2.446  0.00  0.00    +0.000 NA
ATOM      7  C   UNL     1       3.431   5.377  -1.267  0.00  0.00    +0.000 A 
ATOM      8  N   UNL     1       2.970   4.832  -0.094  0.00  0.00    +0.000 N 
ATOM      9  C   UNL     1       2.081   3.779  -0.054  0.00  0.00    +0.000 A 
ATOM     10  O   UNL     1       1.669   3.338   1.015  0.00  0.00    +0.000 OA
ATOM     11  C   UNL     1       1.672   3.289  -1.355  0.00  0.00    +0.000 A 
ATOM     12  H   UNL     1       3.259   5.211   0.796  0.00  0.00    +0.000 HD
ENDBRANCH   1   2
BRANCH   1  13
ATOM     13  N   UNL     1      -0.821   2.136   0.123  0.00  0.00    +0.000 NA
ATOM     14  H   UNL     1      -1.248   2.904  -0.393  0.00  0.00    +0.000 HD
ATOM     15  H   UNL     1      -0.187   2.563   0.806  0.00  0.00    +0.000 HD
ENDBRANCH   1  13
BRANCH   1  16
ATOM     16  C   UNL     1       0.870   0.284  -0.057  0.00  0.00    +0.000 C 
BRANCH  16  17
ATOM     17  C   UNL     1       0.251  -0.804   0.797  0.00  0.00    +0.000 A 
ATOM     18  C   UNL     1       1.101  -1.783   1.325  0.00  0.00    +0.000 A 
ATOM     19  C   UNL     1       0.594  -2.814   2.110  0.00  0.00    +0.000 A 
ATOM     20  C   UNL     1      -0.762  -2.837   2.413  0.00  0.00    +0.000 A 
ATOM     21  N   UNL     1      -1.614  -1.903   1.917  0.00  0.00    +0.000 NA
ATOM     22  C   UNL     1      -1.095  -0.923   1.124  0.00  0.00    +0.000 A 
BRANCH  20  23
ATOM     23  C   UNL     1      -1.322  -3.943   3.299  0.00  0.00    +0.000 C 
BRANCH  23  24
ATOM     24  N   UNL     1      -1.241  -3.794   4.764  0.00  0.00    +0.000 NA
ATOM     25  C   UNL     1      -2.038  -2.690   5.299  0.00  0.00    +0.000 C 
ATOM     26  C   UNL     1      -1.061  -1.563   5.564  0.00  0.00    +0.000 C 
ATOM     27  C   UNL     1       0.242  -2.266   5.892  0.00  0.00    +0.000 C 
ATOM     28  C   UNL     1       0.104  -3.674   5.325  0.00  0.00    +0.000 C 
ENDBRANCH  23  24
ENDBRANCH  20  23
ENDBRANCH  16  17
ENDBRANCH   1  16
TORSDOF 6
