REMARK  Name = 
REMARK  4 active torsions:
REMARK  status: ('A' for Active; 'I' for Inactive)
REMARK    1  A    between atoms: C_2  and  C_4
REMARK    2  A    between atoms: N_8  and  C_9
REMARK    3  A    between atoms: C_9  and  C_10
REMARK    4  A    between atoms: C_14  and  C_15
REMARK                            x       y       z     vdW  Elec       q    Type
REMARK                         _______ _______ _______ _____ _____    ______ ____
ROOT
ATOM      1  C   UNL     1       7.883  -0.854  -1.486  0.00  0.00    +0.000 A 
ATOM      2  C   UNL     1       7.883  -0.816  -2.876  0.00  0.00    +0.000 A 
ATOM      3  C   UNL     1       7.026  -1.662  -3.576  0.00  0.00    +0.000 A 
ATOM      4  C   UNL     1       6.189  -2.534  -2.887  0.00  0.00    +0.000 A 
ATOM      5  N   UNL     1       5.289  -3.358  -3.491  0.00  0.00    +0.000 N 
ATOM      6  N   UNL     1       6.208  -2.600  -1.539  0.00  0.00    +0.000 NA
ATOM      7  C   UNL     1       7.053  -1.773  -0.868  0.00  0.00    +0.000 A 
ATOM      8  H   UNL     1       4.787  -3.954  -2.844  0.00  0.00    +0.000 HD
ENDROOT
BRANCH   1  10
ATOM      9  N   UNL     1       9.065   1.244  -1.212  0.00  0.00    +0.000 N 
ATOM     10  C   UNL     1       8.725   0.037  -0.665  0.00  0.00    +0.000 C 
ATOM     11  O   UNL     1       9.071  -0.270   0.467  0.00  0.00    +0.000 OA
ATOM     12  H   UNL     1       9.554   1.893  -0.607  0.00  0.00    +0.000 HD
ATOM     13  H   UNL     1       8.601   1.626  -2.024  0.00  0.00    +0.000 HD
ENDBRANCH   1  10
BRANCH   5  14
ATOM     14  C   UNL     1       4.992  -3.431  -4.898  0.00  0.00    +0.000 C 
BRANCH  14  15
ATOM     15  C   UNL     1       5.864  -4.452  -5.581  0.00  0.00    +0.000 A 
ATOM     16  C   UNL     1       5.775  -5.804  -5.247  0.00  0.00    +0.000 A 
ATOM     17  C   UNL     1       6.566  -6.707  -5.934  0.00  0.00    +0.000 A 
ATOM     18  N   UNL     1       7.429  -6.358  -6.912  0.00  0.00    +0.000 NA
ATOM     19  C   UNL     1       7.545  -5.042  -7.220  0.00  0.00    +0.000 A 
ATOM     20  C   UNL     1       6.770  -4.073  -6.579  0.00  0.00    +0.000 A 
BRANCH  19  21
ATOM     21  C   UNL     1       8.518  -4.715  -8.275  0.00  0.00    +0.000 A 
ATOM     22  C   UNL     1       8.777  -5.592  -9.338  0.00  0.00    +0.000 A 
ATOM     23  C   UNL     1       9.701  -5.257 -10.328  0.00  0.00    +0.000 A 
ATOM     24  C   UNL     1      10.353  -4.042 -10.232  0.00  0.00    +0.000 A 
ATOM     25  N   UNL     1      10.147  -3.162  -9.231  0.00  0.00    +0.000 NA
ATOM     26  C   UNL     1       9.248  -3.525  -8.282  0.00  0.00    +0.000 A 
ENDBRANCH  19  21
ENDBRANCH  14  15
ENDBRANCH   5  14
TORSDOF 4
