REMARK  Name = 
REMARK  5 active torsions:
REMARK  status: ('A' for Active; 'I' for Inactive)
REMARK    1  A    between atoms: C_1  and  C_2
REMARK    2  A    between atoms: C_2  and  C_3
REMARK    3  A    between atoms: C_2  and  C_14
REMARK    4  A    between atoms: C_3  and  N_4
REMARK    5  A    between atoms: C_8  and  C_9
REMARK                            x       y       z     vdW  Elec       q    Type
REMARK                         _______ _______ _______ _____ _____    ______ ____
ROOT
ATOM      1  N   UNL     1       2.878   0.828   2.387  0.00  0.00    +0.000 N 
ATOM      2  C   UNL     1       3.430   0.640   3.674  0.00  0.00    +0.000 A 
ATOM      3  C   UNL     1       3.399   1.677   4.619  0.00  0.00    +0.000 A 
ATOM      4  N   UNL     1       3.904   1.581   5.882  0.00  0.00    +0.000 NA
ATOM      5  C   UNL     1       4.476   0.378   6.165  0.00  0.00    +0.000 A 
ATOM      6  C   UNL     1       4.532  -0.649   5.241  0.00  0.00    +0.000 A 
ATOM      7  N   UNL     1       4.016  -0.535   3.992  0.00  0.00    +0.000 NA
ATOM      8  H   UNL     1       1.922   1.149   2.489  0.00  0.00    +0.000 HD
ENDROOT
BRANCH   5   9
ATOM      9  C   UNL     1       5.054   0.163   7.520  0.00  0.00    +0.000 C 
ATOM     10  N   UNL     1       4.968   1.219   8.385  0.00  0.00    +0.000 N 
ATOM     11  O   UNL     1       5.573  -0.895   7.849  0.00  0.00    +0.000 OA
ATOM     12  H   UNL     1       4.542   2.089   8.088  0.00  0.00    +0.000 HD
ATOM     13  H   UNL     1       5.352   1.127   9.315  0.00  0.00    +0.000 HD
ENDBRANCH   5   9
BRANCH   1  14
ATOM     14  C   UNL     1       2.973  -0.379   1.570  0.00  0.00    +0.000 C 
BRANCH  14  16
ATOM     15  C   UNL     1       0.880   0.223   0.181  0.00  0.00    +0.000 C 
ATOM     16  C   UNL     1       2.332  -0.160   0.223  0.00  0.00    +0.000 C 
BRANCH  16  17
ATOM     17  C   UNL     1       2.903  -0.993  -0.925  0.00  0.00    +0.000 C 
ATOM     18  C   UNL     1       2.728  -0.315  -2.297  0.00  0.00    +0.000 C 
ATOM     19  C   UNL     1       3.229  -1.188  -3.447  0.00  0.00    +0.000 C 
ATOM     20  C   UNL     1       2.565  -2.560  -3.426  0.00  0.00    +0.000 C 
ATOM     21  C   UNL     1       2.814  -3.262  -2.098  0.00  0.00    +0.000 C 
ATOM     22  C   UNL     1       2.324  -2.422  -0.919  0.00  0.00    +0.000 C 
ENDBRANCH  16  17
ENDBRANCH  14  16
ENDBRANCH   1  14
TORSDOF 4
