REMARK  Name = 
REMARK  6 active torsions:
REMARK  status: ('A' for Active; 'I' for Inactive)
REMARK    1  A    between atoms: C_1  and  N_2
REMARK    2  A    between atoms: C_3  and  C_5
REMARK    3  A    between atoms: C_8  and  N_9
REMARK    4  A    between atoms: N_9  and  C_10
REMARK    5  A    between atoms: C_10  and  C_11
REMARK    6  A    between atoms: C_10  and  C_12
REMARK                            x       y       z     vdW  Elec       q    Type
REMARK                         _______ _______ _______ _____ _____    ______ ____
ROOT
ATOM      1  C   UNL     1       4.704   0.840   0.678  0.00  0.00    +0.000 A 
ATOM      2  C   UNL     1       5.512  -0.017  -0.072  0.00  0.00    +0.000 A 
ATOM      3  C   UNL     1       6.901   0.140  -0.060  0.00  0.00    +0.000 A 
ATOM      4  C   UNL     1       7.514   1.161   0.669  0.00  0.00    +0.000 A 
ATOM      5  C   UNL     1       6.698   1.968   1.472  0.00  0.00    +0.000 A 
ATOM      6  C   UNL     1       5.305   1.830   1.461  0.00  0.00    +0.000 A 
ENDROOT
BRANCH   1   9
ATOM      7  C   UNL     1       1.249  -0.632   0.207  0.00  0.00    +0.000 C 
ATOM      8  N   UNL     1       2.673  -0.463   0.327  0.00  0.00    +0.000 N 
ATOM      9  C   UNL     1       3.218   0.769   0.618  0.00  0.00    +0.000 C 
ATOM     10  O   UNL     1       2.543   1.772   0.827  0.00  0.00    +0.000 OA
ATOM     11  H   UNL     1       3.258  -1.289   0.339  0.00  0.00    +0.000 HD
ENDBRANCH   1   9
BRANCH   4  12
ATOM     12  N   UNL     1       8.891   1.388   0.695  0.00  0.00    +0.000 N 
ATOM     13  H   UNL     1       9.300   1.059   1.565  0.00  0.00    +0.000 HD
BRANCH  12  14
ATOM     14  C   UNL     1       9.717   1.093  -0.482  0.00  0.00    +0.000 C 
ATOM     15  C   UNL     1      10.866   2.105  -0.529  0.00  0.00    +0.000 C 
BRANCH  14  16
ATOM     16  C   UNL     1      10.247  -0.332  -0.471  0.00  0.00    +0.000 A 
ATOM     17  C   UNL     1       9.940  -1.197  -1.539  0.00  0.00    +0.000 A 
ATOM     18  C   UNL     1      10.388  -2.519  -1.542  0.00  0.00    +0.000 A 
ATOM     19  C   UNL     1      11.168  -2.991  -0.491  0.00  0.00    +0.000 A 
ATOM     20  C   UNL     1      11.506  -2.140   0.562  0.00  0.00    +0.000 A 
ATOM     21  C   UNL     1      11.047  -0.821   0.572  0.00  0.00    +0.000 A 
ENDBRANCH  14  16
ENDBRANCH  12  14
ENDBRANCH   4  12
TORSDOF 4
