REMARK  Name = 
REMARK  6 active torsions:
REMARK  status: ('A' for Active; 'I' for Inactive)
REMARK    1  A    between atoms: C_1  and  C_2
REMARK    2  A    between atoms: C_4  and  C_5
REMARK    3  A    between atoms: C_7  and  C_8
REMARK    4  A    between atoms: C_8  and  N_9
REMARK    5  A    between atoms: N_9  and  C_10
REMARK    6  A    between atoms: C_13  and  C_14
REMARK                            x       y       z     vdW  Elec       q    Type
REMARK                         _______ _______ _______ _____ _____    ______ ____
ROOT
ATOM      1  N   UNL     1      -2.472   1.603  -1.691  0.00  0.00    +0.000 N 
ATOM      2  H   UNL     1      -3.185   1.452  -2.406  0.00  0.00    +0.000 HD
ENDROOT
BRANCH   1   3
ATOM      3  C   UNL     1      -2.110   2.973  -1.709  0.00  0.00    +0.000 A 
ATOM      4  C   UNL     1      -1.449   3.464  -2.842  0.00  0.00    +0.000 A 
ATOM      5  C   UNL     1      -1.116   4.813  -2.947  0.00  0.00    +0.000 A 
ATOM      6  C   UNL     1      -1.491   5.662  -1.913  0.00  0.00    +0.000 A 
ATOM      7  N   UNL     1      -2.157   5.247  -0.801  0.00  0.00    +0.000 NA
ATOM      8  C   UNL     1      -2.439   3.916  -0.732  0.00  0.00    +0.000 A 
BRANCH   6   9
ATOM      9  C   UNL     1      -1.157   7.120  -2.014  0.00  0.00    +0.000 C 
ATOM     10  N   UNL     1      -1.576   7.905  -0.976  0.00  0.00    +0.000 N 
ATOM     11  O   UNL     1      -0.549   7.596  -2.966  0.00  0.00    +0.000 OA
ATOM     12  H   UNL     1      -2.074   7.481  -0.198  0.00  0.00    +0.000 HD
ATOM     13  H   UNL     1      -1.377   8.894  -0.984  0.00  0.00    +0.000 HD
ENDBRANCH   6   9
ENDBRANCH   1   3
BRANCH   1  14
ATOM     14  C   UNL     1      -2.737   0.862  -0.433  0.00  0.00    +0.000 C 
ATOM     15  C   UNL     1      -4.008   1.178   0.335  0.00  0.00    +0.000 C 
ATOM     16  C   UNL     1      -3.921  -0.120  -0.383  0.00  0.00    +0.000 C 
BRANCH  14  23
ATOM     17  C   UNL     1       0.298  -3.137  -0.200  0.00  0.00    +0.000 C 
ATOM     18  C   UNL     1      -0.054  -1.778   0.336  0.00  0.00    +0.000 A 
ATOM     19  C   UNL     1       0.454  -1.327   1.551  0.00  0.00    +0.000 A 
ATOM     20  C   UNL     1       0.030  -0.106   2.097  0.00  0.00    +0.000 A 
ATOM     21  C   UNL     1       0.571   0.359   3.412  0.00  0.00    +0.000 C 
ATOM     22  C   UNL     1      -0.942   0.654   1.417  0.00  0.00    +0.000 A 
ATOM     23  C   UNL     1      -1.503   0.213   0.209  0.00  0.00    +0.000 A 
ATOM     24  C   UNL     1      -0.988  -0.983  -0.340  0.00  0.00    +0.000 A 
ENDBRANCH  14  23
ENDBRANCH   1  14
TORSDOF 4
