REMARK  Name = 
REMARK  10 active torsions:
REMARK  status: ('A' for Active; 'I' for Inactive)
REMARK    1  A    between atoms: C_1  and  C_2
REMARK    2  A    between atoms: C_2  and  C_3
REMARK    3  A    between atoms: C_2  and  N_10
REMARK    4  A    between atoms: C_3  and  C_4
REMARK    5  A    between atoms: N_10  and  C_11
REMARK    6  A    between atoms: C_11  and  C_12
REMARK    7  A    between atoms: C_15  and  C_16
REMARK    8  A    between atoms: C_16  and  N_17
REMARK    9  A    between atoms: C_18  and  C_20
REMARK   10  A    between atoms: N_26  and  C_27
REMARK                            x       y       z     vdW  Elec       q    Type
REMARK                         _______ _______ _______ _____ _____    ______ ____
ROOT
ATOM      1  C   UNL     1       4.930   2.087  -2.089  0.00  0.00    +0.000 A 
ATOM      2  C   UNL     1       4.666   3.428  -1.818  0.00  0.00    +0.000 A 
ATOM      3  C   UNL     1       4.981   4.385  -2.777  0.00  0.00    +0.000 A 
ATOM      4  C   UNL     1       5.567   3.990  -3.982  0.00  0.00    +0.000 A 
ATOM      5  C   UNL     1       5.792   2.630  -4.168  0.00  0.00    +0.000 A 
ATOM      6  N   UNL     1       5.493   1.675  -3.255  0.00  0.00    +0.000 NA
ENDROOT
BRANCH   1   7
ATOM      7  C   UNL     1       4.476   1.024  -1.112  0.00  0.00    +0.000 C 
BRANCH   7   8
ATOM      8  N   UNL     1       3.011   0.945  -0.964  0.00  0.00    +0.000 NA
ATOM      9  H   UNL     1       2.797   0.229  -0.271  0.00  0.00    +0.000 HD
BRANCH   8  11
ATOM     10  C   UNL     1       0.804   0.796  -1.920  0.00  0.00    +0.000 C 
ATOM     11  C   UNL     1       2.299   0.634  -2.225  0.00  0.00    +0.000 C 
BRANCH  11  12
ATOM     12  C   UNL     1       2.654  -0.776  -2.753  0.00  0.00    +0.000 C 
BRANCH  12  13
ATOM     13  C   UNL     1       1.951  -1.197  -4.018  0.00  0.00    +0.000 A 
ATOM     14  C   UNL     1       2.544  -0.999  -5.265  0.00  0.00    +0.000 A 
ATOM     15  C   UNL     1       1.878  -1.458  -6.390  0.00  0.00    +0.000 A 
ATOM     16  N   UNL     1       0.653  -2.024  -6.368  0.00  0.00    +0.000 NA
ATOM     17  C   UNL     1       0.098  -2.204  -5.152  0.00  0.00    +0.000 A 
ATOM     18  C   UNL     1       0.709  -1.830  -3.963  0.00  0.00    +0.000 A 
ENDBRANCH  12  13
ENDBRANCH  11  12
ENDBRANCH   8  11
ENDBRANCH   7   8
ENDBRANCH   1   7
BRANCH   4  19
ATOM     19  C   UNL     1       5.849   4.979  -5.077  0.00  0.00    +0.000 C 
BRANCH  19  20
ATOM     20  N   UNL     1       4.691   5.139  -5.920  0.00  0.00    +0.000 N 
ATOM     21  C   UNL     1       4.681   5.988  -6.996  0.00  0.00    +0.000 C 
ATOM     22  O   UNL     1       5.609   6.756  -7.231  0.00  0.00    +0.000 OA
ATOM     23  H   UNL     1       4.017   4.382  -5.897  0.00  0.00    +0.000 HD
BRANCH  21  24
ATOM     24  C   UNL     1       3.470   5.960  -7.830  0.00  0.00    +0.000 A 
ATOM     25  C   UNL     1       3.122   7.061  -8.597  0.00  0.00    +0.000 A 
ATOM     26  S   UNL     1       1.663   6.861  -9.459  0.00  0.00    +0.000 S 
ATOM     27  C   UNL     1       1.470   5.276  -8.874  0.00  0.00    +0.000 A 
ATOM     28  N   UNL     1       0.407   4.516  -9.250  0.00  0.00    +0.000 NA
ATOM     29  C   UNL     1       0.397   3.327  -8.740  0.00  0.00    +0.000 A 
ATOM     30  N   UNL     1       1.353   2.820  -7.891  0.00  0.00    +0.000 N 
ATOM     31  C   UNL     1       1.253   1.469  -7.397  0.00  0.00    +0.000 C 
ATOM     32  C   UNL     1       2.459   3.558  -7.495  0.00  0.00    +0.000 A 
ATOM     33  O   UNL     1       3.328   3.114  -6.746  0.00  0.00    +0.000 OA
ATOM     34  C   UNL     1       2.498   4.909  -8.027  0.00  0.00    +0.000 A 
ENDBRANCH  21  24
ENDBRANCH  19  20
ENDBRANCH   4  19
TORSDOF 8
