REMARK  Name = 
REMARK  6 active torsions:
REMARK  status: ('A' for Active; 'I' for Inactive)
REMARK    1  A    between atoms: C_2  and  C_4
REMARK    2  A    between atoms: N_8  and  C_9
REMARK    3  A    between atoms: C_9  and  C_10
REMARK    4  A    between atoms: C_10  and  C_13
REMARK    5  A    between atoms: C_17  and  N_18
REMARK    6  A    between atoms: N_18  and  C_19
REMARK                            x       y       z     vdW  Elec       q    Type
REMARK                         _______ _______ _______ _____ _____    ______ ____
ROOT
ATOM      1  C   UNL     1       6.006   1.779  -6.975  0.00  0.00    +0.000 C 
ATOM      2  F   UNL     1       5.015   0.860  -6.769  0.00  0.00    +0.000 F 
ATOM      3  F   UNL     1       6.324   2.246  -5.730  0.00  0.00    +0.000 F 
ENDROOT
BRANCH   1   4
ATOM      4  C   UNL     1       5.559   2.893  -7.903  0.00  0.00    +0.000 A 
ATOM      5  C   UNL     1       4.692   2.633  -8.971  0.00  0.00    +0.000 A 
ATOM      6  C   UNL     1       4.316   3.661  -9.837  0.00  0.00    +0.000 A 
ATOM      7  C   UNL     1       4.812   4.955  -9.653  0.00  0.00    +0.000 A 
ATOM      8  C   UNL     1       5.670   5.240  -8.590  0.00  0.00    +0.000 A 
ATOM      9  C   UNL     1       6.038   4.201  -7.724  0.00  0.00    +0.000 A 
BRANCH   8  10
ATOM     10  N   UNL     1       6.225   6.516  -8.359  0.00  0.00    +0.000 N 
ATOM     11  H   UNL     1       6.011   6.816  -7.407  0.00  0.00    +0.000 HD
BRANCH  10  12
ATOM     12  C   UNL     1       6.322   7.594  -9.296  0.00  0.00    +0.000 C 
ATOM     13  C   UNL     1       7.374   7.321 -10.387  0.00  0.00    +0.000 C 
ATOM     14  C   UNL     1       8.008   8.689 -10.081  0.00  0.00    +0.000 C 
ATOM     15  F   UNL     1       9.356   8.692  -9.958  0.00  0.00    +0.000 F 
ATOM     16  F   UNL     1       7.698   9.677 -10.952  0.00  0.00    +0.000 F 
ATOM     17  C   UNL     1       7.227   8.717  -8.756  0.00  0.00    +0.000 C 
ENDBRANCH  10  12
ENDBRANCH   8  10
ENDBRANCH   1   4
BRANCH   1  18
ATOM     18  C   UNL     1       7.241   1.052  -7.561  0.00  0.00    +0.000 C 
BRANCH  18  23
ATOM     19  C   UNL     1      11.081  -2.371  -7.385  0.00  0.00    +0.000 A 
ATOM     20  C   UNL     1      10.728  -1.438  -8.356  0.00  0.00    +0.000 A 
ATOM     21  C   UNL     1       9.607  -0.638  -8.150  0.00  0.00    +0.000 A 
ATOM     22  C   UNL     1       8.849  -0.783  -6.988  0.00  0.00    +0.000 A 
ATOM     23  N   UNL     1       7.741  -0.031  -6.720  0.00  0.00    +0.000 N 
ATOM     24  N   UNL     1       9.173  -1.695  -6.055  0.00  0.00    +0.000 NA
ATOM     25  C   UNL     1      10.268  -2.474  -6.269  0.00  0.00    +0.000 A 
ATOM     26  H   UNL     1       7.287  -0.240  -5.836  0.00  0.00    +0.000 HD
BRANCH  19  28
ATOM     27  N   UNL     1      13.298  -2.799  -8.277  0.00  0.00    +0.000 N 
ATOM     28  C   UNL     1      12.257  -3.252  -7.513  0.00  0.00    +0.000 C 
ATOM     29  O   UNL     1      12.319  -4.326  -6.932  0.00  0.00    +0.000 OA
ATOM     30  H   UNL     1      14.139  -3.364  -8.268  0.00  0.00    +0.000 HD
ATOM     31  H   UNL     1      13.391  -1.831  -8.551  0.00  0.00    +0.000 HD
ENDBRANCH  19  28
ENDBRANCH  18  23
ENDBRANCH   1  18
TORSDOF 6
