REMARK  Name = 
REMARK  4 active torsions:
REMARK  status: ('A' for Active; 'I' for Inactive)
REMARK    1  A    between atoms: N_1  and  C_2
REMARK    2  A    between atoms: C_2  and  C_3
REMARK    3  A    between atoms: N_6  and  C_7
REMARK    4  A    between atoms: C_7  and  C_8
REMARK                            x       y       z     vdW  Elec       q    Type
REMARK                         _______ _______ _______ _____ _____    ______ ____
ROOT
ATOM      1  C   UNL     1       3.106  -0.989   0.535  0.00  0.00    +0.000 C 
ATOM      2  C   UNL     1       4.504  -0.750  -0.048  0.00  0.00    +0.000 C 
ATOM      3  C   UNL     1       4.525  -0.911  -1.574  0.00  0.00    +0.000 C 
ATOM      4  N   UNL     1       4.021  -2.222  -2.024  0.00  0.00    +0.000 NA
ATOM      5  C   UNL     1       2.698  -2.538  -1.443  0.00  0.00    +0.000 C 
ATOM      6  C   UNL     1       2.651  -2.380   0.077  0.00  0.00    +0.000 C 
ENDROOT
BRANCH   1   7
ATOM      7  C   UNL     1       2.149   0.156   0.141  0.00  0.00    +0.000 C 
BRANCH   7   8
ATOM      8  N   UNL     1       0.799  -0.016   0.666  0.00  0.00    +0.000 NA
ATOM      9  H   UNL     1       0.219   0.766   0.359  0.00  0.00    +0.000 HD
ATOM     10  H   UNL     1       0.816   0.026   1.683  0.00  0.00    +0.000 HD
ENDBRANCH   7   8
ENDBRANCH   1   7
BRANCH   4  11
ATOM     11  C   UNL     1       3.945  -2.206  -3.509  0.00  0.00    +0.000 C 
BRANCH  11  12
ATOM     12  C   UNL     1       3.428  -3.489  -4.117  0.00  0.00    +0.000 A 
ATOM     13  N   UNL     1       2.303  -3.414  -4.835  0.00  0.00    +0.000 NA
ATOM     14  S   UNL     1       1.973  -4.892  -5.487  0.00  0.00    +0.000 S 
ATOM     15  C   UNL     1       3.352  -5.696  -4.858  0.00  0.00    +0.000 A 
ATOM     16  C   UNL     1       3.775  -7.020  -5.061  0.00  0.00    +0.000 A 
ATOM     17  C   UNL     1       4.949  -7.441  -4.433  0.00  0.00    +0.000 A 
ATOM     18  C   UNL     1       5.652  -6.580  -3.597  0.00  0.00    +0.000 A 
ATOM     19  C   UNL     1       5.212  -5.269  -3.390  0.00  0.00    +0.000 A 
ATOM     20  C   UNL     1       4.058  -4.793  -4.058  0.00  0.00    +0.000 A 
ENDBRANCH  11  12
ENDBRANCH   4  11
TORSDOF 4
