REMARK  Name = 
REMARK  6 active torsions:
REMARK  status: ('A' for Active; 'I' for Inactive)
REMARK    1  A    between atoms: C_2  and  C_20
REMARK    2  A    between atoms: N_3  and  C_4
REMARK    3  A    between atoms: C_4  and  C_5
REMARK    4  A    between atoms: C_8  and  C_9
REMARK    5  A    between atoms: C_9  and  N_10
REMARK    6  A    between atoms: C_11  and  C_13
REMARK                            x       y       z     vdW  Elec       q    Type
REMARK                         _______ _______ _______ _____ _____    ______ ____
ROOT
ATOM      1  C   UNL     1       3.380  -3.401  -1.187  0.00  0.00    +0.000 A 
ATOM      2  C   UNL     1       4.685  -3.083  -1.590  0.00  0.00    +0.000 A 
ATOM      3  C   UNL     1       5.601  -4.092  -1.911  0.00  0.00    +0.000 A 
ATOM      4  C   UNL     1       5.225  -5.441  -1.862  0.00  0.00    +0.000 A 
ATOM      5  C   UNL     1       3.913  -5.757  -1.482  0.00  0.00    +0.000 A 
ATOM      6  C   UNL     1       2.999  -4.748  -1.158  0.00  0.00    +0.000 A 
ENDROOT
BRANCH   1   7
ATOM      7  C   UNL     1       2.393  -2.314  -0.837  0.00  0.00    +0.000 C 
BRANCH   7  10
ATOM      8  O   UNL     1       0.252  -0.507  -0.851  0.00  0.00    +0.000 OA
ATOM      9  C   UNL     1       0.628  -0.985  -1.916  0.00  0.00    +0.000 C 
ATOM     10  N   UNL     1       1.616  -1.931  -1.989  0.00  0.00    +0.000 N 
ATOM     11  H   UNL     1       2.035  -2.136  -2.889  0.00  0.00    +0.000 HD
BRANCH   9  12
ATOM     12  C   UNL     1       0.009  -0.603  -3.192  0.00  0.00    +0.000 A 
ATOM     13  C   UNL     1      -1.281  -0.093  -3.221  0.00  0.00    +0.000 A 
ATOM     14  S   UNL     1      -1.839   0.266  -4.795  0.00  0.00    +0.000 S 
ATOM     15  C   UNL     1      -0.355  -0.202  -5.487  0.00  0.00    +0.000 A 
ATOM     16  N   UNL     1      -0.149  -0.115  -6.832  0.00  0.00    +0.000 NA
ATOM     17  C   UNL     1       1.031  -0.477  -7.212  0.00  0.00    +0.000 A 
ATOM     18  N   UNL     1       2.019  -0.923  -6.376  0.00  0.00    +0.000 N 
ATOM     19  C   UNL     1       1.847  -1.052  -5.023  0.00  0.00    +0.000 A 
ATOM     20  O   UNL     1       2.741  -1.500  -4.310  0.00  0.00    +0.000 OA
ATOM     21  C   UNL     1       0.542  -0.645  -4.534  0.00  0.00    +0.000 A 
ATOM     22  H   UNL     1       2.919  -1.203  -6.739  0.00  0.00    +0.000 HD
ENDBRANCH   9  12
ENDBRANCH   7  10
ENDBRANCH   1   7
BRANCH   4  23
ATOM     23  C   UNL     1       6.200  -6.534  -2.219  0.00  0.00    +0.000 C 
BRANCH  23  24
ATOM     24  N   UNL     1       6.961  -6.992  -1.081  0.00  0.00    +0.000 N 
ATOM     25  C   UNL     1       7.906  -7.989  -1.244  0.00  0.00    +0.000 C 
ATOM     26  O   UNL     1       8.205  -8.447  -2.345  0.00  0.00    +0.000 OA
ATOM     27  H   UNL     1       6.534  -6.962  -0.161  0.00  0.00    +0.000 HD
BRANCH  25  28
ATOM     28  C   UNL     1       8.647  -8.383   0.042  0.00  0.00    +0.000 C 
ATOM     29  C   UNL     1       9.055  -9.844   0.069  0.00  0.00    +0.000 C 
ATOM     30  C   UNL     1       9.327 -10.086   1.540  0.00  0.00    +0.000 C 
ATOM     31  C   UNL     1       8.385  -9.134   2.266  0.00  0.00    +0.000 C 
ATOM     32  N   UNL     1       7.806  -8.236   1.256  0.00  0.00    +0.000 NA
ATOM     33  H   UNL     1       7.865  -7.273   1.589  0.00  0.00    +0.000 HD
ENDBRANCH  25  28
ENDBRANCH  23  24
ENDBRANCH   4  23
TORSDOF 6
