REMARK  Name = 
REMARK  8 active torsions:
REMARK  status: ('A' for Active; 'I' for Inactive)
REMARK    1  A    between atoms: C_1  and  C_2
REMARK    2  A    between atoms: C_2  and  O_3
REMARK    3  A    between atoms: O_3  and  C_4
REMARK    4  A    between atoms: C_4  and  C_5
REMARK    5  A    between atoms: C_4  and  C_19
REMARK    6  A    between atoms: C_5  and  N_6
REMARK    7  A    between atoms: C_9  and  C_10
REMARK    8  A    between atoms: C_10  and  N_11
REMARK                            x       y       z     vdW  Elec       q    Type
REMARK                         _______ _______ _______ _____ _____    ______ ____
ROOT
ATOM      1  C   UNL     1       4.917   0.930  -1.271  0.00  0.00    +0.000 C 
ENDROOT
BRANCH   1   2
ATOM      2  C   UNL     1       6.056   1.504  -0.440  0.00  0.00    +0.000 A 
ATOM      3  C   UNL     1       7.378   1.507  -0.858  0.00  0.00    +0.000 A 
ATOM      4  S   UNL     1       8.420   2.369   0.182  0.00  0.00    +0.000 S 
ATOM      5  C   UNL     1       7.132   2.793   1.211  0.00  0.00    +0.000 A 
ATOM      6  N   UNL     1       7.334   3.600   2.288  0.00  0.00    +0.000 NA
ATOM      7  C   UNL     1       6.261   3.867   2.955  0.00  0.00    +0.000 A 
ATOM      8  N   UNL     1       5.014   3.384   2.655  0.00  0.00    +0.000 N 
ATOM      9  C   UNL     1       4.752   2.549   1.591  0.00  0.00    +0.000 A 
ATOM     10  O   UNL     1       3.621   2.134   1.369  0.00  0.00    +0.000 OA
ATOM     11  C   UNL     1       5.929   2.249   0.788  0.00  0.00    +0.000 A 
ATOM     12  H   UNL     1       4.216   3.619   3.235  0.00  0.00    +0.000 HD
ENDBRANCH   1   2
BRANCH   1  13
ATOM     13  O   UNL     1       4.919   1.690  -2.494  0.00  0.00    +0.000 OA
BRANCH  13  15
ATOM     14  C   UNL     1       2.459   1.668  -2.901  0.00  0.00    +0.000 C 
ATOM     15  C   UNL     1       3.872   1.514  -3.435  0.00  0.00    +0.000 C 
ENDBRANCH  13  15
ENDBRANCH   1  13
BRANCH   1  16
ATOM     16  C   UNL     1       5.051  -0.624  -1.506  0.00  0.00    +0.000 C 
BRANCH  16  17
ATOM     17  N   UNL     1       4.864  -1.537  -0.332  0.00  0.00    +0.000 NA
ATOM     18  C   UNL     1       3.563  -1.300   0.311  0.00  0.00    +0.000 C 
ATOM     19  C   UNL     1       3.272  -2.248   1.474  0.00  0.00    +0.000 C 
ATOM     20  C   UNL     1       3.336  -3.726   1.073  0.00  0.00    +0.000 C 
ATOM     21  C   UNL     1       4.691  -3.957   0.375  0.00  0.00    +0.000 C 
ATOM     22  C   UNL     1       4.999  -2.948  -0.747  0.00  0.00    +0.000 C 
BRANCH  20  23
ATOM     23  C   UNL     1       2.119  -4.200   0.223  0.00  0.00    +0.000 C 
BRANCH  23  24
ATOM     24  N   UNL     1       0.809  -3.864   0.807  0.00  0.00    +0.000 NA
ATOM     25  C   UNL     1       0.459  -4.586   2.050  0.00  0.00    +0.000 C 
ATOM     26  C   UNL     1      -0.180  -5.977   1.864  0.00  0.00    +0.000 C 
ATOM     27  O   UNL     1      -1.281  -5.944   0.949  0.00  0.00    +0.000 OA
ATOM     28  C   UNL     1      -0.854  -5.422  -0.313  0.00  0.00    +0.000 C 
ATOM     29  C   UNL     1      -0.307  -3.995  -0.155  0.00  0.00    +0.000 C 
ENDBRANCH  23  24
ENDBRANCH  20  23
ENDBRANCH  16  17
ENDBRANCH   1  16
TORSDOF 7
