REMARK  Name = 
REMARK  4 active torsions:
REMARK  status: ('A' for Active; 'I' for Inactive)
REMARK    1  A    between atoms: C_2  and  C_4
REMARK    2  A    between atoms: N_8  and  C_9
REMARK    3  A    between atoms: C_9  and  C_10
REMARK    4  A    between atoms: C_14  and  C_15
REMARK                            x       y       z     vdW  Elec       q    Type
REMARK                         _______ _______ _______ _____ _____    ______ ____
ROOT
ATOM      1  C   UNL     1       4.956   6.018  -1.148  0.00  0.00    +0.000 C 
ENDROOT
BRANCH   1   6
ATOM      2  C   UNL     1       0.889   5.278  -4.261  0.00  0.00    +0.000 A 
ATOM      3  C   UNL     1       2.228   4.956  -4.438  0.00  0.00    +0.000 A 
ATOM      4  C   UNL     1       3.147   5.296  -3.447  0.00  0.00    +0.000 A 
ATOM      5  C   UNL     1       2.717   5.945  -2.295  0.00  0.00    +0.000 A 
ATOM      6  N   UNL     1       3.535   6.253  -1.246  0.00  0.00    +0.000 N 
ATOM      7  N   UNL     1       1.425   6.294  -2.131  0.00  0.00    +0.000 NA
ATOM      8  C   UNL     1       0.540   5.967  -3.111  0.00  0.00    +0.000 A 
ATOM      9  H   UNL     1       3.064   6.758  -0.506  0.00  0.00    +0.000 HD
BRANCH   2  11
ATOM     10  N   UNL     1       0.071   3.817  -6.017  0.00  0.00    +0.000 N 
ATOM     11  C   UNL     1      -0.154   4.926  -5.247  0.00  0.00    +0.000 C 
ATOM     12  O   UNL     1      -1.188   5.571  -5.346  0.00  0.00    +0.000 OA
ATOM     13  H   UNL     1      -0.686   3.522  -6.621  0.00  0.00    +0.000 HD
ATOM     14  H   UNL     1       0.781   3.133  -5.794  0.00  0.00    +0.000 HD
ENDBRANCH   2  11
ENDBRANCH   1   6
BRANCH   1  15
ATOM     15  C   UNL     1       5.769   7.130  -1.753  0.00  0.00    +0.000 A 
ATOM     16  C   UNL     1       6.970   6.860  -2.395  0.00  0.00    +0.000 A 
ATOM     17  N   UNL     1       7.773   7.805  -2.926  0.00  0.00    +0.000 NA
ATOM     18  C   UNL     1       7.362   9.093  -2.804  0.00  0.00    +0.000 A 
ATOM     19  C   UNL     1       6.192   9.508  -2.166  0.00  0.00    +0.000 A 
ATOM     20  C   UNL     1       5.405   8.478  -1.628  0.00  0.00    +0.000 A 
BRANCH  19  21
ATOM     21  C   UNL     1       5.801  10.930  -2.050  0.00  0.00    +0.000 A 
ATOM     22  C   UNL     1       4.445  11.318  -2.031  0.00  0.00    +0.000 A 
ATOM     23  C   UNL     1       4.061  12.658  -1.898  0.00  0.00    +0.000 A 
ATOM     24  C   UNL     1       5.031  13.648  -1.796  0.00  0.00    +0.000 A 
ATOM     25  C   UNL     1       6.371  13.287  -1.823  0.00  0.00    +0.000 A 
ATOM     26  F   UNL     1       7.310  14.237  -1.726  0.00  0.00    +0.000 F 
ATOM     27  C   UNL     1       6.759  11.953  -1.942  0.00  0.00    +0.000 A 
ENDBRANCH  19  21
ENDBRANCH   1  15
TORSDOF 4
