REMARK  Name = 
REMARK  11 active torsions:
REMARK  status: ('A' for Active; 'I' for Inactive)
REMARK    1  A    between atoms: C_1  and  C_2
REMARK    2  A    between atoms: C_2  and  O_3
REMARK    3  A    between atoms: O_3  and  C_4
REMARK    4  A    between atoms: C_4  and  C_6
REMARK    5  A    between atoms: N_8  and  C_9
REMARK    6  A    between atoms: C_9  and  C_10
REMARK    7  A    between atoms: C_13  and  C_14
REMARK    8  A    between atoms: C_14  and  N_15
REMARK    9  A    between atoms: N_15  and  C_16
REMARK   10  A    between atoms: C_22  and  O_23
REMARK   11  A    between atoms: O_23  and  C_24
REMARK                            x       y       z     vdW  Elec       q    Type
REMARK                         _______ _______ _______ _____ _____    ______ ____
ROOT
ATOM      1  C   UNL     1       4.917  -2.858   0.489  0.00  0.00    +0.000 A 
ATOM      2  C   UNL     1       4.424  -3.982  -0.153  0.00  0.00    +0.000 A 
ATOM      3  N   UNL     1       5.163  -5.076   0.230  0.00  0.00    +0.000 N 
ATOM      4  C   UNL     1       6.139  -4.683   1.123  0.00  0.00    +0.000 A 
ATOM      5  C   UNL     1       7.170  -5.368   1.777  0.00  0.00    +0.000 A 
ATOM      6  C   UNL     1       7.953  -4.620   2.658  0.00  0.00    +0.000 A 
ATOM      7  C   UNL     1       7.685  -3.272   2.833  0.00  0.00    +0.000 A 
ATOM      8  N   UNL     1       6.730  -2.593   2.182  0.00  0.00    +0.000 NA
ATOM      9  C   UNL     1       5.967  -3.312   1.328  0.00  0.00    +0.000 A 
ENDROOT
BRANCH   1  10
ATOM     10  C   UNL     1       4.471  -1.493   0.261  0.00  0.00    +0.000 C 
ATOM     11  O   UNL     1       3.617  -1.200  -0.568  0.00  0.00    +0.000 OA
BRANCH  10  12
ATOM     12  O   UNL     1       5.168  -0.584   0.998  0.00  0.00    +0.000 OA
BRANCH  12  14
ATOM     13  C   UNL     1       6.282   0.877  -0.534  0.00  0.00    +0.000 C 
ATOM     14  C   UNL     1       5.178   0.758   0.503  0.00  0.00    +0.000 C 
ENDBRANCH  12  14
ENDBRANCH  10  12
ENDBRANCH   1  10
BRANCH   7  15
ATOM     15  O   UNL     1       8.468  -2.602   3.759  0.00  0.00    +0.000 OA
ATOM     16  C   UNL     1       8.088  -1.235   3.912  0.00  0.00    +0.000 C 
ENDBRANCH   7  15
BRANCH   3  17
ATOM     17  C   UNL     1       4.894  -6.440  -0.224  0.00  0.00    +0.000 C 
BRANCH  17  18
ATOM     18  C   UNL     1       5.601  -6.737  -1.522  0.00  0.00    +0.000 A 
ATOM     19  C   UNL     1       6.859  -7.354  -1.524  0.00  0.00    +0.000 A 
ATOM     20  C   UNL     1       7.580  -7.491  -2.712  0.00  0.00    +0.000 A 
ATOM     21  C   UNL     1       7.059  -7.017  -3.923  0.00  0.00    +0.000 A 
ATOM     22  C   UNL     1       5.768  -6.473  -3.934  0.00  0.00    +0.000 A 
ATOM     23  C   UNL     1       5.046  -6.336  -2.746  0.00  0.00    +0.000 A 
BRANCH  21  24
ATOM     24  C   UNL     1       7.913  -6.986  -5.171  0.00  0.00    +0.000 C 
BRANCH  24  25
ATOM     25  N   UNL     1       8.384  -8.316  -5.557  0.00  0.00    +0.000 NA
ATOM     26  C   UNL     1       9.203  -8.230  -6.760  0.00  0.00    +0.000 C 
ATOM     27  H   UNL     1       7.576  -8.910  -5.738  0.00  0.00    +0.000 HD
ENDBRANCH  24  25
ENDBRANCH  21  24
ENDBRANCH  17  18
ENDBRANCH   3  17
TORSDOF 8
