REMARK  Name = 
REMARK  8 active torsions:
REMARK  status: ('A' for Active; 'I' for Inactive)
REMARK    1  A    between atoms: C_1  and  C_2
REMARK    2  A    between atoms: C_2  and  C_3
REMARK    3  A    between atoms: C_2  and  C_5
REMARK    4  A    between atoms: C_3  and  N_4
REMARK    5  A    between atoms: C_8  and  C_9
REMARK    6  A    between atoms: C_9  and  S_10
REMARK    7  A    between atoms: S_10  and  C_11
REMARK    8  A    between atoms: C_16  and  C_17
REMARK                            x       y       z     vdW  Elec       q    Type
REMARK                         _______ _______ _______ _____ _____    ______ ____
ROOT
ATOM      1  C   UNL     1       4.121  -4.877   2.668  0.00  0.00    +0.000 C 
ENDROOT
BRANCH   1   5
ATOM      2  C   UNL     1       3.011  -1.325   0.640  0.00  0.00    +0.000 A 
ATOM      3  N   UNL     1       3.810  -1.208   1.718  0.00  0.00    +0.000 NA
ATOM      4  C   UNL     1       4.161  -2.355   2.343  0.00  0.00    +0.000 A 
ATOM      5  C   UNL     1       3.749  -3.614   1.947  0.00  0.00    +0.000 A 
ATOM      6  C   UNL     1       2.952  -3.617   0.822  0.00  0.00    +0.000 A 
ATOM      7  N   UNL     1       2.566  -2.505   0.166  0.00  0.00    +0.000 NA
BRANCH   2   9
ATOM      8  C   UNL     1       2.361  -0.258  -1.548  0.00  0.00    +0.000 C 
ATOM      9  C   UNL     1       2.546  -0.049  -0.040  0.00  0.00    +0.000 C 
BRANCH   9  10
ATOM     10  C   UNL     1       1.253   0.451   0.633  0.00  0.00    +0.000 C 
BRANCH  10  11
ATOM     11  N   UNL     1       0.768   1.723   0.079  0.00  0.00    +0.000 NA
ATOM     12  H   UNL     1       1.453   2.457   0.256  0.00  0.00    +0.000 HD
ATOM     13  H   UNL     1      -0.081   2.001   0.571  0.00  0.00    +0.000 HD
ENDBRANCH  10  11
ENDBRANCH   9  10
ENDBRANCH   2   9
ENDBRANCH   1   5
BRANCH   1  14
ATOM     14  S   UNL     1       3.438  -4.904   4.353  0.00  0.00    +0.000 S 
BRANCH  14  15
ATOM     15  C   UNL     1       4.028  -6.457   4.976  0.00  0.00    +0.000 A 
ATOM     16  N   UNL     1       3.673  -6.726   6.238  0.00  0.00    +0.000 NA
ATOM     17  C   UNL     1       4.111  -7.882   6.754  0.00  0.00    +0.000 A 
ATOM     18 CL   UNL     1       3.632  -8.161   8.377  0.00  0.00    +0.000 Cl
ATOM     19  C   UNL     1       4.881  -8.787   6.088  0.00  0.00    +0.000 A 
ATOM     20  C   UNL     1       5.185  -8.417   4.802  0.00  0.00    +0.000 A 
ATOM     21  N   UNL     1       4.776  -7.261   4.210  0.00  0.00    +0.000 NA
BRANCH  20  22
ATOM     22  C   UNL     1       6.036  -9.338   3.986  0.00  0.00    +0.000 C 
ATOM     23  N   UNL     1       6.310  -8.925   2.712  0.00  0.00    +0.000 N 
ATOM     24  O   UNL     1       6.466 -10.396   4.430  0.00  0.00    +0.000 OA
ATOM     25  H   UNL     1       5.954  -8.045   2.360  0.00  0.00    +0.000 HD
ATOM     26  H   UNL     1       6.889  -9.510   2.124  0.00  0.00    +0.000 HD
ENDBRANCH  20  22
ENDBRANCH  14  15
ENDBRANCH   1  14
TORSDOF 7
