REMARK  Name = 
REMARK  7 active torsions:
REMARK  status: ('A' for Active; 'I' for Inactive)
REMARK    1  A    between atoms: C_1  and  N_2
REMARK    2  A    between atoms: N_2  and  C_3
REMARK    3  A    between atoms: C_3  and  C_4
REMARK    4  A    between atoms: C_7  and  C_8
REMARK    5  A    between atoms: C_8  and  N_9
REMARK    6  A    between atoms: C_10  and  C_12
REMARK    7  A    between atoms: C_19  and  C_21
REMARK                            x       y       z     vdW  Elec       q    Type
REMARK                         _______ _______ _______ _____ _____    ______ ____
ROOT
ATOM      1  C   UNL     1       3.127  -0.908   0.924  0.00  0.00    +0.000 C 
ENDROOT
BRANCH   1   2
ATOM      2  C   UNL     1       2.296  -2.044   1.464  0.00  0.00    +0.000 A 
ATOM      3  C   UNL     1       2.580  -3.373   1.111  0.00  0.00    +0.000 A 
ATOM      4  C   UNL     1       1.812  -4.423   1.621  0.00  0.00    +0.000 A 
ATOM      5  C   UNL     1       0.738  -4.161   2.482  0.00  0.00    +0.000 A 
ATOM      6  C   UNL     1       0.481  -2.836   2.861  0.00  0.00    +0.000 A 
ATOM      7  C   UNL     1       1.245  -1.786   2.349  0.00  0.00    +0.000 A 
BRANCH   5   8
ATOM      8  C   UNL     1      -0.141  -5.277   2.980  0.00  0.00    +0.000 C 
BRANCH   8   9
ATOM      9  N   UNL     1       0.355  -5.864   4.197  0.00  0.00    +0.000 N 
ATOM     10  C   UNL     1      -0.375  -6.815   4.879  0.00  0.00    +0.000 C 
ATOM     11  O   UNL     1      -1.467  -7.205   4.477  0.00  0.00    +0.000 OA
ATOM     12  H   UNL     1       1.287  -5.633   4.518  0.00  0.00    +0.000 HD
BRANCH  10  13
ATOM     13  C   UNL     1       0.229  -7.324   6.095  0.00  0.00    +0.000 A 
ATOM     14  C   UNL     1      -0.258  -8.309   6.932  0.00  0.00    +0.000 A 
ATOM     15  N   UNL     1       0.513  -8.590   8.048  0.00  0.00    +0.000 NA
ATOM     16  C   UNL     1       1.571  -7.815   8.047  0.00  0.00    +0.000 A 
ATOM     17  S   UNL     1       1.715  -6.731   6.727  0.00  0.00    +0.000 S 
ENDBRANCH  10  13
ENDBRANCH   8   9
ENDBRANCH   5   8
ENDBRANCH   1   2
BRANCH   1  19
ATOM     18  C   UNL     1       1.524  -0.762  -1.028  0.00  0.00    +0.000 C 
ATOM     19  N   UNL     1       2.661  -0.226  -0.288  0.00  0.00    +0.000 N 
ATOM     20  C   UNL     1       3.078   1.072  -0.644  0.00  0.00    +0.000 C 
ATOM     21  O   UNL     1       2.511   1.706  -1.529  0.00  0.00    +0.000 OA
BRANCH  20  22
ATOM     22  C   UNL     1       4.248   1.657   0.032  0.00  0.00    +0.000 A 
ATOM     23  C   UNL     1       5.421   0.970   0.294  0.00  0.00    +0.000 A 
ATOM     24  S   UNL     1       6.622   1.920   1.044  0.00  0.00    +0.000 S 
ATOM     25  C   UNL     1       5.667   3.320   0.911  0.00  0.00    +0.000 A 
ATOM     26  N   UNL     1       6.156   4.533   1.282  0.00  0.00    +0.000 NA
ATOM     27  C   UNL     1       5.346   5.516   1.069  0.00  0.00    +0.000 A 
ATOM     28  N   UNL     1       4.081   5.390   0.554  0.00  0.00    +0.000 N 
ATOM     29  C   UNL     1       3.498   4.169   0.282  0.00  0.00    +0.000 A 
ATOM     30  O   UNL     1       2.299   4.084   0.046  0.00  0.00    +0.000 OA
ATOM     31  C   UNL     1       4.414   3.047   0.393  0.00  0.00    +0.000 A 
ATOM     32  H   UNL     1       3.475   6.192   0.477  0.00  0.00    +0.000 HD
ENDBRANCH  20  22
ENDBRANCH   1  19
TORSDOF 6
