REMARK  Name = 
REMARK  8 active torsions:
REMARK  status: ('A' for Active; 'I' for Inactive)
REMARK    1  A    between atoms: C_1  and  C_2
REMARK    2  A    between atoms: C_2  and  N_3
REMARK    3  A    between atoms: C_2  and  C_27
REMARK    4  A    between atoms: N_3  and  C_4
REMARK    5  A    between atoms: C_4  and  C_5
REMARK    6  A    between atoms: C_9  and  C_10
REMARK    7  A    between atoms: C_10  and  N_11
REMARK    8  A    between atoms: C_12  and  C_14
REMARK                            x       y       z     vdW  Elec       q    Type
REMARK                         _______ _______ _______ _____ _____    ______ ____
ROOT
ATOM      1  C   UNL     1      -1.030  -0.892  -1.113  0.00  0.00    +0.000 A 
ATOM      2  C   UNL     1      -1.746   0.197  -0.596  0.00  0.00    +0.000 A 
ATOM      3  C   UNL     1      -3.139   0.173  -0.561  0.00  0.00    +0.000 A 
ATOM      4  F   UNL     1      -3.786   1.235  -0.059  0.00  0.00    +0.000 F 
ATOM      5  C   UNL     1      -3.859  -0.923  -1.034  0.00  0.00    +0.000 A 
ATOM      6  C   UNL     1      -3.140  -1.990  -1.570  0.00  0.00    +0.000 A 
ATOM      7  F   UNL     1      -3.791  -3.053  -2.062  0.00  0.00    +0.000 F 
ATOM      8  C   UNL     1      -1.745  -1.986  -1.611  0.00  0.00    +0.000 A 
ENDROOT
BRANCH   1   9
ATOM      9  C   UNL     1       0.479  -0.862  -1.160  0.00  0.00    +0.000 C 
BRANCH   9  10
ATOM     10  N   UNL     1       1.032  -0.663   0.175  0.00  0.00    +0.000 NA
ATOM     11  H   UNL     1       0.733  -1.440   0.769  0.00  0.00    +0.000 HD
BRANCH  10  13
ATOM     12  C   UNL     1       3.104   0.485  -0.651  0.00  0.00    +0.000 C 
ATOM     13  C   UNL     1       2.507  -0.642   0.204  0.00  0.00    +0.000 C 
BRANCH  13  14
ATOM     14  C   UNL     1       3.006  -0.543   1.645  0.00  0.00    +0.000 A 
ATOM     15  C   UNL     1       2.696   0.565   2.438  0.00  0.00    +0.000 A 
ATOM     16  C   UNL     1       3.132   0.597   3.760  0.00  0.00    +0.000 A 
ATOM     17  C   UNL     1       3.863  -0.471   4.260  0.00  0.00    +0.000 A 
ATOM     18  C   UNL     1       4.129  -1.533   3.412  0.00  0.00    +0.000 A 
ATOM     19  N   UNL     1       3.720  -1.594   2.125  0.00  0.00    +0.000 NA
ENDBRANCH  13  14
ENDBRANCH  10  13
ENDBRANCH   9  10
ENDBRANCH   1   9
BRANCH   5  20
ATOM     20  C   UNL     1      -5.355  -0.937  -0.991  0.00  0.00    +0.000 C 
BRANCH  20  21
ATOM     21  N   UNL     1      -5.920  -0.399  -2.204  0.00  0.00    +0.000 N 
ATOM     22  C   UNL     1      -7.140   0.229  -2.212  0.00  0.00    +0.000 C 
ATOM     23  O   UNL     1      -7.783   0.430  -1.185  0.00  0.00    +0.000 OA
ATOM     24  H   UNL     1      -5.558  -0.770  -3.077  0.00  0.00    +0.000 HD
BRANCH  22  25
ATOM     25  C   UNL     1      -7.616   0.710  -3.514  0.00  0.00    +0.000 A 
ATOM     26  C   UNL     1      -8.504   1.775  -3.570  0.00  0.00    +0.000 A 
ATOM     27  S   UNL     1      -8.919   2.236  -5.158  0.00  0.00    +0.000 S 
ATOM     28  C   UNL     1      -7.962   0.998  -5.826  0.00  0.00    +0.000 A 
ATOM     29  N   UNL     1      -7.887   0.821  -7.172  0.00  0.00    +0.000 NA
ATOM     30  C   UNL     1      -7.155  -0.178  -7.539  0.00  0.00    +0.000 A 
ATOM     31  N   UNL     1      -6.487  -1.013  -6.681  0.00  0.00    +0.000 N 
ATOM     32  C   UNL     1      -6.500  -0.847  -5.316  0.00  0.00    +0.000 A 
ATOM     33  O   UNL     1      -5.838  -1.570  -4.579  0.00  0.00    +0.000 OA
ATOM     34  C   UNL     1      -7.324   0.252  -4.851  0.00  0.00    +0.000 A 
ATOM     35  H   UNL     1      -5.922  -1.771  -7.033  0.00  0.00    +0.000 HD
ENDBRANCH  22  25
ENDBRANCH  20  21
ENDBRANCH   5  20
TORSDOF 7
