REMARK  Name = 
REMARK  6 active torsions:
REMARK  status: ('A' for Active; 'I' for Inactive)
REMARK    1  A    between atoms: C_1  and  C_2
REMARK    2  A    between atoms: C_2  and  C_3
REMARK    3  A    between atoms: C_2  and  C_14
REMARK    4  A    between atoms: C_3  and  N_4
REMARK    5  A    between atoms: N_4  and  C_5
REMARK    6  A    between atoms: C_8  and  C_9
REMARK                            x       y       z     vdW  Elec       q    Type
REMARK                         _______ _______ _______ _____ _____    ______ ____
ROOT
ATOM      1  N   UNL     1       2.658  -0.508   2.383  0.00  0.00    +0.000 N 
ATOM      2  H   UNL     1       1.685  -0.215   2.447  0.00  0.00    +0.000 HD
ENDROOT
BRANCH   1   3
ATOM      3  C   UNL     1       3.068  -1.195   3.528  0.00  0.00    +0.000 A 
ATOM      4  C   UNL     1       2.603  -0.771   4.777  0.00  0.00    +0.000 A 
ATOM      5  C   UNL     1       3.044  -1.388   5.950  0.00  0.00    +0.000 A 
ATOM      6  C   UNL     1       3.962  -2.422   5.838  0.00  0.00    +0.000 A 
ATOM      7  N   UNL     1       4.472  -2.853   4.654  0.00  0.00    +0.000 NA
ATOM      8  C   UNL     1       4.027  -2.214   3.545  0.00  0.00    +0.000 A 
BRANCH   6   9
ATOM      9  C   UNL     1       4.451  -3.130   7.061  0.00  0.00    +0.000 C 
ATOM     10  N   UNL     1       5.335  -4.148   6.830  0.00  0.00    +0.000 N 
ATOM     11  O   UNL     1       4.083  -2.834   8.194  0.00  0.00    +0.000 OA
ATOM     12  H   UNL     1       5.606  -4.361   5.877  0.00  0.00    +0.000 HD
ATOM     13  H   UNL     1       5.704  -4.679   7.604  0.00  0.00    +0.000 HD
ENDBRANCH   6   9
ENDBRANCH   1   3
BRANCH   1  14
ATOM     14  C   UNL     1       3.010  -1.025   1.067  0.00  0.00    +0.000 C 
BRANCH  14  16
ATOM     15  C   UNL     1       2.595   1.205  -0.153  0.00  0.00    +0.000 C 
ATOM     16  C   UNL     1       2.245  -0.237   0.048  0.00  0.00    +0.000 C 
BRANCH  16  17
ATOM     17  C   UNL     1       0.923  -0.723  -0.375  0.00  0.00    +0.000 A 
ATOM     18  C   UNL     1       0.752  -2.014  -0.896  0.00  0.00    +0.000 A 
ATOM     19  C   UNL     1      -0.522  -2.470  -1.246  0.00  0.00    +0.000 A 
ATOM     20  C   UNL     1      -1.634  -1.648  -1.071  0.00  0.00    +0.000 A 
ATOM     21  C   UNL     1      -1.472  -0.363  -0.562  0.00  0.00    +0.000 A 
ATOM     22  C   UNL     1      -0.200   0.097  -0.223  0.00  0.00    +0.000 A 
ENDBRANCH  16  17
ENDBRANCH  14  16
ENDBRANCH   1  14
TORSDOF 5
