REMARK  Name = 
REMARK  6 active torsions:
REMARK  status: ('A' for Active; 'I' for Inactive)
REMARK    1  A    between atoms: N_1  and  C_2
REMARK    2  A    between atoms: C_2  and  C_3
REMARK    3  A    between atoms: C_3  and  O_4
REMARK    4  A    between atoms: O_4  and  C_5
REMARK    5  A    between atoms: C_8  and  C_9
REMARK    6  A    between atoms: C_9  and  N_10
REMARK                            x       y       z     vdW  Elec       q    Type
REMARK                         _______ _______ _______ _____ _____    ______ ____
ROOT
ATOM      1  C   UNL     1       5.052   1.137   2.221  0.00  0.00    +0.000 A 
ATOM      2  C   UNL     1       4.585   0.922   3.516  0.00  0.00    +0.000 A 
ATOM      3  C   UNL     1       5.351   1.310   4.619  0.00  0.00    +0.000 A 
ATOM      4  C   UNL     1       6.598   1.925   4.447  0.00  0.00    +0.000 A 
ATOM      5  C   UNL     1       7.062   2.141   3.143  0.00  0.00    +0.000 A 
ATOM      6  C   UNL     1       6.292   1.753   2.040  0.00  0.00    +0.000 A 
ENDROOT
BRANCH   1   7
ATOM      7  O   UNL     1       4.396   0.799   1.066  0.00  0.00    +0.000 OA
BRANCH   7   8
ATOM      8  C   UNL     1       3.164   0.091   1.225  0.00  0.00    +0.000 C 
BRANCH   8   9
ATOM      9  C   UNL     1       2.611  -0.269  -0.157  0.00  0.00    +0.000 C 
BRANCH   9  10
ATOM     10  N   UNL     1       1.327  -0.966  -0.064  0.00  0.00    +0.000 NA
ATOM     11  H   UNL     1       0.995  -1.182  -1.003  0.00  0.00    +0.000 HD
ATOM     12  H   UNL     1       0.630  -0.345   0.346  0.00  0.00    +0.000 HD
ENDBRANCH   9  10
ENDBRANCH   8   9
ENDBRANCH   7   8
ENDBRANCH   1   7
BRANCH   4  13
ATOM     13  C   UNL     1       7.415   2.348   5.640  0.00  0.00    +0.000 C 
BRANCH  13  14
ATOM     14  N   UNL     1       8.318   1.298   6.099  0.00  0.00    +0.000 N 
ATOM     15  C   UNL     1       9.598   1.122   5.621  0.00  0.00    +0.000 A 
ATOM     16  C   UNL     1      10.206   0.147   6.380  0.00  0.00    +0.000 A 
ATOM     17  C   UNL     1       9.271  -0.282   7.348  0.00  0.00    +0.000 A 
ATOM     18  N   UNL     1       9.433  -1.205   8.326  0.00  0.00    +0.000 NA
ATOM     19  C   UNL     1       8.352  -1.397   9.109  0.00  0.00    +0.000 A 
ATOM     20  C   UNL     1       7.136  -0.745   8.977  0.00  0.00    +0.000 A 
ATOM     21  C   UNL     1       6.977   0.206   7.971  0.00  0.00    +0.000 A 
ATOM     22  C   UNL     1       8.089   0.435   7.151  0.00  0.00    +0.000 A 
ENDBRANCH  13  14
ENDBRANCH   4  13
TORSDOF 6
