REMARK  Name = 
REMARK  8 active torsions:
REMARK  status: ('A' for Active; 'I' for Inactive)
REMARK    1  A    between atoms: C_2  and  C_21
REMARK    2  A    between atoms: N_3  and  C_4
REMARK    3  A    between atoms: C_4  and  C_5
REMARK    4  A    between atoms: C_8  and  C_9
REMARK    5  A    between atoms: C_9  and  N_10
REMARK    6  A    between atoms: N_10  and  C_11
REMARK    7  A    between atoms: C_14  and  C_15
REMARK    8  A    between atoms: C_15  and  O_16
REMARK                            x       y       z     vdW  Elec       q    Type
REMARK                         _______ _______ _______ _____ _____    ______ ____
ROOT
ATOM      1  C   UNL     1       3.254  -1.750  -3.027  0.00  0.00    +0.000 A 
ATOM      2  C   UNL     1       4.166  -0.930  -3.703  0.00  0.00    +0.000 A 
ATOM      3  C   UNL     1       5.057  -1.473  -4.632  0.00  0.00    +0.000 A 
ATOM      4  C   UNL     1       5.041  -2.845  -4.918  0.00  0.00    +0.000 A 
ATOM      5  C   UNL     1       4.134  -3.667  -4.235  0.00  0.00    +0.000 A 
ATOM      6  C   UNL     1       3.238  -3.122  -3.309  0.00  0.00    +0.000 A 
ENDROOT
BRANCH   1   7
ATOM      7  C   UNL     1       2.275  -1.148  -2.051  0.00  0.00    +0.000 C 
BRANCH   7  10
ATOM      8  O   UNL     1       1.605   1.428  -2.979  0.00  0.00    +0.000 OA
ATOM      9  C   UNL     1       0.828   0.500  -3.185  0.00  0.00    +0.000 C 
ATOM     10  N   UNL     1       1.052  -0.767  -2.713  0.00  0.00    +0.000 N 
ATOM     11  H   UNL     1       0.486  -1.530  -3.063  0.00  0.00    +0.000 HD
BRANCH   9  12
ATOM     12  C   UNL     1      -0.430   0.705  -3.916  0.00  0.00    +0.000 A 
ATOM     13  C   UNL     1      -0.970   1.981  -4.013  0.00  0.00    +0.000 A 
ATOM     14  S   UNL     1      -2.443   2.038  -4.870  0.00  0.00    +0.000 S 
ATOM     15  C   UNL     1      -2.389   0.367  -5.184  0.00  0.00    +0.000 A 
ATOM     16  N   UNL     1      -3.364  -0.239  -5.914  0.00  0.00    +0.000 NA
ATOM     17  C   UNL     1      -3.174  -1.500  -6.116  0.00  0.00    +0.000 A 
ATOM     18  N   UNL     1      -2.102  -2.213  -5.644  0.00  0.00    +0.000 N 
ATOM     19  C   UNL     1      -1.134  -1.659  -4.842  0.00  0.00    +0.000 A 
ATOM     20  O   UNL     1      -0.259  -2.354  -4.335  0.00  0.00    +0.000 OA
ATOM     21  C   UNL     1      -1.275  -0.232  -4.622  0.00  0.00    +0.000 A 
ATOM     22  H   UNL     1      -2.027  -3.205  -5.812  0.00  0.00    +0.000 HD
ENDBRANCH   9  12
ENDBRANCH   7  10
ENDBRANCH   1   7
BRANCH   4  23
ATOM     23  C   UNL     1       5.971  -3.420  -5.961  0.00  0.00    +0.000 C 
BRANCH  23  24
ATOM     24  N   UNL     1       7.235  -3.824  -5.365  0.00  0.00    +0.000 N 
ATOM     25  H   UNL     1       7.571  -3.179  -4.653  0.00  0.00    +0.000 HD
BRANCH  24  26
ATOM     26  C   UNL     1       8.268  -4.309  -6.175  0.00  0.00    +0.000 A 
ATOM     27  C   UNL     1       8.102  -4.670  -7.517  0.00  0.00    +0.000 A 
ATOM     28  C   UNL     1       9.150  -5.230  -8.262  0.00  0.00    +0.000 A 
ATOM     29  C   UNL     1      10.391  -5.480  -7.671  0.00  0.00    +0.000 A 
ATOM     30  C   UNL     1      10.561  -5.153  -6.322  0.00  0.00    +0.000 A 
ATOM     31  C   UNL     1       9.511  -4.585  -5.587  0.00  0.00    +0.000 A 
BRANCH  29  32
ATOM     32  C   UNL     1      11.501  -6.134  -8.449  0.00  0.00    +0.000 C 
BRANCH  32  33
ATOM     33  O   UNL     1      12.647  -5.296  -8.499  0.00  0.00    +0.000 OA
ATOM     34  H   UNL     1      12.330  -4.398  -8.695  0.00  0.00    +0.000 HD
ENDBRANCH  32  33
ENDBRANCH  29  32
ENDBRANCH  24  26
ENDBRANCH  23  24
ENDBRANCH   4  23
TORSDOF 8
