REMARK  Name = 
REMARK  9 active torsions:
REMARK  status: ('A' for Active; 'I' for Inactive)
REMARK    1  A    between atoms: C_1  and  O_2
REMARK    2  A    between atoms: O_2  and  C_3
REMARK    3  A    between atoms: C_10  and  C_11
REMARK    4  A    between atoms: N_13  and  C_14
REMARK    5  A    between atoms: C_14  and  C_15
REMARK    6  A    between atoms: C_18  and  N_19
REMARK    7  A    between atoms: N_19  and  C_20
REMARK    8  A    between atoms: C_20  and  C_21
REMARK    9  A    between atoms: C_21  and  C_22
REMARK                            x       y       z     vdW  Elec       q    Type
REMARK                         _______ _______ _______ _____ _____    ______ ____
ROOT
ATOM      1  C   UNL     1       2.667   3.283  -0.815  0.00  0.00    +0.000 C 
ENDROOT
BRANCH   1   2
ATOM      2  C   UNL     1       1.448   2.874  -1.607  0.00  0.00    +0.000 A 
ATOM      3  C   UNL     1       1.329   1.577  -2.116  0.00  0.00    +0.000 A 
ATOM      4  C   UNL     1       0.142   1.151  -2.735  0.00  0.00    +0.000 A 
ATOM      5  C   UNL     1      -0.935   2.020  -2.927  0.00  0.00    +0.000 A 
ATOM      6  C   UNL     1      -0.777   3.341  -2.481  0.00  0.00    +0.000 A 
ATOM      7  C   UNL     1       0.394   3.766  -1.831  0.00  0.00    +0.000 A 
BRANCH   5   8
ATOM      8  N   UNL     1      -2.185   1.620  -3.401  0.00  0.00    +0.000 N 
ATOM      9  H   UNL     1      -2.636   2.322  -3.981  0.00  0.00    +0.000 HD
BRANCH   8  10
ATOM     10  C   UNL     1      -2.459   0.244  -3.829  0.00  0.00    +0.000 C 
BRANCH  10  11
ATOM     11  C   UNL     1      -3.920   0.084  -4.355  0.00  0.00    +0.000 C 
ATOM     12  C   UNL     1      -4.922   0.463  -3.245  0.00  0.00    +0.000 C 
ATOM     13  C   UNL     1      -4.182  -1.349  -4.852  0.00  0.00    +0.000 C 
ATOM     14  C   UNL     1      -5.073  -1.213  -6.087  0.00  0.00    +0.000 C 
ATOM     15  C   UNL     1      -5.271   0.277  -6.284  0.00  0.00    +0.000 C 
ATOM     16  N   UNL     1      -4.158   0.901  -5.568  0.00  0.00    +0.000 NA
ATOM     17  H   UNL     1      -4.398   1.855  -5.320  0.00  0.00    +0.000 HD
ENDBRANCH  10  11
ENDBRANCH   8  10
ENDBRANCH   5   8
ENDBRANCH   1   2
BRANCH   1  20
ATOM     18  C   UNL     1       4.888   4.300  -1.165  0.00  0.00    +0.000 C 
ATOM     19  O   UNL     1       5.158   4.230   0.033  0.00  0.00    +0.000 OA
ATOM     20  N   UNL     1       3.692   3.847  -1.652  0.00  0.00    +0.000 N 
ATOM     21  H   UNL     1       3.496   3.906  -2.641  0.00  0.00    +0.000 HD
BRANCH  18  29
ATOM     22  C   UNL     1       4.805   4.744  -4.578  0.00  0.00    +0.000 A 
ATOM     23  N   UNL     1       4.998   5.088  -5.862  0.00  0.00    +0.000 NA
ATOM     24  C   UNL     1       6.128   5.724  -6.179  0.00  0.00    +0.000 A 
ATOM     25  N   UNL     1       7.116   6.060  -5.351  0.00  0.00    +0.000 NA
ATOM     26  C   UNL     1       6.874   5.713  -4.076  0.00  0.00    +0.000 A 
ATOM     27  S   UNL     1       8.033   6.052  -2.880  0.00  0.00    +0.000 S 
ATOM     28  C   UNL     1       7.052   5.374  -1.667  0.00  0.00    +0.000 A 
ATOM     29  C   UNL     1       5.835   4.886  -2.131  0.00  0.00    +0.000 A 
ATOM     30  C   UNL     1       5.744   5.069  -3.581  0.00  0.00    +0.000 A 
BRANCH  22  32
ATOM     31  C   UNL     1       3.111   3.324  -5.335  0.00  0.00    +0.000 C 
ATOM     32  O   UNL     1       3.644   4.078  -4.250  0.00  0.00    +0.000 OA
ENDBRANCH  22  32
ENDBRANCH  18  29
ENDBRANCH   1  20
TORSDOF 7
