REMARK  Name = 
REMARK  7 active torsions:
REMARK  status: ('A' for Active; 'I' for Inactive)
REMARK    1  A    between atoms: C_1  and  S_2
REMARK    2  A    between atoms: S_2  and  C_5
REMARK    3  A    between atoms: C_8  and  O_9
REMARK    4  A    between atoms: O_9  and  C_10
REMARK    5  A    between atoms: C_10  and  C_11
REMARK    6  A    between atoms: C_14  and  C_15
REMARK    7  A    between atoms: C_15  and  N_16
REMARK                            x       y       z     vdW  Elec       q    Type
REMARK                         _______ _______ _______ _____ _____    ______ ____
ROOT
ATOM      1  O   UNL     1       4.268  -3.977  -4.005  0.00  0.00    +0.000 OA
ENDROOT
BRANCH   1   5
ATOM      2  C   UNL     1       3.480  -1.222  -1.153  0.00  0.00    +0.000 A 
ATOM      3  C   UNL     1       3.168  -2.547  -0.911  0.00  0.00    +0.000 A 
ATOM      4  N   UNL     1       3.414  -3.519  -1.832  0.00  0.00    +0.000 NA
ATOM      5  C   UNL     1       3.981  -3.093  -2.987  0.00  0.00    +0.000 A 
ATOM      6  C   UNL     1       4.298  -1.756  -3.208  0.00  0.00    +0.000 A 
ATOM      7  N   UNL     1       4.056  -0.778  -2.302  0.00  0.00    +0.000 NA
BRANCH   2   9
ATOM      8  C   UNL     1       3.646   1.538  -0.681  0.00  0.00    +0.000 C 
ATOM      9  S   UNL     1       3.103   0.013   0.047  0.00  0.00    +0.000 S 
ATOM     10  O   UNL     1       3.934  -0.249   1.209  0.00  0.00    +0.000 OA
ATOM     11  O   UNL     1       1.656   0.065   0.165  0.00  0.00    +0.000 OA
ENDBRANCH   2   9
ENDBRANCH   1   5
BRANCH   1  12
ATOM     12  C   UNL     1       3.883  -5.325  -3.730  0.00  0.00    +0.000 C 
BRANCH  12  13
ATOM     13  C   UNL     1       4.233  -6.173  -4.936  0.00  0.00    +0.000 A 
ATOM     14  C   UNL     1       5.140  -7.236  -4.833  0.00  0.00    +0.000 A 
ATOM     15  C   UNL     1       5.476  -8.004  -5.956  0.00  0.00    +0.000 A 
ATOM     16  C   UNL     1       4.913  -7.727  -7.209  0.00  0.00    +0.000 A 
ATOM     17  C   UNL     1       3.988  -6.679  -7.307  0.00  0.00    +0.000 A 
ATOM     18  C   UNL     1       3.650  -5.912  -6.185  0.00  0.00    +0.000 A 
BRANCH  16  19
ATOM     19  C   UNL     1       5.333  -8.498  -8.437  0.00  0.00    +0.000 C 
BRANCH  19  20
ATOM     20  N   UNL     1       4.211  -9.170  -9.082  0.00  0.00    +0.000 NA
ATOM     21  H   UNL     1       3.806  -9.836  -8.425  0.00  0.00    +0.000 HD
ATOM     22  H   UNL     1       4.558  -9.716  -9.868  0.00  0.00    +0.000 HD
ENDBRANCH  19  20
ENDBRANCH  16  19
ENDBRANCH  12  13
ENDBRANCH   1  12
TORSDOF 6
