REMARK  Name = 
REMARK  4 active torsions:
REMARK  status: ('A' for Active; 'I' for Inactive)
REMARK    1  A    between atoms: C_2  and  C_4
REMARK    2  A    between atoms: N_8  and  C_9
REMARK    3  A    between atoms: C_9  and  C_10
REMARK    4  A    between atoms: C_14  and  N_15
REMARK                            x       y       z     vdW  Elec       q    Type
REMARK                         _______ _______ _______ _____ _____    ______ ____
ROOT
ATOM      1  C   UNL     1       8.385  -2.662   5.190  0.00  0.00    +0.000 A 
ATOM      2  C   UNL     1       8.780  -3.015   3.926  0.00  0.00    +0.000 A 
ATOM      3  N   UNL     1       7.954  -3.567   3.014  0.00  0.00    +0.000 NA
ATOM      4  C   UNL     1       6.699  -3.840   3.401  0.00  0.00    +0.000 A 
ATOM      5  N   UNL     1       5.798  -4.375   2.507  0.00  0.00    +0.000 N 
ATOM      6  N   UNL     1       6.235  -3.585   4.633  0.00  0.00    +0.000 NA
ATOM      7  C   UNL     1       7.087  -2.989   5.504  0.00  0.00    +0.000 A 
ATOM      8  H   UNL     1       5.087  -4.893   3.003  0.00  0.00    +0.000 HD
ENDROOT
BRANCH   1  10
ATOM      9  N   UNL     1      10.321  -1.278   5.667  0.00  0.00    +0.000 N 
ATOM     10  C   UNL     1       9.265  -1.997   6.157  0.00  0.00    +0.000 C 
ATOM     11  O   UNL     1       9.040  -2.052   7.360  0.00  0.00    +0.000 OA
ATOM     12  H   UNL     1      10.856  -0.746   6.343  0.00  0.00    +0.000 HD
ATOM     13  H   UNL     1      10.406  -1.000   4.698  0.00  0.00    +0.000 HD
ENDBRANCH   1  10
BRANCH   5  14
ATOM     14  C   UNL     1       6.289  -4.924   1.263  0.00  0.00    +0.000 C 
BRANCH  14  15
ATOM     15  C   UNL     1       6.850  -6.317   1.415  0.00  0.00    +0.000 A 
ATOM     16  C   UNL     1       8.215  -6.522   1.628  0.00  0.00    +0.000 A 
ATOM     17  C   UNL     1       8.720  -7.813   1.742  0.00  0.00    +0.000 A 
ATOM     18  C   UNL     1       7.862  -8.913   1.643  0.00  0.00    +0.000 A 
ATOM     19  C   UNL     1       6.485  -8.756   1.433  0.00  0.00    +0.000 A 
ATOM     20  C   UNL     1       6.008  -7.437   1.321  0.00  0.00    +0.000 A 
BRANCH  19  21
ATOM     21  N   UNL     1       5.623  -9.828   1.282  0.00  0.00    +0.000 N 
ATOM     22  C   UNL     1       6.088 -11.153   0.873  0.00  0.00    +0.000 C 
ATOM     23  C   UNL     1       5.089 -11.720  -0.139  0.00  0.00    +0.000 C 
ATOM     24  C   UNL     1       3.660 -11.710   0.404  0.00  0.00    +0.000 C 
ATOM     25  C   UNL     1       3.271 -10.331   0.936  0.00  0.00    +0.000 C 
ATOM     26  C   UNL     1       4.308  -9.809   1.929  0.00  0.00    +0.000 C 
ENDBRANCH  19  21
ENDBRANCH  14  15
ENDBRANCH   5  14
TORSDOF 4
