REMARK  Name = 
REMARK  3 active torsions:
REMARK  status: ('A' for Active; 'I' for Inactive)
REMARK    1  A    between atoms: C_2  and  C_4
REMARK    2  A    between atoms: N_8  and  C_9
REMARK    3  A    between atoms: C_9  and  C_10
REMARK                            x       y       z     vdW  Elec       q    Type
REMARK                         _______ _______ _______ _____ _____    ______ ____
ROOT
ATOM      1  C   UNL     1       8.379   1.219  -1.797  0.00  0.00    +0.000 A 
ATOM      2  C   UNL     1       8.596   1.650  -3.102  0.00  0.00    +0.000 A 
ATOM      3  C   UNL     1       7.559   1.551  -4.034  0.00  0.00    +0.000 A 
ATOM      4  C   UNL     1       6.326   1.037  -3.642  0.00  0.00    +0.000 A 
ATOM      5  N   UNL     1       5.241   0.914  -4.511  0.00  0.00    +0.000 N 
ATOM      6  N   UNL     1       6.111   0.598  -2.383  0.00  0.00    +0.000 NA
ATOM      7  C   UNL     1       7.136   0.686  -1.494  0.00  0.00    +0.000 A 
ATOM      8  H   UNL     1       4.427   0.629  -3.979  0.00  0.00    +0.000 HD
ENDROOT
BRANCH   1  10
ATOM      9  N   UNL     1      10.379   2.236  -0.862  0.00  0.00    +0.000 N 
ATOM     10  C   UNL     1       9.410   1.277  -0.739  0.00  0.00    +0.000 C 
ATOM     11  O   UNL     1       9.382   0.527   0.225  0.00  0.00    +0.000 OA
ATOM     12  H   UNL     1      11.021   2.328  -0.084  0.00  0.00    +0.000 HD
ATOM     13  H   UNL     1      10.300   3.016  -1.498  0.00  0.00    +0.000 HD
ENDBRANCH   1  10
BRANCH   5  14
ATOM     14  C   UNL     1       5.087   1.717  -5.737  0.00  0.00    +0.000 C 
ATOM     15  C   UNL     1       4.979   3.228  -5.604  0.00  0.00    +0.000 C 
ATOM     16  C   UNL     1       3.763   2.439  -5.965  0.00  0.00    +0.000 C 
BRANCH  14  17
ATOM     17  C   UNL     1       5.713   1.102  -7.002  0.00  0.00    +0.000 A 
ATOM     18  C   UNL     1       5.382  -0.201  -7.390  0.00  0.00    +0.000 A 
ATOM     19  C   UNL     1       5.903  -0.735  -8.566  0.00  0.00    +0.000 A 
ATOM     20  C   UNL     1       6.746   0.042  -9.344  0.00  0.00    +0.000 A 
ATOM     21  C   UNL     1       7.044   1.318  -8.901  0.00  0.00    +0.000 A 
ATOM     22  N   UNL     1       6.559   1.855  -7.759  0.00  0.00    +0.000 NA
ENDBRANCH  14  17
ENDBRANCH   5  14
TORSDOF 3
