REMARK  Name = 
REMARK  8 active torsions:
REMARK  status: ('A' for Active; 'I' for Inactive)
REMARK    1  A    between atoms: C_1  and  C_2
REMARK    2  A    between atoms: C_6  and  C_7
REMARK    3  A    between atoms: C_7  and  N_8
REMARK    4  A    between atoms: N_8  and  C_9
REMARK    5  A    between atoms: C_9  and  C_10
REMARK    6  A    between atoms: C_13  and  C_14
REMARK    7  A    between atoms: C_14  and  N_15
REMARK    8  A    between atoms: C_16  and  C_18
REMARK                            x       y       z     vdW  Elec       q    Type
REMARK                         _______ _______ _______ _____ _____    ______ ____
ROOT
ATOM      1  C   UNL     1      -5.257   3.586   0.087  0.00  0.00    +0.000 A 
ATOM      2  C   UNL     1      -5.806   2.295   0.091  0.00  0.00    +0.000 A 
ATOM      3  C   UNL     1      -7.190   2.109   0.143  0.00  0.00    +0.000 A 
ATOM      4  C   UNL     1      -8.053   3.211   0.187  0.00  0.00    +0.000 A 
ATOM      5  C   UNL     1      -7.503   4.499   0.222  0.00  0.00    +0.000 A 
ATOM      6  C   UNL     1      -6.120   4.686   0.167  0.00  0.00    +0.000 A 
ENDROOT
BRANCH   1   7
ATOM      7  C   UNL     1      -3.763   3.786  -0.028  0.00  0.00    +0.000 C 
BRANCH   7   8
ATOM      8  N   UNL     1      -3.187   3.163  -1.222  0.00  0.00    +0.000 NA
ATOM      9  H   UNL     1      -2.177   3.313  -1.218  0.00  0.00    +0.000 HD
BRANCH   8  10
ATOM     10  C   UNL     1      -3.700   3.767  -2.461  0.00  0.00    +0.000 C 
BRANCH  10  16
ATOM     11  C   UNL     1      -0.112   3.802  -5.760  0.00  0.00    +0.000 C 
ATOM     12  C   UNL     1      -1.350   3.133  -5.246  0.00  0.00    +0.000 A 
ATOM     13  C   UNL     1      -1.861   1.998  -5.866  0.00  0.00    +0.000 A 
ATOM     14  C   UNL     1      -3.018   1.418  -5.355  0.00  0.00    +0.000 A 
ATOM     15  C   UNL     1      -3.631   1.988  -4.247  0.00  0.00    +0.000 A 
ATOM     16  C   UNL     1      -3.070   3.132  -3.684  0.00  0.00    +0.000 A 
ATOM     17  N   UNL     1      -1.934   3.700  -4.163  0.00  0.00    +0.000 NA
ENDBRANCH  10  16
ENDBRANCH   8  10
ENDBRANCH   7   8
ENDBRANCH   1   7
BRANCH   4  18
ATOM     18  C   UNL     1      -9.547   3.021   0.231  0.00  0.00    +0.000 C 
BRANCH  18  19
ATOM     19  N   UNL     1     -10.017   2.917   1.589  0.00  0.00    +0.000 N 
ATOM     20  C   UNL     1     -11.336   2.673   1.870  0.00  0.00    +0.000 C 
ATOM     21  O   UNL     1     -12.168   2.489   0.985  0.00  0.00    +0.000 OA
ATOM     22  H   UNL     1      -9.407   3.280   2.314  0.00  0.00    +0.000 HD
BRANCH  20  23
ATOM     23  C   UNL     1     -11.694   2.580   3.290  0.00  0.00    +0.000 A 
ATOM     24  C   UNL     1     -12.820   1.862   3.672  0.00  0.00    +0.000 A 
ATOM     25  S   UNL     1     -13.064   1.820   5.359  0.00  0.00    +0.000 S 
ATOM     26  C   UNL     1     -11.704   2.804   5.636  0.00  0.00    +0.000 A 
ATOM     27  N   UNL     1     -11.359   3.182   6.897  0.00  0.00    +0.000 NA
ATOM     28  C   UNL     1     -10.323   3.950   6.957  0.00  0.00    +0.000 A 
ATOM     29  N   UNL     1      -9.594   4.370   5.874  0.00  0.00    +0.000 N 
ATOM     30  C   UNL     1      -9.886   3.986   4.585  0.00  0.00    +0.000 A 
ATOM     31  O   UNL     1      -9.185   4.341   3.644  0.00  0.00    +0.000 OA
ATOM     32  C   UNL     1     -11.055   3.137   4.460  0.00  0.00    +0.000 A 
ATOM     33  H   UNL     1      -8.787   4.961   5.989  0.00  0.00    +0.000 HD
ENDBRANCH  20  23
ENDBRANCH  18  19
ENDBRANCH   4  18
TORSDOF 7
