REMARK  Name = 
REMARK  6 active torsions:
REMARK  status: ('A' for Active; 'I' for Inactive)
REMARK    1  A    between atoms: C_2  and  C_4
REMARK    2  A    between atoms: N_8  and  C_9
REMARK    3  A    between atoms: C_9  and  C_10
REMARK    4  A    between atoms: C_10  and  C_13
REMARK    5  A    between atoms: C_17  and  C_18
REMARK    6  A    between atoms: C_18  and  C_19
REMARK                            x       y       z     vdW  Elec       q    Type
REMARK                         _______ _______ _______ _____ _____    ______ ____
ROOT
ATOM      1  C   UNL     1       5.484   4.826  -3.668  0.00  0.00    +0.000 C 
ENDROOT
BRANCH   1   6
ATOM      2  C   UNL     1       6.066   2.004   0.542  0.00  0.00    +0.000 A 
ATOM      3  C   UNL     1       5.664   3.320   0.364  0.00  0.00    +0.000 A 
ATOM      4  C   UNL     1       5.608   3.835  -0.927  0.00  0.00    +0.000 A 
ATOM      5  C   UNL     1       5.945   3.030  -2.019  0.00  0.00    +0.000 A 
ATOM      6  N   UNL     1       5.897   3.474  -3.316  0.00  0.00    +0.000 N 
ATOM      7  N   UNL     1       6.351   1.758  -1.848  0.00  0.00    +0.000 NA
ATOM      8  C   UNL     1       6.423   1.276  -0.579  0.00  0.00    +0.000 A 
ATOM      9  H   UNL     1       6.101   2.786  -4.028  0.00  0.00    +0.000 HD
BRANCH   2  11
ATOM     10  N   UNL     1       5.278   1.850   2.829  0.00  0.00    +0.000 N 
ATOM     11  C   UNL     1       6.144   1.378   1.879  0.00  0.00    +0.000 C 
ATOM     12  O   UNL     1       6.916   0.455   2.112  0.00  0.00    +0.000 OA
ATOM     13  H   UNL     1       5.263   1.344   3.707  0.00  0.00    +0.000 HD
ATOM     14  H   UNL     1       4.475   2.414   2.602  0.00  0.00    +0.000 HD
ENDBRANCH   2  11
ENDBRANCH   1   6
BRANCH   1  15
ATOM     15  C   UNL     1       5.505   5.164  -5.177  0.00  0.00    +0.000 C 
ATOM     16  F   UNL     1       6.774   5.014  -5.656  0.00  0.00    +0.000 F 
ATOM     17  F   UNL     1       4.744   4.254  -5.851  0.00  0.00    +0.000 F 
BRANCH  15  18
ATOM     18  C   UNL     1       4.990   6.586  -5.319  0.00  0.00    +0.000 A 
ATOM     19  C   UNL     1       3.618   6.822  -5.476  0.00  0.00    +0.000 A 
ATOM     20  C   UNL     1       3.125   8.125  -5.421  0.00  0.00    +0.000 A 
ATOM     21  C   UNL     1       3.996   9.202  -5.216  0.00  0.00    +0.000 A 
ATOM     22  C   UNL     1       5.377   8.993  -5.092  0.00  0.00    +0.000 A 
ATOM     23  C   UNL     1       5.862   7.679  -5.151  0.00  0.00    +0.000 A 
BRANCH  22  24
ATOM     24  C   UNL     1       6.335  10.155  -4.919  0.00  0.00    +0.000 C 
BRANCH  24  25
ATOM     25  C   UNL     1       6.580  10.487  -3.449  0.00  0.00    +0.000 C 
ATOM     26  C   UNL     1       7.634  11.603  -3.183  0.00  0.00    +0.000 C 
ATOM     27  C   UNL     1       8.163  10.779  -1.999  0.00  0.00    +0.000 C 
ATOM     28  C   UNL     1       7.483   9.540  -2.609  0.00  0.00    +0.000 C 
ENDBRANCH  24  25
ENDBRANCH  22  24
ENDBRANCH  15  18
ENDBRANCH   1  15
TORSDOF 6
