REMARK  Name = 
REMARK  4 active torsions:
REMARK  status: ('A' for Active; 'I' for Inactive)
REMARK    1  A    between atoms: C_2  and  C_4
REMARK    2  A    between atoms: N_8  and  C_9
REMARK    3  A    between atoms: C_9  and  C_10
REMARK    4  A    between atoms: C_14  and  C_15
REMARK                            x       y       z     vdW  Elec       q    Type
REMARK                         _______ _______ _______ _____ _____    ______ ____
ROOT
ATOM      1  C   UNL     1       5.485  -4.591   3.488  0.00  0.00    +0.000 C 
ENDROOT
BRANCH   1   6
ATOM      2  C   UNL     1       7.668  -0.751   0.869  0.00  0.00    +0.000 A 
ATOM      3  C   UNL     1       7.295  -2.010   0.412  0.00  0.00    +0.000 A 
ATOM      4  C   UNL     1       6.555  -2.847   1.252  0.00  0.00    +0.000 A 
ATOM      5  C   UNL     1       6.215  -2.419   2.531  0.00  0.00    +0.000 A 
ATOM      6  N   UNL     1       5.437  -3.147   3.401  0.00  0.00    +0.000 N 
ATOM      7  N   UNL     1       6.582  -1.205   2.986  0.00  0.00    +0.000 NA
ATOM      8  C   UNL     1       7.302  -0.402   2.159  0.00  0.00    +0.000 A 
ATOM      9  H   UNL     1       5.385  -2.658   4.289  0.00  0.00    +0.000 HD
BRANCH   2  11
ATOM     10  N   UNL     1       8.340   0.104  -1.305  0.00  0.00    +0.000 N 
ATOM     11  C   UNL     1       8.438   0.210   0.054  0.00  0.00    +0.000 C 
ATOM     12  O   UNL     1       9.111   1.091   0.573  0.00  0.00    +0.000 OA
ATOM     13  H   UNL     1       8.792   0.832  -1.845  0.00  0.00    +0.000 HD
ATOM     14  H   UNL     1       7.615  -0.430  -1.761  0.00  0.00    +0.000 HD
ENDBRANCH   2  11
ENDBRANCH   1   6
BRANCH   1  15
ATOM     15  C   UNL     1       6.524  -5.152   4.437  0.00  0.00    +0.000 A 
ATOM     16  C   UNL     1       7.480  -4.381   5.107  0.00  0.00    +0.000 A 
ATOM     17  C   UNL     1       8.378  -4.983   5.988  0.00  0.00    +0.000 A 
ATOM     18  C   UNL     1       8.332  -6.361   6.216  0.00  0.00    +0.000 A 
ATOM     19  C   UNL     1       7.385  -7.172   5.573  0.00  0.00    +0.000 A 
ATOM     20  C   UNL     1       6.503  -6.543   4.674  0.00  0.00    +0.000 A 
BRANCH  19  21
ATOM     21  C   UNL     1       7.281  -8.618   5.859  0.00  0.00    +0.000 A 
ATOM     22  C   UNL     1       7.428  -9.126   7.155  0.00  0.00    +0.000 A 
ATOM     23  N   UNL     1       7.315 -10.434   7.507  0.00  0.00    +0.000 NA
ATOM     24  C   UNL     1       7.024 -11.297   6.509  0.00  0.00    +0.000 A 
ATOM     25  C   UNL     1       6.854 -10.905   5.194  0.00  0.00    +0.000 A 
ATOM     26  F   UNL     1       6.560 -11.805   4.249  0.00  0.00    +0.000 F 
ATOM     27  C   UNL     1       6.989  -9.562   4.863  0.00  0.00    +0.000 A 
ENDBRANCH  19  21
ENDBRANCH   1  15
TORSDOF 4
