REMARK  Name = 
REMARK  8 active torsions:
REMARK  status: ('A' for Active; 'I' for Inactive)
REMARK    1  A    between atoms: C_2  and  C_3
REMARK    2  A    between atoms: N_7  and  C_8
REMARK    3  A    between atoms: C_8  and  C_9
REMARK    4  A    between atoms: C_9  and  C_10
REMARK    5  A    between atoms: C_9  and  C_12
REMARK    6  A    between atoms: C_10  and  O_11
REMARK    7  A    between atoms: C_14  and  S_15
REMARK    8  A    between atoms: S_15  and  C_16
REMARK                            x       y       z     vdW  Elec       q    Type
REMARK                         _______ _______ _______ _____ _____    ______ ____
ROOT
ATOM      1  C   UNL     1      -5.865   1.192  -0.213  0.00  0.00    +0.000 C 
ENDROOT
BRANCH   1   2
ATOM      2  C   UNL     1      -6.545   2.556  -0.317  0.00  0.00    +0.000 A 
ATOM      3  C   UNL     1      -7.348   2.888  -1.428  0.00  0.00    +0.000 A 
ATOM      4  C   UNL     1      -7.945   4.155  -1.537  0.00  0.00    +0.000 A 
ATOM      5  C   UNL     1      -7.745   5.100  -0.524  0.00  0.00    +0.000 A 
ATOM      6  C   UNL     1      -6.954   4.785   0.580  0.00  0.00    +0.000 A 
ATOM      7  C   UNL     1      -6.373   3.527   0.679  0.00  0.00    +0.000 A 
ATOM      8  F   UNL     1      -5.631   3.253   1.761  0.00  0.00    +0.000 F 
BRANCH   4   9
ATOM      9  S   UNL     1      -9.080   4.534  -2.859  0.00  0.00    +0.000 S 
BRANCH   9  10
ATOM     10  C   UNL     1      -7.903   5.073  -4.145  0.00  0.00    +0.000 C 
ATOM     11  C   UNL     1      -7.290   6.461  -3.924  0.00  0.00    +0.000 C 
ATOM     12  O   UNL     1      -7.684   6.877  -5.261  0.00  0.00    +0.000 OA
ATOM     13  C   UNL     1      -8.612   5.759  -5.326  0.00  0.00    +0.000 C 
ENDBRANCH   9  10
ENDBRANCH   4   9
ENDBRANCH   1   2
BRANCH   1  14
ATOM     14  C   UNL     1      -4.328   1.372  -0.152  0.00  0.00    +0.000 C 
BRANCH  14  19
ATOM     15  C   UNL     1       0.541  -0.035  -0.224  0.00  0.00    +0.000 A 
ATOM     16  C   UNL     1      -0.063   1.109  -0.727  0.00  0.00    +0.000 A 
ATOM     17  C   UNL     1      -1.455   1.187  -0.760  0.00  0.00    +0.000 A 
ATOM     18  C   UNL     1      -2.224   0.131  -0.269  0.00  0.00    +0.000 A 
ATOM     19  N   UNL     1      -3.612   0.115  -0.344  0.00  0.00    +0.000 N 
ATOM     20  N   UNL     1      -1.645  -0.974   0.236  0.00  0.00    +0.000 NA
ATOM     21  C   UNL     1      -0.289  -1.042   0.243  0.00  0.00    +0.000 A 
ATOM     22  H   UNL     1      -3.934  -0.647   0.260  0.00  0.00    +0.000 HD
BRANCH  15  24
ATOM     23  N   UNL     1       3.117  -0.286  -0.225  0.00  0.00    +0.000 NA
ATOM     24  C   UNL     1       1.961  -0.181  -0.216  0.00  0.00    +0.000 C 
ENDBRANCH  15  24
ENDBRANCH  14  19
ENDBRANCH   1  14
BRANCH   1  25
ATOM     25  C   UNL     1      -6.399   0.376   0.980  0.00  0.00    +0.000 C 
BRANCH  25  26
ATOM     26  O   UNL     1      -5.894  -0.959   0.971  0.00  0.00    +0.000 OA
ATOM     27  H   UNL     1      -6.208  -1.393   0.158  0.00  0.00    +0.000 HD
ENDBRANCH  25  26
ENDBRANCH   1  25
TORSDOF 8
