REMARK  Name = 
REMARK  4 active torsions:
REMARK  status: ('A' for Active; 'I' for Inactive)
REMARK    1  A    between atoms: C_1  and  C_2
REMARK    2  A    between atoms: C_4  and  C_5
REMARK    3  A    between atoms: N_8  and  C_9
REMARK    4  A    between atoms: C_9  and  C_10
REMARK                            x       y       z     vdW  Elec       q    Type
REMARK                         _______ _______ _______ _____ _____    ______ ____
ROOT
ATOM      1  C   UNL     1       2.513   1.006   0.034  0.00  0.00    +0.000 C 
ATOM      2  C   UNL     1       1.173   0.332   0.041  0.00  0.00    +0.000 A 
ATOM      3  C   UNL     1       0.011   1.074   0.003  0.00  0.00    +0.000 A 
ATOM      4  C   UNL     1      -1.164   0.358  -0.042  0.00  0.00    +0.000 A 
ATOM      5  C   UNL     1      -2.496   1.042  -0.045  0.00  0.00    +0.000 C 
ATOM      6  N   UNL     1      -1.186  -0.988  -0.074  0.00  0.00    +0.000 NA
ATOM      7  C   UNL     1      -0.015  -1.638  -0.018  0.00  0.00    +0.000 A 
ATOM      8  N   UNL     1       0.016  -3.013  -0.069  0.00  0.00    +0.000 N 
ATOM      9  N   UNL     1       1.170  -1.018   0.058  0.00  0.00    +0.000 NA
ATOM     10  H   UNL     1       0.822  -3.364   0.430  0.00  0.00    +0.000 HD
ENDROOT
BRANCH   8  11
ATOM     11  C   UNL     1      -1.220  -3.753   0.089  0.00  0.00    +0.000 C 
BRANCH  11  12
ATOM     12  C   UNL     1      -1.653  -3.936   1.532  0.00  0.00    +0.000 A 
ATOM     13  C   UNL     1      -2.505  -3.013   2.138  0.00  0.00    +0.000 A 
ATOM     14  C   UNL     1      -2.930  -3.236   3.445  0.00  0.00    +0.000 A 
ATOM     15  C   UNL     1      -2.500  -4.374   4.114  0.00  0.00    +0.000 A 
ATOM     16  C   UNL     1      -1.650  -5.240   3.448  0.00  0.00    +0.000 A 
ATOM     17  N   UNL     1      -1.213  -5.046   2.183  0.00  0.00    +0.000 NA
ENDBRANCH  11  12
ENDBRANCH   8  11
TORSDOF 2
