REMARK  Name = 
REMARK  5 active torsions:
REMARK  status: ('A' for Active; 'I' for Inactive)
REMARK    1  A    between atoms: C_2  and  C_4
REMARK    2  A    between atoms: C_7  and  O_8
REMARK    3  A    between atoms: O_8  and  C_9
REMARK    4  A    between atoms: C_9  and  C_10
REMARK    5  A    between atoms: C_14  and  C_15
REMARK                            x       y       z     vdW  Elec       q    Type
REMARK                         _______ _______ _______ _____ _____    ______ ____
ROOT
ATOM      1  C   UNL     1       5.189  -5.031  -2.933  0.00  0.00    +0.000 C 
ATOM      2  C   UNL     1       5.302  -4.699  -4.414  0.00  0.00    +0.000 C 
ATOM      3  C   UNL     1       3.972  -5.053  -3.833  0.00  0.00    +0.000 C 
ENDROOT
BRANCH   1   4
ATOM      4  C   UNL     1       5.786  -6.334  -2.423  0.00  0.00    +0.000 A 
ATOM      5  C   UNL     1       7.173  -6.529  -2.373  0.00  0.00    +0.000 A 
ATOM      6  C   UNL     1       7.721  -7.685  -1.818  0.00  0.00    +0.000 A 
ATOM      7  C   UNL     1       6.886  -8.672  -1.290  0.00  0.00    +0.000 A 
ATOM      8  C   UNL     1       5.490  -8.527  -1.304  0.00  0.00    +0.000 A 
ATOM      9  C   UNL     1       4.971  -7.359  -1.894  0.00  0.00    +0.000 A 
BRANCH   8  10
ATOM     10  C   UNL     1       4.607  -9.519  -0.666  0.00  0.00    +0.000 A 
ATOM     11  C   UNL     1       4.921 -10.150   0.529  0.00  0.00    +0.000 A 
ATOM     12  N   UNL     1       4.133 -11.045   1.166  0.00  0.00    +0.000 NA
ATOM     13  C   UNL     1       2.962 -11.308   0.573  0.00  0.00    +0.000 A 
ATOM     14  N   UNL     1       2.530 -10.778  -0.579  0.00  0.00    +0.000 NA
ATOM     15  C   UNL     1       3.369  -9.893  -1.167  0.00  0.00    +0.000 A 
ENDBRANCH   8  10
ENDBRANCH   1   4
BRANCH   1  16
ATOM     16  O   UNL     1       5.423  -3.847  -2.134  0.00  0.00    +0.000 OA
BRANCH  16  20
ATOM     17  C   UNL     1       3.456  -3.381   1.451  0.00  0.00    +0.000 A 
ATOM     18  C   UNL     1       4.458  -2.482   1.078  0.00  0.00    +0.000 A 
ATOM     19  C   UNL     1       5.113  -2.671  -0.135  0.00  0.00    +0.000 A 
ATOM     20  C   UNL     1       4.744  -3.745  -0.933  0.00  0.00    +0.000 A 
ATOM     21  N   UNL     1       3.780  -4.631  -0.604  0.00  0.00    +0.000 NA
ATOM     22  C   UNL     1       3.171  -4.439   0.595  0.00  0.00    +0.000 A 
BRANCH  17  24
ATOM     23  N   UNL     1       2.586  -2.017   3.268  0.00  0.00    +0.000 N 
ATOM     24  C   UNL     1       2.705  -3.265   2.720  0.00  0.00    +0.000 C 
ATOM     25  O   UNL     1       2.178  -4.237   3.241  0.00  0.00    +0.000 OA
ATOM     26  H   UNL     1       1.983  -1.943   4.078  0.00  0.00    +0.000 HD
ATOM     27  H   UNL     1       2.780  -1.170   2.754  0.00  0.00    +0.000 HD
ENDBRANCH  17  24
ENDBRANCH  16  20
ENDBRANCH   1  16
TORSDOF 5
