REMARK  Name = 
REMARK  9 active torsions:
REMARK  status: ('A' for Active; 'I' for Inactive)
REMARK    1  A    between atoms: C_1  and  O_2
REMARK    2  A    between atoms: O_2  and  C_3
REMARK    3  A    between atoms: C_10  and  C_11
REMARK    4  A    between atoms: N_13  and  C_14
REMARK    5  A    between atoms: C_14  and  C_15
REMARK    6  A    between atoms: C_18  and  C_19
REMARK    7  A    between atoms: C_19  and  N_20
REMARK    8  A    between atoms: N_20  and  C_21
REMARK    9  A    between atoms: C_21  and  C_22
REMARK                            x       y       z     vdW  Elec       q    Type
REMARK                         _______ _______ _______ _____ _____    ______ ____
ROOT
ATOM      1  C   UNL     1       3.275  -3.289  -0.508  0.00  0.00    +0.000 C 
ENDROOT
BRANCH   1   2
ATOM      2  C   UNL     1       2.234  -3.366   0.585  0.00  0.00    +0.000 A 
ATOM      3  C   UNL     1       1.567  -4.569   0.851  0.00  0.00    +0.000 A 
ATOM      4  C   UNL     1       0.547  -4.626   1.810  0.00  0.00    +0.000 A 
ATOM      5  C   UNL     1       0.159  -3.478   2.515  0.00  0.00    +0.000 A 
ATOM      6  C   UNL     1       0.838  -2.279   2.261  0.00  0.00    +0.000 A 
ATOM      7  C   UNL     1       1.865  -2.224   1.310  0.00  0.00    +0.000 A 
BRANCH   5   8
ATOM      8  C   UNL     1      -0.978  -3.527   3.517  0.00  0.00    +0.000 C 
BRANCH   8   9
ATOM      9  N   UNL     1      -0.673  -4.441   4.611  0.00  0.00    +0.000 NA
ATOM     10  H   UNL     1       0.190  -4.142   5.061  0.00  0.00    +0.000 HD
BRANCH   9  11
ATOM     11  C   UNL     1      -1.740  -4.479   5.610  0.00  0.00    +0.000 C 
BRANCH  11  12
ATOM     12  C   UNL     1      -1.372  -5.420   6.732  0.00  0.00    +0.000 A 
ATOM     13  C   UNL     1      -1.254  -4.966   8.049  0.00  0.00    +0.000 A 
ATOM     14  C   UNL     1      -0.886  -5.870   9.035  0.00  0.00    +0.000 A 
ATOM     15  N   UNL     1      -0.633  -7.176   8.803  0.00  0.00    +0.000 NA
ATOM     16  C   UNL     1      -0.755  -7.597   7.526  0.00  0.00    +0.000 A 
ATOM     17  C   UNL     1      -1.123  -6.773   6.474  0.00  0.00    +0.000 A 
ENDBRANCH  11  12
ENDBRANCH   9  11
ENDBRANCH   8   9
ENDBRANCH   5   8
ENDBRANCH   1   2
BRANCH   1  20
ATOM     18  C   UNL     1       3.388  -2.793  -2.930  0.00  0.00    +0.000 C 
ATOM     19  O   UNL     1       4.608  -2.955  -2.945  0.00  0.00    +0.000 OA
ATOM     20  N   UNL     1       2.669  -2.941  -1.774  0.00  0.00    +0.000 N 
ATOM     21  H   UNL     1       1.661  -2.886  -1.801  0.00  0.00    +0.000 HD
BRANCH  18  29
ATOM     22  C   UNL     1       0.059  -2.226  -3.605  0.00  0.00    +0.000 A 
ATOM     23  N   UNL     1      -1.136  -1.850  -4.106  0.00  0.00    +0.000 NA
ATOM     24  C   UNL     1      -1.181  -1.422  -5.370  0.00  0.00    +0.000 A 
ATOM     25  N   UNL     1      -0.167  -1.334  -6.221  0.00  0.00    +0.000 NA
ATOM     26  C   UNL     1       1.006  -1.708  -5.681  0.00  0.00    +0.000 A 
ATOM     27  S   UNL     1       2.413  -1.680  -6.631  0.00  0.00    +0.000 S 
ATOM     28  C   UNL     1       3.364  -2.211  -5.326  0.00  0.00    +0.000 A 
ATOM     29  C   UNL     1       2.651  -2.405  -4.148  0.00  0.00    +0.000 A 
ATOM     30  C   UNL     1       1.229  -2.147  -4.379  0.00  0.00    +0.000 A 
BRANCH  22  32
ATOM     31  C   UNL     1      -1.152  -2.722  -1.651  0.00  0.00    +0.000 C 
ATOM     32  O   UNL     1       0.107  -2.721  -2.319  0.00  0.00    +0.000 OA
ENDBRANCH  22  32
ENDBRANCH  18  29
ENDBRANCH   1  20
TORSDOF 8
