REMARK  Name = 
REMARK  3 active torsions:
REMARK  status: ('A' for Active; 'I' for Inactive)
REMARK    1  A    between atoms: C_2  and  C_4
REMARK    2  A    between atoms: N_8  and  C_9
REMARK    3  A    between atoms: C_9  and  C_10
REMARK                            x       y       z     vdW  Elec       q    Type
REMARK                         _______ _______ _______ _____ _____    ______ ____
ROOT
ATOM      1  C   UNL     1       3.338   0.509  -1.213  0.00  0.00    +0.000 A 
ATOM      2  C   UNL     1       4.685   0.356  -1.433  0.00  0.00    +0.000 A 
ATOM      3  N   UNL     1       5.453   1.291  -2.035  0.00  0.00    +0.000 NA
ATOM      4  C   UNL     1       4.846   2.418  -2.441  0.00  0.00    +0.000 A 
ATOM      5  N   UNL     1       5.576   3.418  -3.062  0.00  0.00    +0.000 N 
ATOM      6  N   UNL     1       3.535   2.651  -2.289  0.00  0.00    +0.000 NA
ATOM      7  C   UNL     1       2.804   1.688  -1.679  0.00  0.00    +0.000 A 
ATOM      8  H   UNL     1       4.911   4.007  -3.551  0.00  0.00    +0.000 HD
ENDROOT
BRANCH   1  10
ATOM      9  N   UNL     1       3.082  -1.396   0.274  0.00  0.00    +0.000 N 
ATOM     10  C   UNL     1       2.488  -0.507  -0.578  0.00  0.00    +0.000 C 
ATOM     11  O   UNL     1       1.283  -0.541  -0.789  0.00  0.00    +0.000 OA
ATOM     12  H   UNL     1       2.460  -2.032   0.760  0.00  0.00    +0.000 HD
ATOM     13  H   UNL     1       4.003  -1.265   0.670  0.00  0.00    +0.000 HD
ENDBRANCH   1  10
BRANCH   5  14
ATOM     14  C   UNL     1       6.673   2.925  -3.870  0.00  0.00    +0.000 C 
BRANCH  14  15
ATOM     15  C   UNL     1       7.390   4.082  -4.522  0.00  0.00    +0.000 A 
ATOM     16  C   UNL     1       7.977   5.085  -3.742  0.00  0.00    +0.000 A 
ATOM     17  C   UNL     1       8.663   6.108  -4.376  0.00  0.00    +0.000 A 
ATOM     18  N   UNL     1       8.805   6.198  -5.716  0.00  0.00    +0.000 NA
ATOM     19  C   UNL     1       8.232   5.222  -6.452  0.00  0.00    +0.000 A 
ATOM     20  C   UNL     1       7.525   4.159  -5.911  0.00  0.00    +0.000 A 
ENDBRANCH  14  15
ENDBRANCH   5  14
TORSDOF 3
