REMARK  Name = 
REMARK  6 active torsions:
REMARK  status: ('A' for Active; 'I' for Inactive)
REMARK    1  A    between atoms: C_2  and  C_25
REMARK    2  A    between atoms: N_3  and  C_4
REMARK    3  A    between atoms: C_4  and  C_5
REMARK    4  A    between atoms: C_8  and  C_9
REMARK    5  A    between atoms: C_9  and  N_10
REMARK    6  A    between atoms: C_11  and  C_13
REMARK                            x       y       z     vdW  Elec       q    Type
REMARK                         _______ _______ _______ _____ _____    ______ ____
ROOT
ATOM      1  C   UNL     1       3.181   1.006   3.474  0.00  0.00    +0.000 A 
ATOM      2  C   UNL     1       3.358   2.357   3.798  0.00  0.00    +0.000 A 
ATOM      3  C   UNL     1       4.181   2.733   4.864  0.00  0.00    +0.000 A 
ATOM      4  C   UNL     1       4.859   1.764   5.615  0.00  0.00    +0.000 A 
ATOM      5  C   UNL     1       4.685   0.413   5.289  0.00  0.00    +0.000 A 
ATOM      6  C   UNL     1       3.862   0.038   4.224  0.00  0.00    +0.000 A 
ENDROOT
BRANCH   1   7
ATOM      7  C   UNL     1       2.248   0.600   2.367  0.00  0.00    +0.000 C 
BRANCH   7  10
ATOM      8  O   UNL     1       0.991  -0.183   0.018  0.00  0.00    +0.000 OA
ATOM      9  C   UNL     1       2.171   0.157  -0.036  0.00  0.00    +0.000 C 
ATOM     10  N   UNL     1       2.878   0.560   1.075  0.00  0.00    +0.000 N 
ATOM     11  H   UNL     1       3.825   0.898   0.933  0.00  0.00    +0.000 HD
BRANCH   9  12
ATOM     12  C   UNL     1       2.920   0.177  -1.275  0.00  0.00    +0.000 A 
ATOM     13  N   UNL     1       4.206   0.459  -1.398  0.00  0.00    +0.000 NA
ATOM     14  C   UNL     1       4.481   0.331  -2.738  0.00  0.00    +0.000 A 
ATOM     15  C   UNL     1       3.350  -0.009  -3.442  0.00  0.00    +0.000 A 
ATOM     16  N   UNL     1       2.367  -0.111  -2.499  0.00  0.00    +0.000 N 
ATOM     17  H   UNL     1       1.395  -0.353  -2.644  0.00  0.00    +0.000 HD
ENDBRANCH   9  12
ENDBRANCH   7  10
ENDBRANCH   1   7
BRANCH   4  18
ATOM     18  C   UNL     1       5.739   2.155   6.772  0.00  0.00    +0.000 C 
BRANCH  18  19
ATOM     19  N   UNL     1       5.000   2.221   8.007  0.00  0.00    +0.000 N 
ATOM     20  C   UNL     1       4.972   1.188   8.909  0.00  0.00    +0.000 C 
ATOM     21  O   UNL     1       5.569   0.133   8.718  0.00  0.00    +0.000 OA
ATOM     22  H   UNL     1       4.341   2.986   8.104  0.00  0.00    +0.000 HD
BRANCH  20  23
ATOM     23  C   UNL     1       4.248   1.438  10.164  0.00  0.00    +0.000 A 
ATOM     24  C   UNL     1       4.559   0.687  11.290  0.00  0.00    +0.000 A 
ATOM     25  S   UNL     1       3.662   1.123  12.674  0.00  0.00    +0.000 S 
ATOM     26  C   UNL     1       2.791   2.298  11.805  0.00  0.00    +0.000 A 
ATOM     27  N   UNL     1       1.819   3.033  12.410  0.00  0.00    +0.000 NA
ATOM     28  C   UNL     1       1.217   3.866  11.627  0.00  0.00    +0.000 A 
ATOM     29  N   UNL     1       1.506   4.039  10.301  0.00  0.00    +0.000 N 
ATOM     30  C   UNL     1       2.520   3.364   9.662  0.00  0.00    +0.000 A 
ATOM     31  O   UNL     1       2.828   3.623   8.502  0.00  0.00    +0.000 OA
ATOM     32  C   UNL     1       3.202   2.381  10.486  0.00  0.00    +0.000 A 
ATOM     33  H   UNL     1       1.015   4.730   9.752  0.00  0.00    +0.000 HD
ENDBRANCH  20  23
ENDBRANCH  18  19
ENDBRANCH   4  18
TORSDOF 6
