REMARK  Name = 
REMARK  9 active torsions:
REMARK  status: ('A' for Active; 'I' for Inactive)
REMARK    1  A    between atoms: C_1  and  N_2
REMARK    2  A    between atoms: N_2  and  C_3
REMARK    3  A    between atoms: C_3  and  C_4
REMARK    4  A    between atoms: C_7  and  C_8
REMARK    5  A    between atoms: C_8  and  N_9
REMARK    6  A    between atoms: N_9  and  C_10
REMARK    7  A    between atoms: C_10  and  C_11
REMARK    8  A    between atoms: C_18  and  C_20
REMARK    9  A    between atoms: N_26  and  C_27
REMARK                            x       y       z     vdW  Elec       q    Type
REMARK                         _______ _______ _______ _____ _____    ______ ____
ROOT
ATOM      1  C   UNL     1       3.216  -0.442  -1.178  0.00  0.00    +0.000 C 
ENDROOT
BRANCH   1   2
ATOM      2  C   UNL     1       2.282  -0.867  -2.266  0.00  0.00    +0.000 A 
ATOM      3  C   UNL     1       2.170  -2.224  -2.593  0.00  0.00    +0.000 A 
ATOM      4  C   UNL     1       1.256  -2.629  -3.562  0.00  0.00    +0.000 A 
ATOM      5  C   UNL     1       0.419  -1.697  -4.190  0.00  0.00    +0.000 A 
ATOM      6  C   UNL     1       0.570  -0.344  -3.881  0.00  0.00    +0.000 A 
ATOM      7  C   UNL     1       1.497   0.077  -2.929  0.00  0.00    +0.000 A 
BRANCH   5   8
ATOM      8  C   UNL     1      -0.603  -2.124  -5.227  0.00  0.00    +0.000 C 
BRANCH   8   9
ATOM      9  N   UNL     1      -1.120  -3.447  -4.920  0.00  0.00    +0.000 NA
ATOM     10  H   UNL     1      -1.515  -3.443  -3.981  0.00  0.00    +0.000 HD
BRANCH   9  11
ATOM     11  C   UNL     1      -2.109  -3.929  -5.881  0.00  0.00    +0.000 C 
BRANCH  11  12
ATOM     12  C   UNL     1      -2.563  -5.341  -5.459  0.00  0.00    +0.000 C 
ATOM     13  C   UNL     1      -1.423  -6.353  -5.412  0.00  0.00    +0.000 C 
ATOM     14  C   UNL     1      -2.161  -7.676  -5.380  0.00  0.00    +0.000 C 
ATOM     15  C   UNL     1      -3.449  -7.410  -6.149  0.00  0.00    +0.000 C 
ATOM     16  N   UNL     1      -3.489  -5.967  -6.410  0.00  0.00    +0.000 NA
ATOM     17  H   UNL     1      -4.433  -5.601  -6.303  0.00  0.00    +0.000 HD
ENDBRANCH  11  12
ENDBRANCH   9  11
ENDBRANCH   8   9
ENDBRANCH   5   8
ENDBRANCH   1   2
BRANCH   1  19
ATOM     18  C   UNL     1       5.068  -0.267  -2.894  0.00  0.00    +0.000 C 
ATOM     19  N   UNL     1       4.600  -0.136  -1.519  0.00  0.00    +0.000 N 
ATOM     20  C   UNL     1       5.544   0.371  -0.604  0.00  0.00    +0.000 C 
ATOM     21  O   UNL     1       6.670   0.671  -1.000  0.00  0.00    +0.000 OA
BRANCH  20  22
ATOM     22  C   UNL     1       5.199   0.522   0.825  0.00  0.00    +0.000 A 
ATOM     23  C   UNL     1       4.361  -0.319   1.543  0.00  0.00    +0.000 A 
ATOM     24  S   UNL     1       4.122   0.122   3.166  0.00  0.00    +0.000 S 
ATOM     25  C   UNL     1       5.290   1.343   3.036  0.00  0.00    +0.000 A 
ATOM     26  N   UNL     1       5.648   2.046   4.136  0.00  0.00    +0.000 NA
ATOM     27  C   UNL     1       6.593   2.895   3.936  0.00  0.00    +0.000 A 
ATOM     28  N   UNL     1       7.203   3.144   2.724  0.00  0.00    +0.000 N 
ATOM     29  C   UNL     1       8.251   4.133   2.630  0.00  0.00    +0.000 C 
ATOM     30  C   UNL     1       6.797   2.510   1.548  0.00  0.00    +0.000 A 
ATOM     31  O   UNL     1       7.239   2.833   0.450  0.00  0.00    +0.000 OA
ATOM     32  C   UNL     1       5.785   1.476   1.752  0.00  0.00    +0.000 A 
ENDBRANCH  20  22
ENDBRANCH   1  19
TORSDOF 7
