REMARK  Name = 
REMARK  9 active torsions:
REMARK  status: ('A' for Active; 'I' for Inactive)
REMARK    1  A    between atoms: C_1  and  O_2
REMARK    2  A    between atoms: O_2  and  C_3
REMARK    3  A    between atoms: C_10  and  C_11
REMARK    4  A    between atoms: N_13  and  C_14
REMARK    5  A    between atoms: C_14  and  C_15
REMARK    6  A    between atoms: C_18  and  C_19
REMARK    7  A    between atoms: C_19  and  O_20
REMARK    8  A    between atoms: O_20  and  C_21
REMARK    9  A    between atoms: C_21  and  C_22
REMARK                            x       y       z     vdW  Elec       q    Type
REMARK                         _______ _______ _______ _____ _____    ______ ____
ROOT
ATOM      1  C   UNL     1       2.943   1.204  -3.180  0.00  0.00    +0.000 C 
ENDROOT
BRANCH   1   2
ATOM      2  C   UNL     1       1.780   0.247  -3.254  0.00  0.00    +0.000 A 
ATOM      3  C   UNL     1       1.991  -1.138  -3.306  0.00  0.00    +0.000 A 
ATOM      4  C   UNL     1       0.908  -2.023  -3.384  0.00  0.00    +0.000 A 
ATOM      5  C   UNL     1      -0.408  -1.542  -3.424  0.00  0.00    +0.000 A 
ATOM      6  C   UNL     1      -0.616  -0.157  -3.397  0.00  0.00    +0.000 A 
ATOM      7  C   UNL     1       0.466   0.728  -3.319  0.00  0.00    +0.000 A 
BRANCH   5   8
ATOM      8  C   UNL     1      -1.576  -2.493  -3.519  0.00  0.00    +0.000 C 
BRANCH   8   9
ATOM      9  O   UNL     1      -1.581  -3.360  -2.388  0.00  0.00    +0.000 OA
BRANCH   9  10
ATOM     10  C   UNL     1      -2.695  -4.254  -2.417  0.00  0.00    +0.000 C 
BRANCH  10  11
ATOM     11  C   UNL     1      -2.687  -5.149  -1.203  0.00  0.00    +0.000 A 
ATOM     12  C   UNL     1      -3.888  -5.646  -0.683  0.00  0.00    +0.000 A 
ATOM     13  C   UNL     1      -3.840  -6.497   0.411  0.00  0.00    +0.000 A 
ATOM     14  N   UNL     1      -2.697  -6.893   1.008  0.00  0.00    +0.000 NA
ATOM     15  C   UNL     1      -1.549  -6.412   0.488  0.00  0.00    +0.000 A 
ATOM     16  C   UNL     1      -1.493  -5.558  -0.603  0.00  0.00    +0.000 A 
ENDBRANCH  10  11
ENDBRANCH   9  10
ENDBRANCH   8   9
ENDBRANCH   5   8
ENDBRANCH   1   2
BRANCH   1  19
ATOM     17  C   UNL     1       4.497   2.347  -4.714  0.00  0.00    +0.000 C 
ATOM     18  O   UNL     1       5.124   2.839  -3.778  0.00  0.00    +0.000 OA
ATOM     19  N   UNL     1       3.414   1.542  -4.502  0.00  0.00    +0.000 N 
ATOM     20  H   UNL     1       2.868   1.211  -5.283  0.00  0.00    +0.000 HD
BRANCH  17  28
ATOM     21  C   UNL     1       3.307   1.210  -7.739  0.00  0.00    +0.000 A 
ATOM     22  N   UNL     1       3.069   0.906  -9.030  0.00  0.00    +0.000 NA
ATOM     23  C   UNL     1       3.862   1.446  -9.958  0.00  0.00    +0.000 A 
ATOM     24  N   UNL     1       4.882   2.275  -9.756  0.00  0.00    +0.000 NA
ATOM     25  C   UNL     1       5.082   2.557  -8.457  0.00  0.00    +0.000 A 
ATOM     26  S   UNL     1       6.340   3.607  -8.012  0.00  0.00    +0.000 S 
ATOM     27  C   UNL     1       5.963   3.441  -6.364  0.00  0.00    +0.000 A 
ATOM     28  C   UNL     1       4.888   2.595  -6.114  0.00  0.00    +0.000 A 
ATOM     29  C   UNL     1       4.353   2.077  -7.374  0.00  0.00    +0.000 A 
BRANCH  21  31
ATOM     30  C   UNL     1       1.822  -0.515  -7.195  0.00  0.00    +0.000 C 
ATOM     31  O   UNL     1       2.454   0.695  -6.786  0.00  0.00    +0.000 OA
ENDBRANCH  21  31
ENDBRANCH  17  28
ENDBRANCH   1  19
TORSDOF 8
