REMARK  Name = 
REMARK  7 active torsions:
REMARK  status: ('A' for Active; 'I' for Inactive)
REMARK    1  A    between atoms: N_1  and  C_2
REMARK    2  A    between atoms: C_2  and  C_3
REMARK    3  A    between atoms: C_7  and  O_8
REMARK    4  A    between atoms: O_8  and  C_9
REMARK    5  A    between atoms: C_9  and  C_10
REMARK    6  A    between atoms: C_10  and  C_11
REMARK    7  A    between atoms: C_15  and  C_16
REMARK                            x       y       z     vdW  Elec       q    Type
REMARK                         _______ _______ _______ _____ _____    ______ ____
ROOT
ATOM      1  C   UNL     1       5.678   0.982  -5.174  0.00  0.00    +0.000 C 
ENDROOT
BRANCH   1   2
ATOM      2  O   UNL     1       5.049   0.143  -4.197  0.00  0.00    +0.000 OA
BRANCH   2   7
ATOM      3  C   UNL     1       2.555   0.508  -1.538  0.00  0.00    +0.000 A 
ATOM      4  C   UNL     1       2.205   1.860  -1.664  0.00  0.00    +0.000 A 
ATOM      5  C   UNL     1       2.787   2.653  -2.648  0.00  0.00    +0.000 A 
ATOM      6  C   UNL     1       3.734   2.109  -3.514  0.00  0.00    +0.000 A 
ATOM      7  C   UNL     1       4.116   0.768  -3.401  0.00  0.00    +0.000 A 
ATOM      8  C   UNL     1       3.519  -0.027  -2.414  0.00  0.00    +0.000 A 
BRANCH   3   9
ATOM      9  C   UNL     1       1.915  -0.329  -0.461  0.00  0.00    +0.000 C 
BRANCH   9  10
ATOM     10  N   UNL     1       0.460  -0.350  -0.592  0.00  0.00    +0.000 NA
ATOM     11  H   UNL     1       0.068  -0.979   0.105  0.00  0.00    +0.000 HD
ATOM     12  H   UNL     1       0.220  -0.737  -1.503  0.00  0.00    +0.000 HD
ENDBRANCH   9  10
ENDBRANCH   3   9
ENDBRANCH   2   7
ENDBRANCH   1   2
BRANCH   1  13
ATOM     13  C   UNL     1       6.721   0.198  -5.971  0.00  0.00    +0.000 C 
BRANCH  13  14
ATOM     14  C   UNL     1       7.367   1.071  -7.026  0.00  0.00    +0.000 A 
ATOM     15  C   UNL     1       8.481   1.862  -6.704  0.00  0.00    +0.000 A 
ATOM     16  C   UNL     1       9.045   2.715  -7.653  0.00  0.00    +0.000 A 
ATOM     17  C   UNL     1       8.509   2.786  -8.938  0.00  0.00    +0.000 A 
ATOM     18  C   UNL     1       7.407   1.994  -9.281  0.00  0.00    +0.000 A 
ATOM     19  C   UNL     1       6.827   1.152  -8.320  0.00  0.00    +0.000 A 
BRANCH  18  20
ATOM     20  C   UNL     1       6.882   2.096 -10.670  0.00  0.00    +0.000 C 
ATOM     21  N   UNL     1       6.222   1.009 -11.172  0.00  0.00    +0.000 N 
ATOM     22  O   UNL     1       7.069   3.090 -11.360  0.00  0.00    +0.000 OA
ATOM     23  H   UNL     1       6.274   0.098 -10.740  0.00  0.00    +0.000 HD
ATOM     24  H   UNL     1       5.997   1.047 -12.158  0.00  0.00    +0.000 HD
ENDBRANCH  18  20
ENDBRANCH  13  14
ENDBRANCH   1  13
TORSDOF 7
