REMARK  Name = 
REMARK  8 active torsions:
REMARK  status: ('A' for Active; 'I' for Inactive)
REMARK    1  A    between atoms: C_1  and  C_2
REMARK    2  A    between atoms: C_2  and  N_3
REMARK    3  A    between atoms: C_2  and  C_16
REMARK    4  A    between atoms: C_4  and  C_6
REMARK    5  A    between atoms: C_19  and  C_20
REMARK    6  A    between atoms: C_20  and  N_21
REMARK    7  A    between atoms: N_21  and  C_22
REMARK    8  A    between atoms: C_23  and  C_25
REMARK                            x       y       z     vdW  Elec       q    Type
REMARK                         _______ _______ _______ _____ _____    ______ ____
ROOT
ATOM      1  C   UNL     1       3.635   0.374  -1.179  0.00  0.00    +0.000 C 
ATOM      2  C   UNL     1       2.461   0.064  -0.240  0.00  0.00    +0.000 C 
ENDROOT
BRANCH   2   3
ATOM      3  C   UNL     1       2.732  -1.219   0.539  0.00  0.00    +0.000 A 
ATOM      4  C   UNL     1       2.915  -1.182   1.927  0.00  0.00    +0.000 A 
ATOM      5  C   UNL     1       3.182  -2.355   2.645  0.00  0.00    +0.000 A 
ATOM      6  C   UNL     1       3.292  -3.594   1.997  0.00  0.00    +0.000 A 
ATOM      7  C   UNL     1       3.076  -3.639   0.614  0.00  0.00    +0.000 A 
ATOM      8  C   UNL     1       2.802  -2.466  -0.105  0.00  0.00    +0.000 A 
BRANCH   6   9
ATOM      9  C   UNL     1       3.722  -4.820   2.776  0.00  0.00    +0.000 C 
BRANCH   9  10
ATOM     10  N   UNL     1       2.630  -5.651   3.291  0.00  0.00    +0.000 N 
ATOM     11  C   UNL     1       2.259  -6.805   2.488  0.00  0.00    +0.000 C 
ATOM     12  C   UNL     1       2.164  -5.404   4.581  0.00  0.00    +0.000 C 
ATOM     13  O   UNL     1       2.536  -4.414   5.217  0.00  0.00    +0.000 OA
BRANCH  12  14
ATOM     14  C   UNL     1       1.249  -6.442   5.253  0.00  0.00    +0.000 C 
ATOM     15  C   UNL     1       0.239  -5.757   6.186  0.00  0.00    +0.000 C 
ATOM     16  C   UNL     1      -0.554  -6.787   6.979  0.00  0.00    +0.000 C 
ATOM     17  O   UNL     1       0.322  -7.630   7.724  0.00  0.00    +0.000 OA
ATOM     18  C   UNL     1       1.204  -8.371   6.884  0.00  0.00    +0.000 C 
ATOM     19  C   UNL     1       2.091  -7.442   6.059  0.00  0.00    +0.000 C 
ENDBRANCH  12  14
ENDBRANCH   9  10
ENDBRANCH   6   9
ENDBRANCH   2   3
BRANCH   2  20
ATOM     20  N   UNL     1       1.191  -0.059  -0.942  0.00  0.00    +0.000 N 
ATOM     21  C   UNL     1       0.637   0.957  -1.678  0.00  0.00    +0.000 C 
ATOM     22  O   UNL     1       1.199   2.034  -1.858  0.00  0.00    +0.000 OA
ATOM     23  H   UNL     1       0.559  -0.764  -0.573  0.00  0.00    +0.000 HD
BRANCH  21  24
ATOM     24  C   UNL     1      -0.655   0.670  -2.313  0.00  0.00    +0.000 A 
ATOM     25  C   UNL     1      -0.997   1.316  -3.493  0.00  0.00    +0.000 A 
ATOM     26  S   UNL     1      -2.524   0.866  -4.103  0.00  0.00    +0.000 S 
ATOM     27  C   UNL     1      -2.803  -0.174  -2.786  0.00  0.00    +0.000 A 
ATOM     28  N   UNL     1      -3.975  -0.853  -2.665  0.00  0.00    +0.000 NA
ATOM     29  C   UNL     1      -4.065  -1.575  -1.601  0.00  0.00    +0.000 A 
ATOM     30  N   UNL     1      -3.081  -1.694  -0.650  0.00  0.00    +0.000 N 
ATOM     31  C   UNL     1      -1.864  -1.065  -0.754  0.00  0.00    +0.000 A 
ATOM     32  O   UNL     1      -0.973  -1.253   0.067  0.00  0.00    +0.000 OA
ATOM     33  C   UNL     1      -1.730  -0.208  -1.913  0.00  0.00    +0.000 A 
ATOM     34  H   UNL     1      -3.207  -2.294   0.152  0.00  0.00    +0.000 HD
ENDBRANCH  21  24
ENDBRANCH   2  20
TORSDOF 6
