REMARK  Name = 
REMARK  11 active torsions:
REMARK  status: ('A' for Active; 'I' for Inactive)
REMARK    1  A    between atoms: C_1  and  C_2
REMARK    2  A    between atoms: C_2  and  C_3
REMARK    3  A    between atoms: C_4  and  O_5
REMARK    4  A    between atoms: O_5  and  C_6
REMARK    5  A    between atoms: C_10  and  C_11
REMARK    6  A    between atoms: C_11  and  C_12
REMARK    7  A    between atoms: C_12  and  N_13
REMARK    8  A    between atoms: C_17  and  S_18
REMARK    9  A    between atoms: S_18  and  N_19
REMARK   10  A    between atoms: C_26  and  C_27
REMARK   11  A    between atoms: C_27  and  O_28
REMARK                            x       y       z     vdW  Elec       q    Type
REMARK                         _______ _______ _______ _____ _____    ______ ____
ROOT
ATOM      1  C   UNL     1       1.306  -2.543   1.511  0.00  0.00    +0.000 A 
ATOM      2  C   UNL     1       0.905  -2.764   0.197  0.00  0.00    +0.000 A 
ATOM      3  C   UNL     1      -0.138  -3.650  -0.076  0.00  0.00    +0.000 A 
ATOM      4  C   UNL     1      -0.759  -4.350   0.960  0.00  0.00    +0.000 A 
ATOM      5  C   UNL     1      -0.327  -4.193   2.284  0.00  0.00    +0.000 A 
ATOM      6  C   UNL     1       0.703  -3.265   2.541  0.00  0.00    +0.000 A 
ENDROOT
BRANCH   1   7
ATOM      7  O   UNL     1       2.291  -1.656   1.886  0.00  0.00    +0.000 OA
BRANCH   7  11
ATOM      8  C   UNL     1       4.070   0.580   2.895  0.00  0.00    +0.000 C 
ATOM      9  C   UNL     1       3.539   0.557   1.468  0.00  0.00    +0.000 C 
ATOM     10  C   UNL     1       3.118   1.966   1.028  0.00  0.00    +0.000 C 
ATOM     11  C   UNL     1       2.481  -0.503   1.038  0.00  0.00    +0.000 C 
ATOM     12  O   UNL     1       3.258  -0.794  -0.165  0.00  0.00    +0.000 OA
ATOM     13  C   UNL     1       4.433  -0.165   0.423  0.00  0.00    +0.000 C 
BRANCH  13  14
ATOM     14  C   UNL     1       5.441  -1.221   0.877  0.00  0.00    +0.000 C 
BRANCH  14  15
ATOM     15  O   UNL     1       5.823  -2.023  -0.237  0.00  0.00    +0.000 OA
ATOM     16  H   UNL     1       4.991  -2.394  -0.589  0.00  0.00    +0.000 HD
ENDBRANCH  14  15
ENDBRANCH  13  14
ENDBRANCH   7  11
ENDBRANCH   1   7
BRANCH   5  17
ATOM     17  C   UNL     1      -0.970  -5.047   3.368  0.00  0.00    +0.000 C 
BRANCH  17  18
ATOM     18  C   UNL     1      -0.354  -4.825   4.748  0.00  0.00    +0.000 C 
BRANCH  18  19
ATOM     19  N   UNL     1      -0.909  -5.684   5.800  0.00  0.00    +0.000 N 
ATOM     20  C   UNL     1      -0.265  -5.399   7.027  0.00  0.00    +0.000 A 
ATOM     21  C   UNL     1      -0.612  -6.118   8.168  0.00  0.00    +0.000 A 
ATOM     22  C   UNL     1       0.013  -5.821   9.383  0.00  0.00    +0.000 A 
ATOM     23  C   UNL     1       0.965  -4.805   9.420  0.00  0.00    +0.000 A 
ATOM     24  C   UNL     1       1.269  -4.141   8.254  0.00  0.00    +0.000 A 
ATOM     25  N   UNL     1       0.664  -4.413   7.080  0.00  0.00    +0.000 NA
ATOM     26  H   UNL     1      -0.782  -6.671   5.596  0.00  0.00    +0.000 HD
BRANCH  23  27
ATOM     27  S   UNL     1       1.836  -4.387  10.877  0.00  0.00    +0.000 S 
ATOM     28  O   UNL     1       1.784  -5.501  11.793  0.00  0.00    +0.000 OA
ATOM     29  O   UNL     1       3.075  -3.734  10.524  0.00  0.00    +0.000 OA
BRANCH  27  30
ATOM     30  N   UNL     1       0.862  -3.194  11.543  0.00  0.00    +0.000 NA
ATOM     31  H   UNL     1       0.517  -3.497  12.455  0.00  0.00    +0.000 HD
ATOM     32  H   UNL     1       1.362  -2.304  11.570  0.00  0.00    +0.000 HD
ENDBRANCH  27  30
ENDBRANCH  23  27
ENDBRANCH  18  19
ENDBRANCH  17  18
ENDBRANCH   5  17
TORSDOF 9
