REMARK  Name = 
REMARK  8 active torsions:
REMARK  status: ('A' for Active; 'I' for Inactive)
REMARK    1  A    between atoms: C_2  and  C_21
REMARK    2  A    between atoms: N_3  and  C_4
REMARK    3  A    between atoms: C_4  and  C_5
REMARK    4  A    between atoms: C_8  and  C_9
REMARK    5  A    between atoms: C_9  and  O_10
REMARK    6  A    between atoms: C_9  and  C_11
REMARK    7  A    between atoms: C_11  and  O_12
REMARK    8  A    between atoms: O_12  and  C_13
REMARK                            x       y       z     vdW  Elec       q    Type
REMARK                         _______ _______ _______ _____ _____    ______ ____
ROOT
ATOM      1  C   UNL     1       3.699  -7.192  -7.909  0.00  0.00    +0.000 A 
ATOM      2  C   UNL     1       4.387  -6.016  -8.213  0.00  0.00    +0.000 A 
ATOM      3  C   UNL     1       5.083  -5.322  -7.223  0.00  0.00    +0.000 A 
ATOM      4  C   UNL     1       5.131  -5.799  -5.903  0.00  0.00    +0.000 A 
ATOM      5  C   UNL     1       4.433  -6.980  -5.603  0.00  0.00    +0.000 A 
ATOM      6  C   UNL     1       3.729  -7.672  -6.594  0.00  0.00    +0.000 A 
ENDROOT
BRANCH   1   7
ATOM      7  C   UNL     1       3.004  -7.959  -9.003  0.00  0.00    +0.000 C 
BRANCH   7  10
ATOM      8  O   UNL     1       4.587  -7.639 -11.317  0.00  0.00    +0.000 OA
ATOM      9  C   UNL     1       4.675  -8.680 -10.672  0.00  0.00    +0.000 C 
ATOM     10  N   UNL     1       3.887  -8.938  -9.579  0.00  0.00    +0.000 N 
ATOM     11  H   UNL     1       4.145  -9.703  -8.966  0.00  0.00    +0.000 HD
BRANCH   9  12
ATOM     12  C   UNL     1       5.597  -9.751 -11.068  0.00  0.00    +0.000 A 
ATOM     13  C   UNL     1       6.041  -9.830 -12.381  0.00  0.00    +0.000 A 
ATOM     14  S   UNL     1       7.078 -11.153 -12.672  0.00  0.00    +0.000 S 
ATOM     15  C   UNL     1       7.012 -11.637 -11.042  0.00  0.00    +0.000 A 
ATOM     16  N   UNL     1       7.715 -12.716 -10.602  0.00  0.00    +0.000 NA
ATOM     17  C   UNL     1       7.609 -12.939  -9.335  0.00  0.00    +0.000 A 
ATOM     18  N   UNL     1       6.853 -12.194  -8.470  0.00  0.00    +0.000 N 
ATOM     19  C   UNL     1       6.069 -11.145  -8.882  0.00  0.00    +0.000 A 
ATOM     20  O   UNL     1       5.307 -10.580  -8.104  0.00  0.00    +0.000 OA
ATOM     21  C   UNL     1       6.188 -10.818 -10.291  0.00  0.00    +0.000 A 
ATOM     22  H   UNL     1       6.790 -12.441  -7.494  0.00  0.00    +0.000 HD
ENDBRANCH   9  12
ENDBRANCH   7  10
ENDBRANCH   1   7
BRANCH   4  23
ATOM     23  C   UNL     1       5.922  -5.114  -4.798  0.00  0.00    +0.000 C 
BRANCH  23  24
ATOM     24  O   UNL     1       5.016  -4.748  -3.749  0.00  0.00    +0.000 OA
ATOM     25  H   UNL     1       4.225  -4.370  -4.170  0.00  0.00    +0.000 HD
ENDBRANCH  23  24
BRANCH  23  26
ATOM     26  C   UNL     1       6.709  -3.871  -5.256  0.00  0.00    +0.000 C 
BRANCH  26  27
ATOM     27  O   UNL     1       7.554  -3.387  -4.208  0.00  0.00    +0.000 OA
BRANCH  27  28
ATOM     28  C   UNL     1       8.249  -2.239  -4.492  0.00  0.00    +0.000 A 
ATOM     29  C   UNL     1       8.292  -1.593  -5.731  0.00  0.00    +0.000 A 
ATOM     30  C   UNL     1       9.034  -0.420  -5.889  0.00  0.00    +0.000 A 
ATOM     31  C   UNL     1       9.737   0.112  -4.812  0.00  0.00    +0.000 A 
ATOM     32  C   UNL     1       9.705  -0.532  -3.577  0.00  0.00    +0.000 A 
ATOM     33  C   UNL     1       8.964  -1.704  -3.420  0.00  0.00    +0.000 A 
ENDBRANCH  27  28
ENDBRANCH  26  27
ENDBRANCH  23  26
ENDBRANCH   4  23
TORSDOF 8
