REMARK  Name = 
REMARK  16 active torsions:
REMARK  status: ('A' for Active; 'I' for Inactive)
REMARK    1  A    between atoms: C_1  and  N_2
REMARK    2  A    between atoms: N_2  and  C_3
REMARK    3  A    between atoms: N_2  and  C_4
REMARK    4  A    between atoms: C_4  and  C_5
REMARK    5  A    between atoms: C_5  and  O_6
REMARK    6  A    between atoms: O_6  and  C_7
REMARK    7  A    between atoms: C_7  and  C_9
REMARK    8  A    between atoms: C_9  and  O_10
REMARK    9  A    between atoms: O_10  and  C_11
REMARK   10  A    between atoms: C_14  and  C_15
REMARK   11  A    between atoms: C_15  and  C_16
REMARK   12  A    between atoms: C_15  and  C_17
REMARK   13  A    between atoms: C_15  and  C_18
REMARK   14  A    between atoms: C_18  and  N_19
REMARK   15  A    between atoms: N_19  and  C_20
REMARK   16  A    between atoms: C_23  and  C_24
REMARK                            x       y       z     vdW  Elec       q    Type
REMARK                         _______ _______ _______ _____ _____    ______ ____
ROOT
ATOM      1  C   UNL     1      11.209  -7.493  -5.421  0.00  0.00    +0.000 C 
ATOM      2  C   UNL     1      12.702  -7.108  -5.552  0.00  0.00    +0.000 C 
ATOM      3  C   UNL     1      11.109  -8.773  -4.550  0.00  0.00    +0.000 C 
ENDROOT
BRANCH   1   7
ATOM      4  C   UNL     1       8.946  -4.433  -3.282  0.00  0.00    +0.000 A 
ATOM      5  C   UNL     1       8.592  -4.759  -4.585  0.00  0.00    +0.000 A 
ATOM      6  C   UNL     1       9.308  -5.733  -5.284  0.00  0.00    +0.000 A 
ATOM      7  C   UNL     1      10.425  -6.371  -4.715  0.00  0.00    +0.000 A 
ATOM      8  C   UNL     1      10.800  -5.973  -3.419  0.00  0.00    +0.000 A 
ATOM      9  C   UNL     1      10.072  -5.016  -2.710  0.00  0.00    +0.000 A 
BRANCH   4  10
ATOM     10  O   UNL     1       8.123  -3.543  -2.653  0.00  0.00    +0.000 OA
BRANCH  10  11
ATOM     11  C   UNL     1       8.065  -3.705  -1.243  0.00  0.00    +0.000 C 
BRANCH  11  12
ATOM     12  C   UNL     1       6.853  -3.004  -0.658  0.00  0.00    +0.000 C 
ATOM     13  O   UNL     1       6.034  -2.328  -1.271  0.00  0.00    +0.000 OA
BRANCH  12  14
ATOM     14  O   UNL     1       6.895  -3.123   0.699  0.00  0.00    +0.000 OA
BRANCH  14  15
ATOM     15  C   UNL     1       6.732  -1.861   1.353  0.00  0.00    +0.000 C 
BRANCH  15  16
ATOM     16  C   UNL     1       5.361  -1.699   2.020  0.00  0.00    +0.000 C 
BRANCH  16  18
ATOM     17  C   UNL     1       5.322   0.736   1.835  0.00  0.00    +0.000 C 
ATOM     18  N   UNL     1       5.259  -0.415   2.747  0.00  0.00    +0.000 NA
ATOM     19  C   UNL     1       4.016  -0.357   3.514  0.00  0.00    +0.000 C 
ENDBRANCH  16  18
ENDBRANCH  15  16
ENDBRANCH  14  15
ENDBRANCH  12  14
ENDBRANCH  11  12
ENDBRANCH  10  11
ENDBRANCH   4  10
ENDBRANCH   1   7
BRANCH   1  20
ATOM     20  C   UNL     1      10.663  -7.879  -6.830  0.00  0.00    +0.000 C 
BRANCH  20  21
ATOM     21  N   UNL     1      10.837  -6.812  -7.817  0.00  0.00    +0.000 N 
ATOM     22  H   UNL     1      10.905  -5.870  -7.436  0.00  0.00    +0.000 HD
BRANCH  21  23
ATOM     23  C   UNL     1      10.247  -6.891  -9.073  0.00  0.00    +0.000 A 
ATOM     24  C   UNL     1       9.682  -8.065  -9.582  0.00  0.00    +0.000 A 
ATOM     25  C   UNL     1       9.243  -8.147 -10.907  0.00  0.00    +0.000 A 
ATOM     26  C   UNL     1       9.379  -7.052 -11.766  0.00  0.00    +0.000 A 
ATOM     27  C   UNL     1       9.925  -5.874 -11.261  0.00  0.00    +0.000 A 
ATOM     28  F   UNL     1      10.079  -4.790 -12.038  0.00  0.00    +0.000 F 
ATOM     29  C   UNL     1      10.357  -5.793  -9.936  0.00  0.00    +0.000 A 
BRANCH  26  30
ATOM     30  C   UNL     1       8.968  -7.218 -13.182  0.00  0.00    +0.000 C 
ATOM     31  N   UNL     1       9.105  -6.153 -14.024  0.00  0.00    +0.000 N 
ATOM     32  O   UNL     1       8.527  -8.285 -13.596  0.00  0.00    +0.000 OA
ATOM     33  H   UNL     1       9.495  -5.265 -13.732  0.00  0.00    +0.000 HD
ATOM     34  H   UNL     1       8.861  -6.280 -14.996  0.00  0.00    +0.000 HD
ENDBRANCH  26  30
ENDBRANCH  21  23
ENDBRANCH  20  21
ENDBRANCH   1  20
TORSDOF 12
