REMARK  Name = 
REMARK  7 active torsions:
REMARK  status: ('A' for Active; 'I' for Inactive)
REMARK    1  A    between atoms: C_1  and  C_2
REMARK    2  A    between atoms: C_2  and  N_3
REMARK    3  A    between atoms: C_2  and  C_17
REMARK    4  A    between atoms: C_4  and  C_6
REMARK    5  A    between atoms: N_12  and  C_13
REMARK    6  A    between atoms: C_20  and  O_21
REMARK    7  A    between atoms: O_21  and  C_22
REMARK                            x       y       z     vdW  Elec       q    Type
REMARK                         _______ _______ _______ _____ _____    ______ ____
ROOT
ATOM      1  C   UNL     1       0.933   0.148   0.041  0.00  0.00    +0.000 C 
ATOM      2  C   UNL     1       2.462   0.125   0.042  0.00  0.00    +0.000 C 
ENDROOT
BRANCH   2   3
ATOM      3  C   UNL     1       3.003  -0.486  -1.240  0.00  0.00    +0.000 A 
ATOM      4  C   UNL     1       3.830   0.281  -2.070  0.00  0.00    +0.000 A 
ATOM      5  C   UNL     1       4.381  -0.275  -3.225  0.00  0.00    +0.000 A 
ATOM      6  C   UNL     1       4.164  -1.617  -3.542  0.00  0.00    +0.000 A 
ATOM      7  C   UNL     1       3.310  -2.380  -2.747  0.00  0.00    +0.000 A 
ATOM      8  C   UNL     1       2.732  -1.818  -1.605  0.00  0.00    +0.000 A 
BRANCH   6   9
ATOM      9  O   UNL     1       4.702  -2.238  -4.646  0.00  0.00    +0.000 OA
BRANCH   9  10
ATOM     10  C   UNL     1       6.000  -1.904  -5.017  0.00  0.00    +0.000 A 
ATOM     11  C   UNL     1       6.340  -2.116  -6.344  0.00  0.00    +0.000 A 
ATOM     12  C   UNL     1       7.618  -1.753  -6.762  0.00  0.00    +0.000 A 
ATOM     13  C   UNL     1       8.505  -1.198  -5.845  0.00  0.00    +0.000 A 
ATOM     14  C   UNL     1       8.086  -1.052  -4.534  0.00  0.00    +0.000 A 
ATOM     15  N   UNL     1       6.863  -1.411  -4.097  0.00  0.00    +0.000 NA
ENDBRANCH   9  10
ENDBRANCH   6   9
ENDBRANCH   2   3
BRANCH   2  16
ATOM     16  N   UNL     1       2.982  -0.620   1.169  0.00  0.00    +0.000 N 
ATOM     17  C   UNL     1       3.189  -0.105   2.416  0.00  0.00    +0.000 C 
ATOM     18  O   UNL     1       3.072   1.088   2.676  0.00  0.00    +0.000 OA
ATOM     19  H   UNL     1       2.972  -1.626   1.061  0.00  0.00    +0.000 HD
BRANCH  17  20
ATOM     20  C   UNL     1       3.624  -1.081   3.424  0.00  0.00    +0.000 A 
ATOM     21  C   UNL     1       4.424  -0.690   4.486  0.00  0.00    +0.000 A 
ATOM     22  S   UNL     1       4.848  -1.978   5.524  0.00  0.00    +0.000 S 
ATOM     23  C   UNL     1       3.939  -3.089   4.613  0.00  0.00    +0.000 A 
ATOM     24  N   UNL     1       3.856  -4.395   4.975  0.00  0.00    +0.000 NA
ATOM     25  C   UNL     1       3.114  -5.123   4.209  0.00  0.00    +0.000 A 
ATOM     26  N   UNL     1       2.436  -4.676   3.094  0.00  0.00    +0.000 N 
ATOM     27  C   UNL     1       1.638  -5.577   2.293  0.00  0.00    +0.000 C 
ATOM     28  C   UNL     1       2.517  -3.352   2.680  0.00  0.00    +0.000 A 
ATOM     29  O   UNL     1       1.963  -2.945   1.662  0.00  0.00    +0.000 OA
ATOM     30  C   UNL     1       3.336  -2.495   3.524  0.00  0.00    +0.000 A 
ENDBRANCH  17  20
ENDBRANCH   2  16
TORSDOF 5
