REMARK  Name = 
REMARK  4 active torsions:
REMARK  status: ('A' for Active; 'I' for Inactive)
REMARK    1  A    between atoms: C_2  and  C_4
REMARK    2  A    between atoms: N_8  and  C_9
REMARK    3  A    between atoms: C_9  and  C_10
REMARK    4  A    between atoms: C_14  and  C_15
REMARK                            x       y       z     vdW  Elec       q    Type
REMARK                         _______ _______ _______ _____ _____    ______ ____
ROOT
ATOM      1  C   UNL     1       7.051   0.734  -6.480  0.00  0.00    +0.000 A 
ATOM      2  C   UNL     1       6.892   2.084  -6.824  0.00  0.00    +0.000 A 
ATOM      3  C   UNL     1       7.466   2.589  -7.984  0.00  0.00    +0.000 A 
ATOM      4  C   UNL     1       8.238   1.756  -8.793  0.00  0.00    +0.000 A 
ATOM      5  C   UNL     1       8.473   0.409  -8.457  0.00  0.00    +0.000 A 
ATOM      6  C   UNL     1       7.838  -0.092  -7.303  0.00  0.00    +0.000 A 
ENDROOT
BRANCH   5   7
ATOM      7  C   UNL     1       9.404  -0.426  -9.250  0.00  0.00    +0.000 A 
ATOM      8  C   UNL     1      10.515   0.118  -9.867  0.00  0.00    +0.000 A 
ATOM      9  C   UNL     1      11.319  -0.751 -10.562  0.00  0.00    +0.000 A 
ATOM     10  N   UNL     1      11.073  -2.065 -10.652  0.00  0.00    +0.000 NA
ATOM     11  C   UNL     1       9.998  -2.513 -10.000  0.00  0.00    +0.000 A 
ATOM     12  N   UNL     1       9.740  -3.866 -10.087  0.00  0.00    +0.000 N 
ATOM     13  N   UNL     1       9.141  -1.751  -9.311  0.00  0.00    +0.000 NA
ATOM     14  H   UNL     1      10.183  -4.233 -10.918  0.00  0.00    +0.000 HD
ATOM     15  H   UNL     1       8.751  -4.033  -9.976  0.00  0.00    +0.000 HD
ENDBRANCH   5   7
BRANCH   1  16
ATOM     16  C   UNL     1       6.471   0.221  -5.180  0.00  0.00    +0.000 C 
BRANCH  16  21
ATOM     17  C   UNL     1       3.398   0.999  -1.391  0.00  0.00    +0.000 A 
ATOM     18  C   UNL     1       4.694   1.361  -1.660  0.00  0.00    +0.000 A 
ATOM     19  N   UNL     1       5.273   1.205  -2.867  0.00  0.00    +0.000 NA
ATOM     20  C   UNL     1       4.534   0.653  -3.842  0.00  0.00    +0.000 A 
ATOM     21  N   UNL     1       5.056   0.534  -5.114  0.00  0.00    +0.000 N 
ATOM     22  N   UNL     1       3.271   0.239  -3.670  0.00  0.00    +0.000 NA
ATOM     23  C   UNL     1       2.728   0.414  -2.440  0.00  0.00    +0.000 A 
ATOM     24  H   UNL     1       4.456  -0.084  -5.647  0.00  0.00    +0.000 HD
BRANCH  17  26
ATOM     25  N   UNL     1       3.230   2.182   0.720  0.00  0.00    +0.000 N 
ATOM     26  C   UNL     1       2.762   1.177  -0.081  0.00  0.00    +0.000 C 
ATOM     27  O   UNL     1       1.828   0.468   0.268  0.00  0.00    +0.000 OA
ATOM     28  H   UNL     1       2.720   2.343   1.581  0.00  0.00    +0.000 HD
ATOM     29  H   UNL     1       3.808   2.940   0.384  0.00  0.00    +0.000 HD
ENDBRANCH  17  26
ENDBRANCH  16  21
ENDBRANCH   1  16
TORSDOF 4
