REMARK  Name = 
REMARK  8 active torsions:
REMARK  status: ('A' for Active; 'I' for Inactive)
REMARK    1  A    between atoms: N_1  and  C_2
REMARK    2  A    between atoms: C_2  and  C_3
REMARK    3  A    between atoms: C_2  and  C_18
REMARK    4  A    between atoms: C_3  and  C_4
REMARK    5  A    between atoms: C_7  and  C_8
REMARK    6  A    between atoms: C_8  and  O_9
REMARK    7  A    between atoms: O_9  and  C_10
REMARK    8  A    between atoms: C_18  and  C_20
REMARK                            x       y       z     vdW  Elec       q    Type
REMARK                         _______ _______ _______ _____ _____    ______ ____
ROOT
ATOM      1  C   UNL     1       1.155  -1.045  -0.872  0.00  0.00    +0.000 C 
ENDROOT
BRANCH   1   2
ATOM      2  N   UNL     1       1.549  -0.510  -2.199  0.00  0.00    +0.000 NA
ATOM      3  H   UNL     1       1.434  -1.259  -2.886  0.00  0.00    +0.000 HD
ATOM      4  H   UNL     1       2.556  -0.321  -2.171  0.00  0.00    +0.000 HD
ENDBRANCH   1   2
BRANCH   1   5
ATOM      5  C   UNL     1       2.209  -2.082  -0.418  0.00  0.00    +0.000 C 
ATOM      6  O   UNL     1       3.404  -1.762  -0.383  0.00  0.00    +0.000 OA
BRANCH   5   7
ATOM      7  C   UNL     1       1.796  -3.424   0.024  0.00  0.00    +0.000 A 
ATOM      8  C   UNL     1       2.525  -4.106   0.987  0.00  0.00    +0.000 A 
ATOM      9  S   UNL     1       1.799  -5.577   1.466  0.00  0.00    +0.000 S 
ATOM     10  C   UNL     1       0.522  -5.369   0.361  0.00  0.00    +0.000 A 
ATOM     11  N   UNL     1      -0.501  -6.263   0.284  0.00  0.00    +0.000 NA
ATOM     12  C   UNL     1      -1.400  -5.966  -0.596  0.00  0.00    +0.000 A 
ATOM     13  N   UNL     1      -1.350  -4.880  -1.432  0.00  0.00    +0.000 N 
ATOM     14  C   UNL     1      -0.260  -4.047  -1.490  0.00  0.00    +0.000 A 
ATOM     15  O   UNL     1      -0.094  -3.265  -2.420  0.00  0.00    +0.000 OA
ATOM     16  C   UNL     1       0.688  -4.232  -0.408  0.00  0.00    +0.000 A 
ATOM     17  H   UNL     1      -2.040  -4.760  -2.159  0.00  0.00    +0.000 HD
ENDBRANCH   5   7
ENDBRANCH   1   5
BRANCH   1  18
ATOM     18  C   UNL     1       1.035   0.113   0.131  0.00  0.00    +0.000 C 
BRANCH  18  19
ATOM     19  C   UNL     1       0.504  -0.340   1.476  0.00  0.00    +0.000 A 
ATOM     20  C   UNL     1       1.396  -0.628   2.517  0.00  0.00    +0.000 A 
ATOM     21  C   UNL     1       0.925  -1.094   3.743  0.00  0.00    +0.000 A 
ATOM     22  C   UNL     1      -0.445  -1.290   3.950  0.00  0.00    +0.000 A 
ATOM     23  C   UNL     1      -1.341  -0.971   2.924  0.00  0.00    +0.000 A 
ATOM     24  C   UNL     1      -0.870  -0.507   1.690  0.00  0.00    +0.000 A 
BRANCH  22  25
ATOM     25  C   UNL     1      -0.940  -1.846   5.265  0.00  0.00    +0.000 C 
BRANCH  25  26
ATOM     26  O   UNL     1      -1.168  -0.780   6.186  0.00  0.00    +0.000 OA
BRANCH  26  27
ATOM     27  C   UNL     1      -1.559  -1.148   7.447  0.00  0.00    +0.000 A 
ATOM     28  C   UNL     1      -1.798  -2.450   7.879  0.00  0.00    +0.000 A 
ATOM     29  C   UNL     1      -2.183  -2.644   9.196  0.00  0.00    +0.000 A 
ATOM     30  N   UNL     1      -2.343  -1.648  10.090  0.00  0.00    +0.000 NA
ATOM     31  C   UNL     1      -2.108  -0.395   9.644  0.00  0.00    +0.000 A 
ATOM     32  C   UNL     1      -1.720  -0.100   8.348  0.00  0.00    +0.000 A 
ENDBRANCH  26  27
ENDBRANCH  25  26
ENDBRANCH  22  25
ENDBRANCH  18  19
ENDBRANCH   1  18
TORSDOF 8
