REMARK  Name = 
REMARK  8 active torsions:
REMARK  status: ('A' for Active; 'I' for Inactive)
REMARK    1  A    between atoms: C_1  and  O_2
REMARK    2  A    between atoms: O_2  and  C_3
REMARK    3  A    between atoms: C_10  and  C_11
REMARK    4  A    between atoms: N_13  and  C_14
REMARK    5  A    between atoms: C_14  and  C_15
REMARK    6  A    between atoms: C_18  and  N_19
REMARK    7  A    between atoms: N_19  and  C_20
REMARK    8  A    between atoms: C_20  and  C_21
REMARK                            x       y       z     vdW  Elec       q    Type
REMARK                         _______ _______ _______ _____ _____    ______ ____
ROOT
ATOM      1  C   UNL     1       2.776  -2.650  -2.125  0.00  0.00    +0.000 C 
ENDROOT
BRANCH   1   2
ATOM      2  C   UNL     1       1.650  -3.186  -1.283  0.00  0.00    +0.000 A 
ATOM      3  C   UNL     1       1.624  -4.528  -0.887  0.00  0.00    +0.000 A 
ATOM      4  C   UNL     1       0.670  -4.981   0.033  0.00  0.00    +0.000 A 
ATOM      5  C   UNL     1      -0.264  -4.101   0.590  0.00  0.00    +0.000 A 
ATOM      6  C   UNL     1      -0.324  -2.801   0.079  0.00  0.00    +0.000 A 
ATOM      7  C   UNL     1       0.629  -2.340  -0.836  0.00  0.00    +0.000 A 
BRANCH   5   8
ATOM      8  N   UNL     1      -1.182  -4.459   1.588  0.00  0.00    +0.000 N 
ATOM      9  H   UNL     1      -2.088  -4.680   1.181  0.00  0.00    +0.000 HD
BRANCH   8  10
ATOM     10  C   UNL     1      -0.757  -5.477   2.547  0.00  0.00    +0.000 C 
BRANCH  10  11
ATOM     11  C   UNL     1      -1.444  -5.310   3.889  0.00  0.00    +0.000 A 
ATOM     12  C   UNL     1      -1.620  -6.433   4.715  0.00  0.00    +0.000 A 
ATOM     13  C   UNL     1      -2.154  -6.300   6.000  0.00  0.00    +0.000 A 
ATOM     14  C   UNL     1      -2.510  -5.041   6.476  0.00  0.00    +0.000 A 
ATOM     15 CL   UNL     1      -3.151  -4.877   8.064  0.00  0.00    +0.000 Cl
ATOM     16  C   UNL     1      -2.335  -3.913   5.679  0.00  0.00    +0.000 A 
ATOM     17  C   UNL     1      -1.796  -4.047   4.394  0.00  0.00    +0.000 A 
ENDBRANCH  10  11
ENDBRANCH   8  10
ENDBRANCH   5   8
ENDBRANCH   1   2
BRANCH   1  20
ATOM     18  C   UNL     1       3.444  -2.291  -4.441  0.00  0.00    +0.000 C 
ATOM     19  O   UNL     1       4.506  -1.802  -4.066  0.00  0.00    +0.000 OA
ATOM     20  N   UNL     1       2.516  -2.738  -3.537  0.00  0.00    +0.000 N 
ATOM     21  H   UNL     1       1.641  -3.141  -3.844  0.00  0.00    +0.000 HD
BRANCH  18  29
ATOM     22  C   UNL     1       0.751  -3.538  -6.195  0.00  0.00    +0.000 A 
ATOM     23  N   UNL     1      -0.123  -3.995  -7.115  0.00  0.00    +0.000 NA
ATOM     24  C   UNL     1       0.198  -3.865  -8.406  0.00  0.00    +0.000 A 
ATOM     25  N   UNL     1       1.303  -3.319  -8.904  0.00  0.00    +0.000 NA
ATOM     26  C   UNL     1       2.153  -2.893  -7.955  0.00  0.00    +0.000 A 
ATOM     27  S   UNL     1       3.615  -2.163  -8.412  0.00  0.00    +0.000 S 
ATOM     28  C   UNL     1       4.068  -1.948  -6.790  0.00  0.00    +0.000 A 
ATOM     29  C   UNL     1       3.133  -2.418  -5.874  0.00  0.00    +0.000 A 
ATOM     30  C   UNL     1       1.978  -2.969  -6.575  0.00  0.00    +0.000 A 
BRANCH  22  32
ATOM     31  C   UNL     1      -0.998  -3.715  -4.657  0.00  0.00    +0.000 C 
ATOM     32  O   UNL     1       0.413  -3.662  -4.862  0.00  0.00    +0.000 OA
ENDBRANCH  22  32
ENDBRANCH  18  29
ENDBRANCH   1  20
TORSDOF 7
