REMARK  Name = 
REMARK  5 active torsions:
REMARK  status: ('A' for Active; 'I' for Inactive)
REMARK    1  A    between atoms: C_2  and  C_4
REMARK    2  A    between atoms: C_7  and  O_8
REMARK    3  A    between atoms: O_8  and  C_9
REMARK    4  A    between atoms: C_9  and  C_10
REMARK    5  A    between atoms: C_15  and  C_16
REMARK                            x       y       z     vdW  Elec       q    Type
REMARK                         _______ _______ _______ _____ _____    ______ ____
ROOT
ATOM      1  C   UNL     1       5.383  -3.928   4.153  0.00  0.00    +0.000 C 
ENDROOT
BRANCH   1   2
ATOM      2  C   UNL     1       6.461  -4.412   5.103  0.00  0.00    +0.000 A 
ATOM      3  C   UNL     1       7.312  -3.521   5.760  0.00  0.00    +0.000 A 
ATOM      4  C   UNL     1       8.260  -4.001   6.660  0.00  0.00    +0.000 A 
ATOM      5  C   UNL     1       8.353  -5.370   6.912  0.00  0.00    +0.000 A 
ATOM      6  F   UNL     1       9.305  -5.769   7.770  0.00  0.00    +0.000 F 
ATOM      7  C   UNL     1       7.503  -6.307   6.300  0.00  0.00    +0.000 A 
ATOM      8  C   UNL     1       6.551  -5.789   5.397  0.00  0.00    +0.000 A 
BRANCH   7   9
ATOM      9  C   UNL     1       7.591  -7.760   6.581  0.00  0.00    +0.000 A 
ATOM     10  C   UNL     1       7.282  -8.732   5.616  0.00  0.00    +0.000 A 
ATOM     11  C   UNL     1       7.382 -10.093   5.909  0.00  0.00    +0.000 A 
ATOM     12  C   UNL     1       7.800 -10.464   7.173  0.00  0.00    +0.000 A 
ATOM     13  N   UNL     1       8.101  -9.579   8.142  0.00  0.00    +0.000 NA
ATOM     14  C   UNL     1       7.987  -8.264   7.824  0.00  0.00    +0.000 A 
ENDBRANCH   7   9
ENDBRANCH   1   2
BRANCH   1  15
ATOM     15  O   UNL     1       5.773  -2.721   3.486  0.00  0.00    +0.000 OA
BRANCH  15  19
ATOM     16  C   UNL     1       2.825  -1.284   0.992  0.00  0.00    +0.000 A 
ATOM     17  C   UNL     1       4.025  -0.581   1.117  0.00  0.00    +0.000 A 
ATOM     18  C   UNL     1       5.023  -1.078   1.961  0.00  0.00    +0.000 A 
ATOM     19  C   UNL     1       4.779  -2.260   2.646  0.00  0.00    +0.000 A 
ATOM     20  N   UNL     1       3.630  -2.961   2.540  0.00  0.00    +0.000 NA
ATOM     21  C   UNL     1       2.677  -2.453   1.725  0.00  0.00    +0.000 A 
BRANCH  16  23
ATOM     22  N   UNL     1       1.967  -0.065  -0.928  0.00  0.00    +0.000 N 
ATOM     23  C   UNL     1       1.688  -0.837   0.161  0.00  0.00    +0.000 C 
ATOM     24  O   UNL     1       0.541  -1.176   0.421  0.00  0.00    +0.000 OA
ATOM     25  H   UNL     1       1.183   0.138  -1.539  0.00  0.00    +0.000 HD
ATOM     26  H   UNL     1       2.895   0.020  -1.318  0.00  0.00    +0.000 HD
ENDBRANCH  16  23
ENDBRANCH  15  19
ENDBRANCH   1  15
TORSDOF 5
