REMARK  Name = 
REMARK  6 active torsions:
REMARK  status: ('A' for Active; 'I' for Inactive)
REMARK    1  A    between atoms: C_2  and  C_3
REMARK    2  A    between atoms: C_6  and  N_7
REMARK    3  A    between atoms: N_7  and  C_8
REMARK    4  A    between atoms: C_8  and  C_9
REMARK    5  A    between atoms: C_13  and  N_14
REMARK    6  A    between atoms: C_17  and  C_18
REMARK                            x       y       z     vdW  Elec       q    Type
REMARK                         _______ _______ _______ _____ _____    ______ ____
ROOT
ATOM      1  C   UNL     1       9.821  -0.061   0.611  0.00  0.00    +0.000 A 
ATOM      2  C   UNL     1      10.272   1.116  -0.004  0.00  0.00    +0.000 A 
ATOM      3  C   UNL     1      11.013   2.054   0.704  0.00  0.00    +0.000 A 
ATOM      4  C   UNL     1      11.328   1.819   2.042  0.00  0.00    +0.000 A 
ATOM      5  C   UNL     1      10.955   0.633   2.690  0.00  0.00    +0.000 A 
ATOM      6  C   UNL     1      10.215  -0.294   1.944  0.00  0.00    +0.000 A 
ENDROOT
BRANCH   5   7
ATOM      7  N   UNL     1      11.314   0.402   4.005  0.00  0.00    +0.000 N 
ATOM      8  C   UNL     1      11.191   1.462   5.003  0.00  0.00    +0.000 C 
ATOM      9  C   UNL     1      12.504   1.519   5.781  0.00  0.00    +0.000 C 
ATOM     10  C   UNL     1      12.822   0.158   6.421  0.00  0.00    +0.000 C 
ATOM     11  C   UNL     1      12.780  -0.964   5.370  0.00  0.00    +0.000 C 
ATOM     12  C   UNL     1      11.493  -0.947   4.537  0.00  0.00    +0.000 C 
BRANCH  10  13
ATOM     13  C   UNL     1      11.887  -0.139   7.586  0.00  0.00    +0.000 C 
ATOM     14  N   UNL     1      11.913   0.773   8.600  0.00  0.00    +0.000 N 
ATOM     15  O   UNL     1      11.159  -1.123   7.661  0.00  0.00    +0.000 OA
ATOM     16  H   UNL     1      12.605   1.507   8.662  0.00  0.00    +0.000 HD
ATOM     17  H   UNL     1      11.344   0.578   9.413  0.00  0.00    +0.000 HD
ENDBRANCH  10  13
ENDBRANCH   5   7
BRANCH   1  18
ATOM     18  C   UNL     1       8.860  -0.994  -0.113  0.00  0.00    +0.000 C 
ATOM     19  C   UNL     1       7.628  -1.523   0.621  0.00  0.00    +0.000 C 
ATOM     20  C   UNL     1       7.480  -0.412  -0.363  0.00  0.00    +0.000 C 
BRANCH  18  21
ATOM     21  N   UNL     1       9.498  -2.003  -0.966  0.00  0.00    +0.000 N 
ATOM     22  H   UNL     1      10.265  -2.512  -0.533  0.00  0.00    +0.000 HD
BRANCH  21  26
ATOM     23  C   UNL     1      10.105  -1.726  -5.091  0.00  0.00    +0.000 A 
ATOM     24  C   UNL     1       9.618  -0.660  -4.344  0.00  0.00    +0.000 A 
ATOM     25  N   UNL     1       9.426  -0.694  -2.997  0.00  0.00    +0.000 NA
ATOM     26  C   UNL     1       9.749  -1.834  -2.345  0.00  0.00    +0.000 A 
ATOM     27  C   UNL     1      10.252  -2.943  -3.044  0.00  0.00    +0.000 A 
ATOM     28  F   UNL     1      10.558  -4.073  -2.389  0.00  0.00    +0.000 F 
ATOM     29  C   UNL     1      10.427  -2.898  -4.420  0.00  0.00    +0.000 A 
BRANCH  23  31
ATOM     30  N   UNL     1      10.364  -1.554  -7.661  0.00  0.00    +0.000 NA
ATOM     31  C   UNL     1      10.245  -1.626  -6.510  0.00  0.00    +0.000 C 
ENDBRANCH  23  31
ENDBRANCH  21  26
ENDBRANCH  18  21
ENDBRANCH   1  18
TORSDOF 6
