REMARK  Name = 
REMARK  7 active torsions:
REMARK  status: ('A' for Active; 'I' for Inactive)
REMARK    1  A    between atoms: C_1  and  N_2
REMARK    2  A    between atoms: N_2  and  C_3
REMARK    3  A    between atoms: C_3  and  C_4
REMARK    4  A    between atoms: C_7  and  C_8
REMARK    5  A    between atoms: C_8  and  O_9
REMARK    6  A    between atoms: C_8  and  C_10
REMARK    7  A    between atoms: C_18  and  C_20
REMARK                            x       y       z     vdW  Elec       q    Type
REMARK                         _______ _______ _______ _____ _____    ______ ____
ROOT
ATOM      1  C   UNL     1       3.067   1.186  -0.439  0.00  0.00    +0.000 C 
ENDROOT
BRANCH   1   2
ATOM      2  C   UNL     1       2.146   2.380  -0.305  0.00  0.00    +0.000 A 
ATOM      3  C   UNL     1       0.786   2.190  -0.017  0.00  0.00    +0.000 A 
ATOM      4  C   UNL     1      -0.085   3.277   0.049  0.00  0.00    +0.000 A 
ATOM      5  C   UNL     1       0.379   4.583  -0.178  0.00  0.00    +0.000 A 
ATOM      6  C   UNL     1       1.745   4.771  -0.439  0.00  0.00    +0.000 A 
ATOM      7  C   UNL     1       2.622   3.682  -0.497  0.00  0.00    +0.000 A 
BRANCH   5   8
ATOM      8  C   UNL     1      -0.600   5.744  -0.152  0.00  0.00    +0.000 C 
BRANCH   8   9
ATOM      9  C   UNL     1      -0.823   6.460  -1.469  0.00  0.00    +0.000 A 
ATOM     10  C   UNL     1      -1.211   7.808  -1.503  0.00  0.00    +0.000 A 
ATOM     11  C   UNL     1      -1.502   8.427  -2.715  0.00  0.00    +0.000 A 
ATOM     12  C   UNL     1      -1.404   7.676  -3.871  0.00  0.00    +0.000 A 
ATOM     13  N   UNL     1      -1.039   6.378  -3.891  0.00  0.00    +0.000 NA
ATOM     14  C   UNL     1      -0.765   5.801  -2.695  0.00  0.00    +0.000 A 
ENDBRANCH   8   9
BRANCH   8  15
ATOM     15  O   UNL     1      -0.209   6.692   0.847  0.00  0.00    +0.000 OA
ATOM     16  H   UNL     1       0.647   6.414   1.210  0.00  0.00    +0.000 HD
ENDBRANCH   8  15
ENDBRANCH   5   8
ENDBRANCH   1   2
BRANCH   1  18
ATOM     17  C   UNL     1       2.434   1.057  -2.885  0.00  0.00    +0.000 C 
ATOM     18  N   UNL     1       3.326   0.680  -1.791  0.00  0.00    +0.000 N 
ATOM     19  C   UNL     1       4.178  -0.410  -2.069  0.00  0.00    +0.000 C 
ATOM     20  O   UNL     1       4.186  -0.947  -3.175  0.00  0.00    +0.000 OA
BRANCH  19  21
ATOM     21  C   UNL     1       5.060  -0.946  -1.019  0.00  0.00    +0.000 A 
ATOM     22  C   UNL     1       4.652  -1.336   0.246  0.00  0.00    +0.000 A 
ATOM     23  S   UNL     1       5.904  -1.997   1.202  0.00  0.00    +0.000 S 
ATOM     24  C   UNL     1       6.995  -1.937  -0.099  0.00  0.00    +0.000 A 
ATOM     25  N   UNL     1       8.245  -2.463   0.013  0.00  0.00    +0.000 NA
ATOM     26  C   UNL     1       8.935  -2.421  -1.078  0.00  0.00    +0.000 A 
ATOM     27  N   UNL     1       8.495  -1.879  -2.263  0.00  0.00    +0.000 N 
ATOM     28  C   UNL     1       7.292  -1.218  -2.386  0.00  0.00    +0.000 A 
ATOM     29  O   UNL     1       7.035  -0.556  -3.385  0.00  0.00    +0.000 OA
ATOM     30  C   UNL     1       6.438  -1.336  -1.215  0.00  0.00    +0.000 A 
ATOM     31  H   UNL     1       9.110  -1.831  -3.061  0.00  0.00    +0.000 HD
ENDBRANCH  19  21
ENDBRANCH   1  18
TORSDOF 6
