REMARK  Name = 
REMARK  6 active torsions:
REMARK  status: ('A' for Active; 'I' for Inactive)
REMARK    1  A    between atoms: C_2  and  C_25
REMARK    2  A    between atoms: N_3  and  C_4
REMARK    3  A    between atoms: C_4  and  C_5
REMARK    4  A    between atoms: C_8  and  C_9
REMARK    5  A    between atoms: C_9  and  N_10
REMARK    6  A    between atoms: C_11  and  C_13
REMARK                            x       y       z     vdW  Elec       q    Type
REMARK                         _______ _______ _______ _____ _____    ______ ____
ROOT
ATOM      1  C   UNL     1       3.238  -2.620  -2.657  0.00  0.00    +0.000 A 
ATOM      2  C   UNL     1       4.234  -2.007  -3.419  0.00  0.00    +0.000 A 
ATOM      3  C   UNL     1       5.078  -2.783  -4.210  0.00  0.00    +0.000 A 
ATOM      4  C   UNL     1       4.927  -4.167  -4.197  0.00  0.00    +0.000 A 
ATOM      5  N   UNL     1       3.968  -4.786  -3.462  0.00  0.00    +0.000 NA
ATOM      6  C   UNL     1       3.152  -4.005  -2.718  0.00  0.00    +0.000 A 
ENDROOT
BRANCH   1   7
ATOM      7  C   UNL     1       2.283  -1.822  -1.825  0.00  0.00    +0.000 C 
BRANCH   7  10
ATOM      8  O   UNL     1       0.896  -0.367   0.082  0.00  0.00    +0.000 OA
ATOM      9  C   UNL     1       1.983  -0.849   0.393  0.00  0.00    +0.000 C 
ATOM     10  N   UNL     1       2.757  -1.579  -0.486  0.00  0.00    +0.000 N 
ATOM     11  H   UNL     1       3.635  -1.957  -0.145  0.00  0.00    +0.000 HD
BRANCH   9  12
ATOM     12  C   UNL     1       2.533  -0.676   1.774  0.00  0.00    +0.000 A 
ATOM     13  C   UNL     1       1.773   0.004   2.722  0.00  0.00    +0.000 A 
ATOM     14  C   UNL     1       2.290   0.149   4.004  0.00  0.00    +0.000 A 
ATOM     15  C   UNL     1       3.542  -0.382   4.293  0.00  0.00    +0.000 A 
ATOM     16  C   UNL     1       4.231  -1.043   3.283  0.00  0.00    +0.000 A 
ATOM     17  N   UNL     1       3.760  -1.210   2.026  0.00  0.00    +0.000 NA
ENDBRANCH   9  12
ENDBRANCH   7  10
ENDBRANCH   1   7
BRANCH   4  18
ATOM     18  C   UNL     1       5.829  -5.039  -5.035  0.00  0.00    +0.000 C 
BRANCH  18  19
ATOM     19  N   UNL     1       5.275  -5.305  -6.342  0.00  0.00    +0.000 N 
ATOM     20  C   UNL     1       5.656  -4.625  -7.466  0.00  0.00    +0.000 C 
ATOM     21  O   UNL     1       6.501  -3.734  -7.437  0.00  0.00    +0.000 OA
ATOM     22  H   UNL     1       4.423  -5.857  -6.347  0.00  0.00    +0.000 HD
BRANCH  20  23
ATOM     23  C   UNL     1       5.058  -5.075  -8.731  0.00  0.00    +0.000 A 
ATOM     24  C   UNL     1       5.703  -4.809  -9.932  0.00  0.00    +0.000 A 
ATOM     25  S   UNL     1       4.906  -5.454 -11.295  0.00  0.00    +0.000 S 
ATOM     26  C   UNL     1       3.645  -6.071 -10.334  0.00  0.00    +0.000 A 
ATOM     27  N   UNL     1       2.600  -6.736 -10.895  0.00  0.00    +0.000 NA
ATOM     28  C   UNL     1       1.700  -7.122 -10.053  0.00  0.00    +0.000 A 
ATOM     29  N   UNL     1       1.751  -6.908  -8.702  0.00  0.00    +0.000 N 
ATOM     30  C   UNL     1       2.809  -6.285  -8.087  0.00  0.00    +0.000 A 
ATOM     31  O   UNL     1       2.862  -6.182  -6.865  0.00  0.00    +0.000 OA
ATOM     32  C   UNL     1       3.838  -5.806  -8.990  0.00  0.00    +0.000 A 
ATOM     33  H   UNL     1       1.023  -7.248  -8.091  0.00  0.00    +0.000 HD
ENDBRANCH  20  23
ENDBRANCH  18  19
ENDBRANCH   4  18
TORSDOF 6
