REMARK  Name = 
REMARK  8 active torsions:
REMARK  status: ('A' for Active; 'I' for Inactive)
REMARK    1  A    between atoms: C_1  and  C_2
REMARK    2  A    between atoms: C_2  and  N_3
REMARK    3  A    between atoms: C_2  and  C_25
REMARK    4  A    between atoms: N_3  and  C_4
REMARK    5  A    between atoms: C_4  and  C_5
REMARK    6  A    between atoms: C_8  and  C_9
REMARK    7  A    between atoms: C_9  and  N_10
REMARK    8  A    between atoms: C_11  and  C_13
REMARK                            x       y       z     vdW  Elec       q    Type
REMARK                         _______ _______ _______ _____ _____    ______ ____
ROOT
ATOM      1  C   UNL     1      -0.866   0.854   1.147  0.00  0.00    +0.000 A 
ATOM      2  C   UNL     1      -1.578  -0.329   0.900  0.00  0.00    +0.000 A 
ATOM      3  C   UNL     1      -2.973  -0.345   0.943  0.00  0.00    +0.000 A 
ATOM      4  C   UNL     1      -3.685   0.827   1.225  0.00  0.00    +0.000 A 
ATOM      5  C   UNL     1      -2.974   2.001   1.507  0.00  0.00    +0.000 A 
ATOM      6  C   UNL     1      -1.577   2.017   1.462  0.00  0.00    +0.000 A 
ENDROOT
BRANCH   1   7
ATOM      7  C   UNL     1       0.645   0.858   1.131  0.00  0.00    +0.000 C 
BRANCH   7   8
ATOM      8  N   UNL     1       1.166   0.398  -0.156  0.00  0.00    +0.000 NA
ATOM      9  H   UNL     1       0.810   1.028  -0.878  0.00  0.00    +0.000 HD
BRANCH   8  11
ATOM     10  C   UNL     1       3.293  -0.483   0.831  0.00  0.00    +0.000 C 
ATOM     11  C   UNL     1       2.640   0.418  -0.226  0.00  0.00    +0.000 C 
BRANCH  11  12
ATOM     12  C   UNL     1       3.113   0.030  -1.622  0.00  0.00    +0.000 A 
ATOM     13  C   UNL     1       2.829  -1.223  -2.164  0.00  0.00    +0.000 A 
ATOM     14  N   UNL     1       3.208  -1.596  -3.411  0.00  0.00    +0.000 NA
ATOM     15  C   UNL     1       3.876  -0.657  -4.113  0.00  0.00    +0.000 A 
ATOM     16  C   UNL     1       4.164   0.592  -3.591  0.00  0.00    +0.000 A 
ATOM     17  N   UNL     1       3.794   0.963  -2.342  0.00  0.00    +0.000 NA
ENDBRANCH  11  12
ENDBRANCH   8  11
ENDBRANCH   7   8
ENDBRANCH   1   7
BRANCH   4  18
ATOM     18  C   UNL     1      -5.189   0.824   1.266  0.00  0.00    +0.000 C 
BRANCH  18  19
ATOM     19  N   UNL     1      -5.673   0.533   2.591  0.00  0.00    +0.000 N 
ATOM     20  C   UNL     1      -7.014   0.394   2.836  0.00  0.00    +0.000 C 
ATOM     21  O   UNL     1      -7.848   0.463   1.936  0.00  0.00    +0.000 OA
ATOM     22  H   UNL     1      -5.032   0.689   3.363  0.00  0.00    +0.000 HD
BRANCH  20  23
ATOM     23  C   UNL     1      -7.405   0.096   4.219  0.00  0.00    +0.000 A 
ATOM     24  C   UNL     1      -8.632  -0.503   4.469  0.00  0.00    +0.000 A 
ATOM     25  S   UNL     1      -8.909  -0.831   6.119  0.00  0.00    +0.000 S 
ATOM     26  C   UNL     1      -7.421  -0.136   6.564  0.00  0.00    +0.000 A 
ATOM     27  N   UNL     1      -7.043  -0.072   7.869  0.00  0.00    +0.000 NA
ATOM     28  C   UNL     1      -5.907   0.508   8.067  0.00  0.00    +0.000 A 
ATOM     29  N   UNL     1      -5.112   1.027   7.078  0.00  0.00    +0.000 N 
ATOM     30  C   UNL     1      -5.443   0.964   5.745  0.00  0.00    +0.000 A 
ATOM     31  O   UNL     1      -4.692   1.412   4.882  0.00  0.00    +0.000 OA
ATOM     32  C   UNL     1      -6.714   0.327   5.467  0.00  0.00    +0.000 A 
ATOM     33  H   UNL     1      -4.231   1.467   7.300  0.00  0.00    +0.000 HD
ENDBRANCH  20  23
ENDBRANCH  18  19
ENDBRANCH   4  18
TORSDOF 7
