REMARK  Name = 
REMARK  7 active torsions:
REMARK  status: ('A' for Active; 'I' for Inactive)
REMARK    1  A    between atoms: C_1  and  C_2
REMARK    2  A    between atoms: C_2  and  C_3
REMARK    3  A    between atoms: C_2  and  C_14
REMARK    4  A    between atoms: C_3  and  N_4
REMARK    5  A    between atoms: N_4  and  C_5
REMARK    6  A    between atoms: C_8  and  C_9
REMARK    7  A    between atoms: C_18  and  C_19
REMARK                            x       y       z     vdW  Elec       q    Type
REMARK                         _______ _______ _______ _____ _____    ______ ____
ROOT
ATOM      1  C   UNL     1       2.967   1.191  -0.813  0.00  0.00    +0.000 C 
ENDROOT
BRANCH   1   3
ATOM      2  C   UNL     1       0.863  -0.027   0.025  0.00  0.00    +0.000 C 
ATOM      3  C   UNL     1       2.305   0.325   0.214  0.00  0.00    +0.000 C 
BRANCH   3   4
ATOM      4  C   UNL     1       2.919   0.241   1.544  0.00  0.00    +0.000 A 
ATOM      5  C   UNL     1       4.236  -0.200   1.707  0.00  0.00    +0.000 A 
ATOM      6  C   UNL     1       4.837  -0.173   2.967  0.00  0.00    +0.000 A 
ATOM      7  C   UNL     1       4.134   0.317   4.067  0.00  0.00    +0.000 A 
ATOM      8  C   UNL     1       2.813   0.761   3.920  0.00  0.00    +0.000 A 
ATOM      9  C   UNL     1       2.207   0.688   2.660  0.00  0.00    +0.000 A 
BRANCH   8  10
ATOM     10  C   UNL     1       2.042   1.366   5.065  0.00  0.00    +0.000 C 
ATOM     11  F   UNL     1       2.760   1.472   6.216  0.00  0.00    +0.000 F 
ATOM     12  F   UNL     1       1.609   2.626   4.778  0.00  0.00    +0.000 F 
ATOM     13  F   UNL     1       0.927   0.652   5.379  0.00  0.00    +0.000 F 
ENDBRANCH   8  10
ENDBRANCH   3   4
ENDBRANCH   1   3
BRANCH   1  14
ATOM     14  N   UNL     1       2.480   2.558  -0.634  0.00  0.00    +0.000 N 
ATOM     15  H   UNL     1       2.520   2.841   0.344  0.00  0.00    +0.000 HD
BRANCH  14  16
ATOM     16  C   UNL     1       3.038   3.534  -1.473  0.00  0.00    +0.000 A 
ATOM     17  C   UNL     1       3.095   4.866  -1.044  0.00  0.00    +0.000 A 
ATOM     18  C   UNL     1       3.612   5.857  -1.881  0.00  0.00    +0.000 A 
ATOM     19  C   UNL     1       4.029   5.489  -3.152  0.00  0.00    +0.000 A 
ATOM     20  N   UNL     1       3.944   4.222  -3.638  0.00  0.00    +0.000 NA
ATOM     21  C   UNL     1       3.433   3.299  -2.792  0.00  0.00    +0.000 A 
BRANCH  19  22
ATOM     22  C   UNL     1       4.611   6.507  -4.080  0.00  0.00    +0.000 C 
ATOM     23  N   UNL     1       4.981   6.028  -5.307  0.00  0.00    +0.000 N 
ATOM     24  O   UNL     1       4.752   7.685  -3.772  0.00  0.00    +0.000 OA
ATOM     25  H   UNL     1       4.841   5.047  -5.519  0.00  0.00    +0.000 HD
ATOM     26  H   UNL     1       5.379   6.655  -5.992  0.00  0.00    +0.000 HD
ENDBRANCH  19  22
ENDBRANCH  14  16
ENDBRANCH   1  14
TORSDOF 6
