REMARK  Name = 
REMARK  4 active torsions:
REMARK  status: ('A' for Active; 'I' for Inactive)
REMARK    1  A    between atoms: N_1  and  C_2
REMARK    2  A    between atoms: C_2  and  C_3
REMARK    3  A    between atoms: C_6  and  C_7
REMARK    4  A    between atoms: C_7  and  N_8
REMARK                            x       y       z     vdW  Elec       q    Type
REMARK                         _______ _______ _______ _____ _____    ______ ____
ROOT
ATOM      1  C   UNL     1       3.563   4.483   3.408  0.00  0.00    +0.000 C 
ENDROOT
BRANCH   1   2
ATOM      2  N   UNL     1       3.285   5.779   2.794  0.00  0.00    +0.000 N 
ATOM      3  C   UNL     1       2.042   6.372   2.772  0.00  0.00    +0.000 A 
ATOM      4  C   UNL     1       2.172   7.619   2.204  0.00  0.00    +0.000 A 
ATOM      5  C   UNL     1       3.535   7.797   1.879  0.00  0.00    +0.000 A 
ATOM      6  N   UNL     1       4.133   8.877   1.322  0.00  0.00    +0.000 NA
ATOM      7  C   UNL     1       5.460   8.749   1.139  0.00  0.00    +0.000 A 
ATOM      8  F   UNL     1       6.101   9.801   0.603  0.00  0.00    +0.000 F 
ATOM      9  C   UNL     1       6.218   7.635   1.461  0.00  0.00    +0.000 A 
ATOM     10  C   UNL     1       5.598   6.528   2.034  0.00  0.00    +0.000 A 
ATOM     11  C   UNL     1       4.220   6.635   2.245  0.00  0.00    +0.000 A 
ENDBRANCH   1   2
BRANCH   1  15
ATOM     12  C   UNL     1       2.903   1.287   0.556  0.00  0.00    +0.000 A 
ATOM     13  C   UNL     1       4.175   1.852   0.715  0.00  0.00    +0.000 A 
ATOM     14  C   UNL     1       4.395   2.868   1.649  0.00  0.00    +0.000 A 
ATOM     15  C   UNL     1       3.345   3.344   2.445  0.00  0.00    +0.000 A 
ATOM     16  C   UNL     1       2.079   2.759   2.307  0.00  0.00    +0.000 A 
ATOM     17  C   UNL     1       1.860   1.742   1.374  0.00  0.00    +0.000 A 
BRANCH  12  18
ATOM     18  C   UNL     1       2.647   0.257  -0.515  0.00  0.00    +0.000 C 
BRANCH  18  19
ATOM     19  N   UNL     1       3.503  -0.914  -0.367  0.00  0.00    +0.000 NA
ATOM     20  H   UNL     1       3.228  -1.613  -1.053  0.00  0.00    +0.000 HD
ATOM     21  H   UNL     1       3.333  -1.327   0.549  0.00  0.00    +0.000 HD
ENDBRANCH  18  19
ENDBRANCH  12  18
ENDBRANCH   1  15
TORSDOF 4
