REMARK  Name = 
REMARK  6 active torsions:
REMARK  status: ('A' for Active; 'I' for Inactive)
REMARK    1  A    between atoms: C_2  and  C_20
REMARK    2  A    between atoms: N_3  and  C_4
REMARK    3  A    between atoms: C_4  and  C_5
REMARK    4  A    between atoms: C_8  and  C_9
REMARK    5  A    between atoms: C_10  and  C_11
REMARK    6  A    between atoms: C_11  and  N_12
REMARK                            x       y       z     vdW  Elec       q    Type
REMARK                         _______ _______ _______ _____ _____    ______ ____
ROOT
ATOM      1  C   UNL     1       2.199  -0.108  -2.364  0.00  0.00    +0.000 C 
ENDROOT
BRANCH   1   2
ATOM      2  C   UNL     1       3.140  -0.113  -3.534  0.00  0.00    +0.000 A 
ATOM      3  C   UNL     1       3.569   1.098  -4.096  0.00  0.00    +0.000 A 
ATOM      4  C   UNL     1       4.450   1.099  -5.175  0.00  0.00    +0.000 A 
ATOM      5  C   UNL     1       4.899  -0.110  -5.704  0.00  0.00    +0.000 A 
ATOM      6  C   UNL     1       4.441  -1.322  -5.185  0.00  0.00    +0.000 A 
ATOM      7  C   UNL     1       3.560  -1.323  -4.104  0.00  0.00    +0.000 A 
BRANCH   5   8
ATOM      8  C   UNL     1       5.848  -0.108  -6.766  0.00  0.00    +0.000 C 
ATOM      9  C   UNL     1       6.662  -0.060  -7.645  0.00  0.00    +0.000 C 
BRANCH   9  10
ATOM     10  C   UNL     1       7.621   0.057  -8.740  0.00  0.00    +0.000 C 
BRANCH  10  11
ATOM     11  N   UNL     1       8.736   0.965  -8.422  0.00  0.00    +0.000 NA
ATOM     12  C   UNL     1       8.305   2.348  -8.111  0.00  0.00    +0.000 C 
ATOM     13  C   UNL     1       7.731   3.104  -9.319  0.00  0.00    +0.000 C 
ATOM     14  O   UNL     1       8.650   3.118 -10.420  0.00  0.00    +0.000 OA
ATOM     15  C   UNL     1       9.070   1.796 -10.778  0.00  0.00    +0.000 C 
ATOM     16  C   UNL     1       9.666   1.047  -9.572  0.00  0.00    +0.000 C 
ENDBRANCH  10  11
ENDBRANCH   9  10
ENDBRANCH   5   8
ENDBRANCH   1   2
BRANCH   1  19
ATOM     17  O   UNL     1      -0.018  -0.247  -0.714  0.00  0.00    +0.000 OA
ATOM     18  C   UNL     1      -0.199  -0.109  -1.921  0.00  0.00    +0.000 C 
ATOM     19  N   UNL     1       0.834  -0.104  -2.818  0.00  0.00    +0.000 N 
ATOM     20  H   UNL     1       0.670   0.215  -3.767  0.00  0.00    +0.000 HD
BRANCH  18  21
ATOM     21  C   UNL     1      -1.544   0.009  -2.488  0.00  0.00    +0.000 A 
ATOM     22  C   UNL     1      -2.629  -0.518  -1.799  0.00  0.00    +0.000 A 
ATOM     23  S   UNL     1      -4.113  -0.312  -2.613  0.00  0.00    +0.000 S 
ATOM     24  C   UNL     1      -3.363   0.529  -3.886  0.00  0.00    +0.000 A 
ATOM     25  N   UNL     1      -4.093   1.022  -4.925  0.00  0.00    +0.000 NA
ATOM     26  C   UNL     1      -3.399   1.672  -5.802  0.00  0.00    +0.000 A 
ATOM     27  N   UNL     1      -2.044   1.867  -5.738  0.00  0.00    +0.000 N 
ATOM     28  C   UNL     1      -1.260   1.355  -4.730  0.00  0.00    +0.000 A 
ATOM     29  O   UNL     1      -0.045   1.495  -4.735  0.00  0.00    +0.000 OA
ATOM     30  C   UNL     1      -1.995   0.633  -3.705  0.00  0.00    +0.000 A 
ATOM     31  H   UNL     1      -1.560   2.374  -6.465  0.00  0.00    +0.000 HD
ENDBRANCH  18  21
ENDBRANCH   1  19
TORSDOF 6
