REMARK  Name = 
REMARK  5 active torsions:
REMARK  status: ('A' for Active; 'I' for Inactive)
REMARK    1  A    between atoms: C_2  and  C_4
REMARK    2  A    between atoms: C_7  and  N_8
REMARK    3  A    between atoms: N_8  and  C_9
REMARK    4  A    between atoms: C_9  and  C_10
REMARK    5  A    between atoms: C_14  and  C_15
REMARK                            x       y       z     vdW  Elec       q    Type
REMARK                         _______ _______ _______ _____ _____    ______ ____
ROOT
ATOM      1  C   UNL     1       5.169   2.748   5.298  0.00  0.00    +0.000 C 
ENDROOT
BRANCH   1   2
ATOM      2  C   UNL     1       6.001   3.591   6.227  0.00  0.00    +0.000 A 
ATOM      3  C   UNL     1       5.975   4.986   6.158  0.00  0.00    +0.000 A 
ATOM      4  C   UNL     1       6.737   5.740   7.046  0.00  0.00    +0.000 A 
ATOM      5  C   UNL     1       7.504   5.105   8.029  0.00  0.00    +0.000 A 
ATOM      6  C   UNL     1       7.513   3.705   8.161  0.00  0.00    +0.000 A 
ATOM      7  C   UNL     1       6.765   2.969   7.226  0.00  0.00    +0.000 A 
BRANCH   6   8
ATOM      8  C   UNL     1       8.181   3.022   9.294  0.00  0.00    +0.000 A 
ATOM      9  C   UNL     1       8.171   3.596  10.580  0.00  0.00    +0.000 A 
ATOM     10  C   UNL     1       8.671   2.911  11.692  0.00  0.00    +0.000 A 
ATOM     11  C   UNL     1       9.191   1.628  11.547  0.00  0.00    +0.000 A 
ATOM     12  C   UNL     1       9.243   1.047  10.285  0.00  0.00    +0.000 A 
ATOM     13  C   UNL     1       8.755   1.743   9.177  0.00  0.00    +0.000 A 
ATOM     14  F   UNL     1       8.835   1.133   7.983  0.00  0.00    +0.000 F 
ENDBRANCH   6   8
ENDBRANCH   1   2
BRANCH   1  15
ATOM     15  N   UNL     1       3.879   2.481   5.912  0.00  0.00    +0.000 N 
ATOM     16  H   UNL     1       3.907   2.366   6.922  0.00  0.00    +0.000 HD
BRANCH  15  20
ATOM     17  C   UNL     1       0.843   0.314   3.956  0.00  0.00    +0.000 A 
ATOM     18  C   UNL     1       2.075   0.493   3.325  0.00  0.00    +0.000 A 
ATOM     19  C   UNL     1       3.100   1.182   3.979  0.00  0.00    +0.000 A 
ATOM     20  C   UNL     1       2.934   1.684   5.276  0.00  0.00    +0.000 A 
ATOM     21  C   UNL     1       1.690   1.497   5.891  0.00  0.00    +0.000 A 
ATOM     22  C   UNL     1       0.649   0.822   5.241  0.00  0.00    +0.000 A 
BRANCH  17  24
ATOM     23  N   UNL     1       0.015  -1.263   2.294  0.00  0.00    +0.000 N 
ATOM     24  C   UNL     1      -0.291  -0.354   3.267  0.00  0.00    +0.000 C 
ATOM     25  O   UNL     1      -1.455  -0.124   3.571  0.00  0.00    +0.000 OA
ATOM     26  H   UNL     1      -0.763  -1.770   1.893  0.00  0.00    +0.000 HD
ATOM     27  H   UNL     1       0.940  -1.654   2.185  0.00  0.00    +0.000 HD
ENDBRANCH  17  24
ENDBRANCH  15  20
ENDBRANCH   1  15
TORSDOF 5
