REMARK  Name = 
REMARK  5 active torsions:
REMARK  status: ('A' for Active; 'I' for Inactive)
REMARK    1  A    between atoms: C_2  and  C_3
REMARK    2  A    between atoms: C_6  and  N_7
REMARK    3  A    between atoms: N_7  and  C_8
REMARK    4  A    between atoms: C_8  and  C_9
REMARK    5  A    between atoms: C_14  and  C_15
REMARK                            x       y       z     vdW  Elec       q    Type
REMARK                         _______ _______ _______ _____ _____    ______ ____
ROOT
ATOM      1  C   UNL     1       4.547  -1.123   0.100  0.00  0.00    +0.000 C 
ATOM      2  C   UNL     1       4.797  -2.246  -0.891  0.00  0.00    +0.000 C 
ATOM      3  C   UNL     1       4.325  -2.588   0.478  0.00  0.00    +0.000 C 
ENDROOT
BRANCH   1   4
ATOM      4  C   UNL     1       5.677  -0.497   0.912  0.00  0.00    +0.000 A 
ATOM      5  C   UNL     1       5.549  -0.323   2.298  0.00  0.00    +0.000 A 
ATOM      6  C   UNL     1       6.648   0.020   3.072  0.00  0.00    +0.000 A 
ATOM      7  F   UNL     1       6.520   0.092   4.404  0.00  0.00    +0.000 F 
ATOM      8  C   UNL     1       7.894   0.233   2.494  0.00  0.00    +0.000 A 
ATOM      9  C   UNL     1       8.058   0.143   1.104  0.00  0.00    +0.000 A 
ATOM     10  C   UNL     1       6.927  -0.205   0.337  0.00  0.00    +0.000 A 
BRANCH   9  11
ATOM     11  C   UNL     1       9.372   0.328   0.460  0.00  0.00    +0.000 A 
ATOM     12  C   UNL     1      10.562  -0.115   1.054  0.00  0.00    +0.000 A 
ATOM     13  C   UNL     1      11.781   0.029   0.393  0.00  0.00    +0.000 A 
ATOM     14  C   UNL     1      11.784   0.612  -0.861  0.00  0.00    +0.000 A 
ATOM     15  N   UNL     1      10.673   1.062  -1.476  0.00  0.00    +0.000 NA
ATOM     16  C   UNL     1       9.506   0.916  -0.802  0.00  0.00    +0.000 A 
ENDBRANCH   9  11
ENDBRANCH   1   4
BRANCH   1  17
ATOM     17  N   UNL     1       3.398  -0.237  -0.129  0.00  0.00    +0.000 N 
ATOM     18  H   UNL     1       2.531  -0.436   0.359  0.00  0.00    +0.000 HD
BRANCH  17  22
ATOM     19  C   UNL     1       2.955   2.480  -3.352  0.00  0.00    +0.000 A 
ATOM     20  C   UNL     1       4.014   1.573  -3.359  0.00  0.00    +0.000 A 
ATOM     21  C   UNL     1       4.171   0.668  -2.302  0.00  0.00    +0.000 A 
ATOM     22  C   UNL     1       3.257   0.618  -1.241  0.00  0.00    +0.000 A 
ATOM     23  C   UNL     1       2.211   1.553  -1.243  0.00  0.00    +0.000 A 
ATOM     24  C   UNL     1       2.058   2.476  -2.285  0.00  0.00    +0.000 A 
BRANCH  19  26
ATOM     25  N   UNL     1       2.676   4.186  -5.292  0.00  0.00    +0.000 NA
ATOM     26  C   UNL     1       2.803   3.426  -4.427  0.00  0.00    +0.000 C 
ENDBRANCH  19  26
ENDBRANCH  17  22
ENDBRANCH   1  17
TORSDOF 5
