REMARK  Name = 
REMARK  10 active torsions:
REMARK  status: ('A' for Active; 'I' for Inactive)
REMARK    1  A    between atoms: N_1  and  C_2
REMARK    2  A    between atoms: C_2  and  C_3
REMARK    3  A    between atoms: C_3  and  C_4
REMARK    4  A    between atoms: C_4  and  N_5
REMARK    5  A    between atoms: C_8  and  C_9
REMARK    6  A    between atoms: N_11  and  C_12
REMARK    7  A    between atoms: C_12  and  C_13
REMARK    8  A    between atoms: C_16  and  C_17
REMARK    9  A    between atoms: C_17  and  N_18
REMARK   10  A    between atoms: C_19  and  C_21
REMARK                            x       y       z     vdW  Elec       q    Type
REMARK                         _______ _______ _______ _____ _____    ______ ____
ROOT
ATOM      1  C   UNL     1       2.265   2.610   8.843  0.00  0.00    +0.000 A 
ATOM      2  C   UNL     1       2.008   1.384   9.471  0.00  0.00    +0.000 A 
ATOM      3  C   UNL     1       0.947   1.255  10.375  0.00  0.00    +0.000 A 
ATOM      4  C   UNL     1       0.110   2.345  10.651  0.00  0.00    +0.000 A 
ATOM      5  C   UNL     1       0.376   3.572  10.027  0.00  0.00    +0.000 A 
ATOM      6  C   UNL     1       1.433   3.700   9.123  0.00  0.00    +0.000 A 
ENDROOT
BRANCH   1   7
ATOM      7  C   UNL     1       3.414   2.754   7.888  0.00  0.00    +0.000 C 
BRANCH   7  10
ATOM      8  C   UNL     1       3.982   2.571   5.525  0.00  0.00    +0.000 C 
ATOM      9  O   UNL     1       5.135   2.922   5.755  0.00  0.00    +0.000 OA
ATOM     10  N   UNL     1       3.044   2.450   6.526  0.00  0.00    +0.000 N 
ATOM     11  H   UNL     1       2.114   2.087   6.338  0.00  0.00    +0.000 HD
BRANCH   8  15
ATOM     12  N   UNL     1       2.868   3.854   2.460  0.00  0.00    +0.000 NA
ATOM     13  C   UNL     1       4.330   3.685   2.465  0.00  0.00    +0.000 C 
ATOM     14  C   UNL     1       4.574   2.315   3.070  0.00  0.00    +0.000 C 
ATOM     15  C   UNL     1       3.489   2.197   4.134  0.00  0.00    +0.000 C 
ATOM     16  C   UNL     1       2.386   3.142   3.659  0.00  0.00    +0.000 C 
BRANCH  12  17
ATOM     17  C   UNL     1       2.252   3.408   1.200  0.00  0.00    +0.000 C 
BRANCH  17  18
ATOM     18  C   UNL     1       0.735   3.660   1.176  0.00  0.00    +0.000 C 
BRANCH  18  19
ATOM     19  C   UNL     1       0.090   3.257  -0.149  0.00  0.00    +0.000 C 
BRANCH  19  20
ATOM     20  N   UNL     1      -1.353   3.471  -0.060  0.00  0.00    +0.000 NA
ATOM     21  H   UNL     1      -1.792   3.270  -0.957  0.00  0.00    +0.000 HD
ATOM     22  H   UNL     1      -1.542   4.452   0.142  0.00  0.00    +0.000 HD
ENDBRANCH  19  20
ENDBRANCH  18  19
ENDBRANCH  17  18
ENDBRANCH  12  17
ENDBRANCH   8  15
ENDBRANCH   7  10
ENDBRANCH   1   7
BRANCH   4  23
ATOM     23  C   UNL     1      -1.037   2.228  11.623  0.00  0.00    +0.000 C 
BRANCH  23  24
ATOM     24  N   UNL     1      -0.629   2.565  12.963  0.00  0.00    +0.000 N 
ATOM     25  C   UNL     1      -1.504   2.489  14.016  0.00  0.00    +0.000 C 
ATOM     26  O   UNL     1      -2.661   2.098  13.881  0.00  0.00    +0.000 OA
ATOM     27  H   UNL     1       0.198   3.147  13.055  0.00  0.00    +0.000 HD
BRANCH  25  28
ATOM     28  C   UNL     1      -0.963   2.841  15.336  0.00  0.00    +0.000 A 
ATOM     29  C   UNL     1      -1.528   2.301  16.483  0.00  0.00    +0.000 A 
ATOM     30  S   UNL     1      -0.739   2.777  17.921  0.00  0.00    +0.000 S 
ATOM     31  C   UNL     1       0.349   3.764  17.062  0.00  0.00    +0.000 A 
ATOM     32  N   UNL     1       1.293   4.497  17.711  0.00  0.00    +0.000 NA
ATOM     33  C   UNL     1       2.035   5.218  16.938  0.00  0.00    +0.000 A 
ATOM     34  N   UNL     1       1.924   5.266  15.573  0.00  0.00    +0.000 N 
ATOM     35  C   UNL     1       1.001   4.528  14.872  0.00  0.00    +0.000 A 
ATOM     36  O   UNL     1       0.949   4.567  13.648  0.00  0.00    +0.000 OA
ATOM     37  C   UNL     1       0.131   3.710  15.697  0.00  0.00    +0.000 A 
ATOM     38  H   UNL     1       2.545   5.841  15.022  0.00  0.00    +0.000 HD
ENDBRANCH  25  28
ENDBRANCH  23  24
ENDBRANCH   4  23
TORSDOF 10
