REMARK  Name = 
REMARK  6 active torsions:
REMARK  status: ('A' for Active; 'I' for Inactive)
REMARK    1  A    between atoms: C_1  and  C_2
REMARK    2  A    between atoms: C_2  and  N_3
REMARK    3  A    between atoms: C_2  and  C_16
REMARK    4  A    between atoms: C_4  and  C_6
REMARK    5  A    between atoms: C_19  and  O_20
REMARK    6  A    between atoms: O_20  and  C_21
REMARK                            x       y       z     vdW  Elec       q    Type
REMARK                         _______ _______ _______ _____ _____    ______ ____
ROOT
ATOM      1  C   UNL     1       0.809  -0.022   0.066  0.00  0.00    +0.000 C 
ATOM      2  C   UNL     1       2.335   0.080   0.138  0.00  0.00    +0.000 C 
ENDROOT
BRANCH   2   3
ATOM      3  C   UNL     1       2.907  -1.273   0.552  0.00  0.00    +0.000 A 
ATOM      4  C   UNL     1       3.208  -2.228  -0.428  0.00  0.00    +0.000 A 
ATOM      5  C   UNL     1       3.753  -3.465  -0.074  0.00  0.00    +0.000 A 
ATOM      6  C   UNL     1       4.052  -3.750   1.260  0.00  0.00    +0.000 A 
ATOM      7  C   UNL     1       3.697  -2.837   2.251  0.00  0.00    +0.000 A 
ATOM      8  C   UNL     1       3.117  -1.614   1.901  0.00  0.00    +0.000 A 
BRANCH   6   9
ATOM      9  O   UNL     1       4.623  -4.931   1.679  0.00  0.00    +0.000 OA
BRANCH   9  10
ATOM     10  C   UNL     1       5.622  -5.489   0.892  0.00  0.00    +0.000 A 
ATOM     11  C   UNL     1       5.837  -6.855   1.000  0.00  0.00    +0.000 A 
ATOM     12  N   UNL     1       6.760  -7.511   0.251  0.00  0.00    +0.000 NA
ATOM     13  C   UNL     1       7.463  -6.735  -0.605  0.00  0.00    +0.000 A 
ATOM     14  C   UNL     1       7.271  -5.366  -0.693  0.00  0.00    +0.000 A 
ATOM     15  N   UNL     1       6.361  -4.712   0.061  0.00  0.00    +0.000 NA
ENDBRANCH   9  10
ENDBRANCH   6   9
ENDBRANCH   2   3
BRANCH   2  16
ATOM     16  N   UNL     1       2.793   1.132   1.036  0.00  0.00    +0.000 N 
ATOM     17  C   UNL     1       2.482   2.455   0.871  0.00  0.00    +0.000 C 
ATOM     18  O   UNL     1       1.753   2.863  -0.030  0.00  0.00    +0.000 OA
ATOM     19  H   UNL     1       3.649   0.926   1.543  0.00  0.00    +0.000 HD
BRANCH  17  20
ATOM     20  C   UNL     1       3.018   3.378   1.880  0.00  0.00    +0.000 A 
ATOM     21  C   UNL     1       2.335   4.552   2.168  0.00  0.00    +0.000 A 
ATOM     22  S   UNL     1       3.090   5.507   3.362  0.00  0.00    +0.000 S 
ATOM     23  C   UNL     1       4.374   4.402   3.511  0.00  0.00    +0.000 A 
ATOM     24  N   UNL     1       5.413   4.644   4.356  0.00  0.00    +0.000 NA
ATOM     25  C   UNL     1       6.329   3.734   4.349  0.00  0.00    +0.000 A 
ATOM     26  N   UNL     1       6.294   2.596   3.586  0.00  0.00    +0.000 N 
ATOM     27  C   UNL     1       5.249   2.294   2.746  0.00  0.00    +0.000 A 
ATOM     28  O   UNL     1       5.212   1.237   2.125  0.00  0.00    +0.000 OA
ATOM     29  C   UNL     1       4.210   3.301   2.689  0.00  0.00    +0.000 A 
ATOM     30  H   UNL     1       7.033   1.911   3.644  0.00  0.00    +0.000 HD
ENDBRANCH  17  20
ENDBRANCH   2  16
TORSDOF 5
