REMARK  Name = 
REMARK  4 active torsions:
REMARK  status: ('A' for Active; 'I' for Inactive)
REMARK    1  A    between atoms: C_2  and  C_3
REMARK    2  A    between atoms: C_8  and  C_9
REMARK    3  A    between atoms: C_9  and  N_10
REMARK    4  A    between atoms: C_15  and  C_16
REMARK                            x       y       z     vdW  Elec       q    Type
REMARK                         _______ _______ _______ _____ _____    ______ ____
ROOT
ATOM      1  N   UNL     1      -2.046   2.417  -0.026  0.00  0.00    +0.000 N 
ATOM      2  C   UNL     1      -2.834   2.853  -1.065  0.00  0.00    +0.000 A 
ATOM      3  C   UNL     1      -4.132   2.484  -0.806  0.00  0.00    +0.000 A 
ATOM      4  C   UNL     1      -4.144   1.782   0.428  0.00  0.00    +0.000 A 
ATOM      5  C   UNL     1      -5.165   1.132   1.156  0.00  0.00    +0.000 A 
ATOM      6  C   UNL     1      -4.857   0.476   2.357  0.00  0.00    +0.000 A 
ATOM      7  C   UNL     1      -3.544   0.505   2.837  0.00  0.00    +0.000 A 
ATOM      8  C   UNL     1      -2.516   1.141   2.130  0.00  0.00    +0.000 A 
ATOM      9  C   UNL     1      -2.832   1.768   0.914  0.00  0.00    +0.000 A 
ENDROOT
BRANCH   6  10
ATOM     10  C   UNL     1      -5.869  -0.285   3.149  0.00  0.00    +0.000 C 
ATOM     11  N   UNL     1      -7.145  -0.383   2.669  0.00  0.00    +0.000 N 
ATOM     12  O   UNL     1      -5.574  -0.835   4.205  0.00  0.00    +0.000 OA
ATOM     13  H   UNL     1      -7.470  -0.005   1.795  0.00  0.00    +0.000 HD
ATOM     14  H   UNL     1      -7.792  -0.938   3.214  0.00  0.00    +0.000 HD
ENDBRANCH   6  10
BRANCH   1  15
ATOM     15  C   UNL     1      -0.586   2.429  -0.067  0.00  0.00    +0.000 C 
BRANCH  15  21
ATOM     16  C   UNL     1       0.394   4.809  -0.110  0.00  0.00    +0.000 A 
ATOM     17  C   UNL     1       1.093   5.838   0.545  0.00  0.00    +0.000 A 
ATOM     18  C   UNL     1       1.419   5.730   1.897  0.00  0.00    +0.000 A 
ATOM     19  C   UNL     1       1.039   4.600   2.608  0.00  0.00    +0.000 A 
ATOM     20  C   UNL     1       0.364   3.563   1.962  0.00  0.00    +0.000 A 
ATOM     21  C   UNL     1       0.044   3.636   0.594  0.00  0.00    +0.000 A 
BRANCH  16  23
ATOM     22  N   UNL     1      -0.164   5.163  -2.621  0.00  0.00    +0.000 NA
ATOM     23  C   UNL     1       0.081   4.999  -1.500  0.00  0.00    +0.000 C 
ENDBRANCH  16  23
ENDBRANCH  15  21
ENDBRANCH   1  15
TORSDOF 4
