REMARK  Name = 
REMARK  5 active torsions:
REMARK  status: ('A' for Active; 'I' for Inactive)
REMARK    1  A    between atoms: C_1  and  C_2
REMARK    2  A    between atoms: C_2  and  N_3
REMARK    3  A    between atoms: C_2  and  C_13
REMARK    4  A    between atoms: N_3  and  C_4
REMARK    5  A    between atoms: C_8  and  C_9
REMARK                            x       y       z     vdW  Elec       q    Type
REMARK                         _______ _______ _______ _____ _____    ______ ____
ROOT
ATOM      1  N   UNL     1       1.090   0.206   0.167  0.00  0.00    +0.000 N 
ATOM      2  H   UNL     1       0.629   0.314   1.065  0.00  0.00    +0.000 HD
ENDROOT
BRANCH   1   3
ATOM      3  C   UNL     1       0.257  -0.104  -0.894  0.00  0.00    +0.000 A 
ATOM      4  C   UNL     1      -0.988   0.528  -1.014  0.00  0.00    +0.000 A 
ATOM      5  N   UNL     1      -1.883   0.322  -2.013  0.00  0.00    +0.000 NA
ATOM      6  C   UNL     1      -1.518  -0.561  -2.969  0.00  0.00    +0.000 A 
ATOM      7  C   UNL     1      -0.299  -1.225  -2.968  0.00  0.00    +0.000 A 
ATOM      8  C   UNL     1       0.604  -0.962  -1.935  0.00  0.00    +0.000 A 
BRANCH   7   9
ATOM      9  C   UNL     1      -0.010  -2.178  -4.063  0.00  0.00    +0.000 C 
ATOM     10  N   UNL     1       0.920  -3.154  -3.820  0.00  0.00    +0.000 N 
ATOM     11  O   UNL     1      -0.598  -2.123  -5.136  0.00  0.00    +0.000 OA
ATOM     12  H   UNL     1       1.237  -3.389  -2.889  0.00  0.00    +0.000 HD
ATOM     13  H   UNL     1       1.035  -3.855  -4.541  0.00  0.00    +0.000 HD
ENDBRANCH   7   9
ENDBRANCH   1   3
BRANCH   1  15
ATOM     14  C   UNL     1       3.133   0.870   1.285  0.00  0.00    +0.000 C 
ATOM     15  C   UNL     1       2.529  -0.035   0.207  0.00  0.00    +0.000 C 
BRANCH  15  16
ATOM     16  C   UNL     1       2.903  -1.486   0.468  0.00  0.00    +0.000 A 
ATOM     17  C   UNL     1       4.099  -1.991  -0.077  0.00  0.00    +0.000 A 
ATOM     18  C   UNL     1       4.485  -3.316   0.137  0.00  0.00    +0.000 A 
ATOM     19  C   UNL     1       3.684  -4.160   0.902  0.00  0.00    +0.000 A 
ATOM     20  C   UNL     1       2.509  -3.668   1.464  0.00  0.00    +0.000 A 
ATOM     21 CL   UNL     1       1.521  -4.708   2.416  0.00  0.00    +0.000 Cl
ATOM     22  C   UNL     1       2.117  -2.343   1.256  0.00  0.00    +0.000 A 
ENDBRANCH  15  16
ENDBRANCH   1  15
TORSDOF 4
