REMARK  Name = 
REMARK  10 active torsions:
REMARK  status: ('A' for Active; 'I' for Inactive)
REMARK    1  A    between atoms: C_2  and  C_3
REMARK    2  A    between atoms: C_7  and  C_8
REMARK    3  A    between atoms: C_8  and  N_9
REMARK    4  A    between atoms: N_9  and  C_10
REMARK    5  A    between atoms: C_10  and  C_11
REMARK    6  A    between atoms: C_14  and  C_15
REMARK    7  A    between atoms: C_15  and  N_16
REMARK    8  A    between atoms: C_17  and  C_19
REMARK    9  A    between atoms: C_26  and  O_27
REMARK   10  A    between atoms: O_27  and  C_28
REMARK                            x       y       z     vdW  Elec       q    Type
REMARK                         _______ _______ _______ _____ _____    ______ ____
ROOT
ATOM      1  C   UNL     1       5.915   3.383   0.198  0.00  0.00    +0.000 A 
ATOM      2  C   UNL     1       6.771   4.491   0.278  0.00  0.00    +0.000 A 
ATOM      3  C   UNL     1       8.156   4.322   0.366  0.00  0.00    +0.000 A 
ATOM      4  C   UNL     1       8.716   3.039   0.366  0.00  0.00    +0.000 A 
ATOM      5  C   UNL     1       7.858   1.931   0.318  0.00  0.00    +0.000 A 
ATOM      6  C   UNL     1       6.472   2.099   0.237  0.00  0.00    +0.000 A 
ENDROOT
BRANCH   1   7
ATOM      7  C   UNL     1       4.426   3.578   0.027  0.00  0.00    +0.000 C 
BRANCH   7   8
ATOM      8  N   UNL     1       4.083   4.368  -1.158  0.00  0.00    +0.000 NA
ATOM      9  H   UNL     1       3.073   4.503  -1.187  0.00  0.00    +0.000 HD
BRANCH   8  10
ATOM     10  C   UNL     1       4.492   3.702  -2.397  0.00  0.00    +0.000 C 
BRANCH  10  15
ATOM     11  C   UNL     1       2.908   4.710  -5.713  0.00  0.00    +0.000 A 
ATOM     12  C   UNL     1       3.391   6.005  -5.878  0.00  0.00    +0.000 A 
ATOM     13  C   UNL     1       4.239   6.559  -4.920  0.00  0.00    +0.000 A 
ATOM     14  C   UNL     1       4.597   5.817  -3.794  0.00  0.00    +0.000 A 
ATOM     15  C   UNL     1       4.100   4.518  -3.606  0.00  0.00    +0.000 A 
ATOM     16  C   UNL     1       3.256   3.969  -4.581  0.00  0.00    +0.000 A 
BRANCH  11  18
ATOM     17  C   UNL     1       1.373   3.602  -7.538  0.00  0.00    +0.000 C 
ATOM     18  C   UNL     1       2.065   4.119  -6.707  0.00  0.00    +0.000 C 
ENDBRANCH  11  18
ENDBRANCH  10  15
ENDBRANCH   8  10
ENDBRANCH   7   8
ENDBRANCH   1   7
BRANCH   4  19
ATOM     19  C   UNL     1      10.210   2.842   0.438  0.00  0.00    +0.000 C 
BRANCH  19  20
ATOM     20  N   UNL     1      10.659   2.774   1.804  0.00  0.00    +0.000 N 
ATOM     21  C   UNL     1      11.977   2.583   2.133  0.00  0.00    +0.000 C 
ATOM     22  O   UNL     1      12.864   2.520   1.286  0.00  0.00    +0.000 OA
ATOM     23  H   UNL     1       9.954   2.617   2.510  0.00  0.00    +0.000 HD
BRANCH  21  24
ATOM     24  C   UNL     1      12.274   2.526   3.569  0.00  0.00    +0.000 A 
ATOM     25  C   UNL     1      13.523   2.915   4.033  0.00  0.00    +0.000 A 
ATOM     26  S   UNL     1      13.661   2.854   5.731  0.00  0.00    +0.000 S 
ATOM     27  C   UNL     1      12.079   2.255   5.890  0.00  0.00    +0.000 A 
ATOM     28  N   UNL     1      11.583   1.976   7.108  0.00  0.00    +0.000 NA
ATOM     29  C   UNL     1      10.337   1.502   7.061  0.00  0.00    +0.000 A 
ATOM     30  N   UNL     1       9.589   1.289   5.972  0.00  0.00    +0.000 NA
ATOM     31  C   UNL     1      10.129   1.582   4.775  0.00  0.00    +0.000 A 
ATOM     32  C   UNL     1      11.428   2.104   4.674  0.00  0.00    +0.000 A 
BRANCH  31  33
ATOM     33  O   UNL     1       9.393   1.364   3.629  0.00  0.00    +0.000 OA
ATOM     34  C   UNL     1       8.070   0.898   3.860  0.00  0.00    +0.000 C 
ENDBRANCH  31  33
ENDBRANCH  21  24
ENDBRANCH  19  20
ENDBRANCH   4  19
TORSDOF 9
