REMARK  Name = 
REMARK  9 active torsions:
REMARK  status: ('A' for Active; 'I' for Inactive)
REMARK    1  A    between atoms: C_1  and  O_2
REMARK    2  A    between atoms: O_2  and  C_3
REMARK    3  A    between atoms: C_5  and  C_6
REMARK    4  A    between atoms: C_11  and  N_12
REMARK    5  A    between atoms: N_12  and  C_13
REMARK    6  A    between atoms: C_13  and  C_14
REMARK    7  A    between atoms: C_19  and  C_20
REMARK    8  A    between atoms: C_24  and  C_25
REMARK    9  A    between atoms: C_25  and  O_26
REMARK                            x       y       z     vdW  Elec       q    Type
REMARK                         _______ _______ _______ _____ _____    ______ ____
ROOT
ATOM      1  C   UNL     1       3.900   1.368  -1.394  0.00  0.00    +0.000 C 
ENDROOT
BRANCH   1   2
ATOM      2  C   UNL     1       4.504   2.167  -2.525  0.00  0.00    +0.000 A 
ATOM      3  C   UNL     1       4.362   3.557  -2.576  0.00  0.00    +0.000 A 
ATOM      4  C   UNL     1       4.817   4.261  -3.688  0.00  0.00    +0.000 A 
ATOM      5  C   UNL     1       5.432   3.583  -4.743  0.00  0.00    +0.000 A 
ATOM      6  F   UNL     1       5.841   4.319  -5.789  0.00  0.00    +0.000 F 
ATOM      7  C   UNL     1       5.621   2.191  -4.727  0.00  0.00    +0.000 A 
ATOM      8  C   UNL     1       5.147   1.506  -3.589  0.00  0.00    +0.000 A 
BRANCH   7   9
ATOM      9  C   UNL     1       6.247   1.449  -5.851  0.00  0.00    +0.000 A 
ATOM     10  C   UNL     1       7.032   0.304  -5.623  0.00  0.00    +0.000 A 
ATOM     11  C   UNL     1       7.577  -0.432  -6.678  0.00  0.00    +0.000 A 
ATOM     12  C   UNL     1       7.365  -0.030  -7.994  0.00  0.00    +0.000 A 
ATOM     13  C   UNL     1       6.616   1.118  -8.268  0.00  0.00    +0.000 A 
ATOM     14  C   UNL     1       6.053   1.832  -7.193  0.00  0.00    +0.000 A 
BRANCH  13  15
ATOM     15  C   UNL     1       6.320   1.550  -9.682  0.00  0.00    +0.000 C 
BRANCH  15  16
ATOM     16  O   UNL     1       7.380   1.225 -10.572  0.00  0.00    +0.000 OA
ATOM     17  H   UNL     1       8.189   1.603 -10.187  0.00  0.00    +0.000 HD
ENDBRANCH  15  16
ENDBRANCH  13  15
ENDBRANCH   7   9
ENDBRANCH   1   2
BRANCH   1  18
ATOM     18  N   UNL     1       4.824   1.164  -0.311  0.00  0.00    +0.000 N 
ATOM     19  H   UNL     1       5.725   1.622  -0.313  0.00  0.00    +0.000 HD
BRANCH  18  25
ATOM     20  C   UNL     1       3.274  -0.102   1.146  0.00  0.00    +0.000 A 
ATOM     21  C   UNL     1       3.094  -0.713   2.392  0.00  0.00    +0.000 A 
ATOM     22  C   UNL     1       4.106  -0.675   3.351  0.00  0.00    +0.000 A 
ATOM     23  C   UNL     1       5.276  -0.023   3.004  0.00  0.00    +0.000 A 
ATOM     24  N   UNL     1       5.487   0.578   1.800  0.00  0.00    +0.000 NA
ATOM     25  C   UNL     1       4.500   0.540   0.874  0.00  0.00    +0.000 A 
BRANCH  22  26
ATOM     26  C   UNL     1       3.857  -1.331   4.659  0.00  0.00    +0.000 C 
ATOM     27  N   UNL     1       4.843  -1.340   5.604  0.00  0.00    +0.000 N 
ATOM     28  O   UNL     1       2.779  -1.863   4.903  0.00  0.00    +0.000 OA
ATOM     29  H   UNL     1       5.772  -0.959   5.500  0.00  0.00    +0.000 HD
ATOM     30  H   UNL     1       4.627  -1.809   6.473  0.00  0.00    +0.000 HD
ENDBRANCH  22  26
BRANCH  20  32
ATOM     31  C   UNL     1       0.968  -0.342   0.583  0.00  0.00    +0.000 C 
ATOM     32  O   UNL     1       2.315  -0.149   0.167  0.00  0.00    +0.000 OA
ENDBRANCH  20  32
ENDBRANCH  18  25
ENDBRANCH   1  18
TORSDOF 8
