REMARK  Name = 
REMARK  8 active torsions:
REMARK  status: ('A' for Active; 'I' for Inactive)
REMARK    1  A    between atoms: C_1  and  O_2
REMARK    2  A    between atoms: O_2  and  C_3
REMARK    3  A    between atoms: C_5  and  C_6
REMARK    4  A    between atoms: C_6  and  C_7
REMARK    5  A    between atoms: C_6  and  N_8
REMARK    6  A    between atoms: N_8  and  C_9
REMARK    7  A    between atoms: C_12  and  C_13
REMARK    8  A    between atoms: C_17  and  C_18
REMARK                            x       y       z     vdW  Elec       q    Type
REMARK                         _______ _______ _______ _____ _____    ______ ____
ROOT
ATOM      1  N   UNL     1       1.529   2.123   4.379  0.00  0.00    +0.000 N 
ATOM      2  H   UNL     1       1.331   1.252   3.896  0.00  0.00    +0.000 HD
ENDROOT
BRANCH   1   3
ATOM      3  C   UNL     1       1.222   1.950   5.744  0.00  0.00    +0.000 A 
ATOM      4  N   UNL     1       2.156   2.253   6.672  0.00  0.00    +0.000 NA
ATOM      5  C   UNL     1       1.865   2.085   7.989  0.00  0.00    +0.000 A 
ATOM      6  C   UNL     1       0.649   1.639   8.464  0.00  0.00    +0.000 A 
ATOM      7  C   UNL     1      -0.326   1.357   7.510  0.00  0.00    +0.000 A 
ATOM      8  C   UNL     1      -0.046   1.486   6.133  0.00  0.00    +0.000 A 
ATOM      9  C   UNL     1      -1.155   1.181   5.168  0.00  0.00    +0.000 C 
BRANCH   6  10
ATOM     10  C   UNL     1       0.333   1.448   9.904  0.00  0.00    +0.000 C 
ATOM     11  N   UNL     1       1.319   1.621  10.833  0.00  0.00    +0.000 N 
ATOM     12  O   UNL     1      -0.794   1.123  10.264  0.00  0.00    +0.000 OA
ATOM     13  H   UNL     1       2.288   1.820  10.638  0.00  0.00    +0.000 HD
ATOM     14  H   UNL     1       1.063   1.445  11.795  0.00  0.00    +0.000 HD
ENDBRANCH   6  10
ENDBRANCH   1   3
BRANCH   1  15
ATOM     15  C   UNL     1       2.889   2.601   4.084  0.00  0.00    +0.000 C 
ATOM     16  C   UNL     1       2.940   4.132   4.109  0.00  0.00    +0.000 C 
BRANCH  15  19
ATOM     17  C   UNL     1       3.349   1.981   0.337  0.00  0.00    +0.000 A 
ATOM     18  C   UNL     1       2.771   2.426   1.519  0.00  0.00    +0.000 A 
ATOM     19  C   UNL     1       3.369   2.075   2.737  0.00  0.00    +0.000 A 
ATOM     20  C   UNL     1       4.506   1.257   2.693  0.00  0.00    +0.000 A 
ATOM     21  C   UNL     1       5.008   0.863   1.464  0.00  0.00    +0.000 A 
ATOM     22  N   UNL     1       4.457   1.209   0.286  0.00  0.00    +0.000 NA
BRANCH  17  24
ATOM     23  C   UNL     1       3.445   1.916  -1.999  0.00  0.00    +0.000 C 
ATOM     24  O   UNL     1       2.748   2.376  -0.843  0.00  0.00    +0.000 OA
ENDBRANCH  17  24
ENDBRANCH  15  19
ENDBRANCH   1  15
TORSDOF 5
