REMARK  Name = 
REMARK  6 active torsions:
REMARK  status: ('A' for Active; 'I' for Inactive)
REMARK    1  A    between atoms: C_2  and  C_25
REMARK    2  A    between atoms: N_3  and  C_4
REMARK    3  A    between atoms: C_4  and  C_5
REMARK    4  A    between atoms: C_8  and  C_9
REMARK    5  A    between atoms: C_9  and  N_10
REMARK    6  A    between atoms: C_11  and  C_13
REMARK                            x       y       z     vdW  Elec       q    Type
REMARK                         _______ _______ _______ _____ _____    ______ ____
ROOT
ATOM      1  C   UNL     1       3.346  -0.747  -3.568  0.00  0.00    +0.000 A 
ATOM      2  C   UNL     1       3.919   0.374  -4.166  0.00  0.00    +0.000 A 
ATOM      3  C   UNL     1       4.800   0.198  -5.232  0.00  0.00    +0.000 A 
ATOM      4  C   UNL     1       5.113  -1.090  -5.669  0.00  0.00    +0.000 A 
ATOM      5  C   UNL     1       4.490  -2.149  -5.018  0.00  0.00    +0.000 A 
ATOM      6  N   UNL     1       3.630  -2.009  -3.980  0.00  0.00    +0.000 NA
ENDROOT
BRANCH   1   7
ATOM      7  C   UNL     1       2.381  -0.582  -2.418  0.00  0.00    +0.000 C 
BRANCH   7  10
ATOM      8  O   UNL     1       1.434   0.813  -0.168  0.00  0.00    +0.000 OA
ATOM      9  C   UNL     1       2.476   0.174  -0.077  0.00  0.00    +0.000 C 
ATOM     10  N   UNL     1       3.050  -0.495  -1.137  0.00  0.00    +0.000 N 
ATOM     11  H   UNL     1       3.827  -1.120  -0.939  0.00  0.00    +0.000 HD
BRANCH   9  12
ATOM     12  C   UNL     1       3.201   0.088   1.222  0.00  0.00    +0.000 A 
ATOM     13  C   UNL     1       2.689   0.746   2.334  0.00  0.00    +0.000 A 
ATOM     14  N   UNL     1       3.316   0.738   3.539  0.00  0.00    +0.000 NA
ATOM     15  C   UNL     1       4.476   0.043   3.576  0.00  0.00    +0.000 A 
ATOM     16  C   UNL     1       4.985  -0.619   2.469  0.00  0.00    +0.000 A 
ATOM     17  N   UNL     1       4.366  -0.620   1.262  0.00  0.00    +0.000 NA
ENDBRANCH   9  12
ENDBRANCH   7  10
ENDBRANCH   1   7
BRANCH   4  18
ATOM     18  C   UNL     1       6.043  -1.325  -6.823  0.00  0.00    +0.000 C 
BRANCH  18  19
ATOM     19  N   UNL     1       5.323  -1.342  -8.072  0.00  0.00    +0.000 N 
ATOM     20  C   UNL     1       5.933  -1.676  -9.256  0.00  0.00    +0.000 C 
ATOM     21  O   UNL     1       7.109  -2.030  -9.304  0.00  0.00    +0.000 OA
ATOM     22  H   UNL     1       4.451  -0.825  -8.100  0.00  0.00    +0.000 HD
BRANCH  20  23
ATOM     23  C   UNL     1       5.079  -1.660 -10.450  0.00  0.00    +0.000 A 
ATOM     24  C   UNL     1       5.428  -2.415 -11.561  0.00  0.00    +0.000 A 
ATOM     25  S   UNL     1       4.282  -2.342 -12.823  0.00  0.00    +0.000 S 
ATOM     26  C   UNL     1       3.306  -1.255 -11.950  0.00  0.00    +0.000 A 
ATOM     27  N   UNL     1       2.146  -0.775 -12.476  0.00  0.00    +0.000 NA
ATOM     28  C   UNL     1       1.523   0.062 -11.716  0.00  0.00    +0.000 A 
ATOM     29  N   UNL     1       1.954   0.467 -10.480  0.00  0.00    +0.000 N 
ATOM     30  C   UNL     1       3.107  -0.004  -9.902  0.00  0.00    +0.000 A 
ATOM     31  O   UNL     1       3.453   0.361  -8.782  0.00  0.00    +0.000 OA
ATOM     32  C   UNL     1       3.845  -0.955 -10.711  0.00  0.00    +0.000 A 
ATOM     33  H   UNL     1       1.419   1.128  -9.935  0.00  0.00    +0.000 HD
ENDBRANCH  20  23
ENDBRANCH  18  19
ENDBRANCH   4  18
TORSDOF 6
