REMARK  Name = 
REMARK  4 active torsions:
REMARK  status: ('A' for Active; 'I' for Inactive)
REMARK    1  A    between atoms: N_1  and  C_2
REMARK    2  A    between atoms: C_2  and  C_3
REMARK    3  A    between atoms: N_6  and  C_7
REMARK    4  A    between atoms: C_7  and  N_8
REMARK                            x       y       z     vdW  Elec       q    Type
REMARK                         _______ _______ _______ _____ _____    ______ ____
ROOT
ATOM      1  C   UNL     1       1.016   4.398   0.324  0.00  0.00    +0.000 C 
ENDROOT
BRANCH   1   2
ATOM      2  N   UNL     1       0.024   5.056  -0.529  0.00  0.00    +0.000 N 
ATOM      3  C   UNL     1       0.327   5.975  -1.506  0.00  0.00    +0.000 A 
ATOM      4  C   UNL     1      -0.841   6.326  -2.140  0.00  0.00    +0.000 A 
ATOM      5  C   UNL     1      -1.904   5.625  -1.509  0.00  0.00    +0.000 A 
ATOM      6  C   UNL     1      -3.296   5.571  -1.731  0.00  0.00    +0.000 A 
ATOM      7  C   UNL     1      -4.097   4.784  -0.899  0.00  0.00    +0.000 A 
ATOM      8  C   UNL     1      -3.524   4.076   0.147  0.00  0.00    +0.000 A 
ATOM      9  F   UNL     1      -4.311   3.340   0.945  0.00  0.00    +0.000 F 
ATOM     10  C   UNL     1      -2.151   4.101   0.390  0.00  0.00    +0.000 A 
ATOM     11  C   UNL     1      -1.348   4.872  -0.467  0.00  0.00    +0.000 A 
ENDBRANCH   1   2
BRANCH   1  15
ATOM     12  C   UNL     1       3.075   0.835  -0.969  0.00  0.00    +0.000 C 
ATOM     13  C   UNL     1       3.856   1.963  -0.284  0.00  0.00    +0.000 C 
ATOM     14  C   UNL     1       2.931   2.966   0.411  0.00  0.00    +0.000 C 
ATOM     15  N   UNL     1       1.904   3.529  -0.482  0.00  0.00    +0.000 NA
ATOM     16  C   UNL     1       1.146   2.478  -1.188  0.00  0.00    +0.000 C 
ATOM     17  C   UNL     1       2.055   1.480  -1.911  0.00  0.00    +0.000 C 
BRANCH  12  18
ATOM     18  C   UNL     1       2.448  -0.116   0.069  0.00  0.00    +0.000 C 
BRANCH  18  19
ATOM     19  N   UNL     1       1.707  -1.207  -0.555  0.00  0.00    +0.000 NA
ATOM     20  H   UNL     1       1.338  -1.825   0.167  0.00  0.00    +0.000 HD
ATOM     21  H   UNL     1       2.338  -1.775  -1.120  0.00  0.00    +0.000 HD
ENDBRANCH  18  19
ENDBRANCH  12  18
ENDBRANCH   1  15
TORSDOF 4
