REMARK  Name = 
REMARK  8 active torsions:
REMARK  status: ('A' for Active; 'I' for Inactive)
REMARK    1  A    between atoms: C_1  and  C_2
REMARK    2  A    between atoms: C_2  and  C_3
REMARK    3  A    between atoms: C_2  and  C_4
REMARK    4  A    between atoms: C_2  and  C_5
REMARK    5  A    between atoms: N_7  and  C_8
REMARK    6  A    between atoms: C_8  and  C_9
REMARK    7  A    between atoms: C_12  and  C_13
REMARK    8  A    between atoms: C_21  and  C_22
REMARK                            x       y       z     vdW  Elec       q    Type
REMARK                         _______ _______ _______ _____ _____    ______ ____
ROOT
ATOM      1  C   UNL     1       3.031  -0.694   1.202  0.00  0.00    +0.000 A 
ATOM      2  C   UNL     1       2.939  -2.049   1.490  0.00  0.00    +0.000 A 
ATOM      3  N   UNL     1       3.423  -2.281   2.754  0.00  0.00    +0.000 N 
ATOM      4  C   UNL     1       3.856  -1.099   3.301  0.00  0.00    +0.000 A 
ATOM      5  N   UNL     1       4.377  -0.959   4.537  0.00  0.00    +0.000 NA
ATOM      6  C   UNL     1       4.716   0.324   4.833  0.00  0.00    +0.000 A 
ATOM      7  C   UNL     1       4.570   1.425   3.994  0.00  0.00    +0.000 A 
ATOM      8  C   UNL     1       4.027   1.214   2.724  0.00  0.00    +0.000 A 
ATOM      9  C   UNL     1       3.644  -0.094   2.359  0.00  0.00    +0.000 A 
ENDROOT
BRANCH   7  10
ATOM     10  C   UNL     1       4.983   2.760   4.497  0.00  0.00    +0.000 C 
ATOM     11  N   UNL     1       4.828   3.848   3.683  0.00  0.00    +0.000 N 
ATOM     12  O   UNL     1       5.447   2.897   5.622  0.00  0.00    +0.000 OA
ATOM     13  H   UNL     1       4.453   3.834   2.748  0.00  0.00    +0.000 HD
ATOM     14  H   UNL     1       5.111   4.744   4.059  0.00  0.00    +0.000 HD
ENDBRANCH   7  10
BRANCH   1  16
ATOM     15  C   UNL     1       1.889  -1.003  -1.044  0.00  0.00    +0.000 C 
ATOM     16  C   UNL     1       2.558   0.000  -0.076  0.00  0.00    +0.000 C 
ATOM     17  C   UNL     1       3.748   0.642  -0.815  0.00  0.00    +0.000 C 
ATOM     18  C   UNL     1       1.509   1.088   0.240  0.00  0.00    +0.000 C 
ENDBRANCH   1  16
BRANCH   3  19
ATOM     19  C   UNL     1       3.306  -3.552   3.458  0.00  0.00    +0.000 C 
BRANCH  19  20
ATOM     20  C   UNL     1       4.463  -4.489   3.233  0.00  0.00    +0.000 A 
ATOM     21  C   UNL     1       5.760  -4.169   3.647  0.00  0.00    +0.000 A 
ATOM     22  C   UNL     1       6.774  -5.122   3.559  0.00  0.00    +0.000 A 
ATOM     23  C   UNL     1       6.458  -6.376   3.056  0.00  0.00    +0.000 A 
ATOM     24  N   UNL     1       5.217  -6.720   2.610  0.00  0.00    +0.000 NA
ATOM     25  C   UNL     1       4.260  -5.767   2.712  0.00  0.00    +0.000 A 
BRANCH  23  26
ATOM     26  C   UNL     1       7.504  -7.449   3.043  0.00  0.00    +0.000 C 
ATOM     27  N   UNL     1       7.106  -8.664   2.553  0.00  0.00    +0.000 N 
ATOM     28  O   UNL     1       8.641  -7.268   3.461  0.00  0.00    +0.000 OA
ATOM     29  H   UNL     1       6.146  -8.796   2.259  0.00  0.00    +0.000 HD
ATOM     30  H   UNL     1       7.752  -9.439   2.574  0.00  0.00    +0.000 HD
ENDBRANCH  23  26
ENDBRANCH  19  20
ENDBRANCH   3  19
TORSDOF 5
