REMARK  Name = 
REMARK  8 active torsions:
REMARK  status: ('A' for Active; 'I' for Inactive)
REMARK    1  A    between atoms: C_1  and  C_2
REMARK    2  A    between atoms: C_2  and  N_3
REMARK    3  A    between atoms: N_3  and  C_4
REMARK    4  A    between atoms: C_4  and  C_5
REMARK    5  A    between atoms: C_8  and  C_9
REMARK    6  A    between atoms: C_9  and  N_10
REMARK    7  A    between atoms: C_11  and  C_13
REMARK    8  A    between atoms: C_20  and  C_22
REMARK                            x       y       z     vdW  Elec       q    Type
REMARK                         _______ _______ _______ _____ _____    ______ ____
ROOT
ATOM      1  C   UNL     1       1.886   1.173  -1.993  0.00  0.00    +0.000 C 
ENDROOT
BRANCH   1   2
ATOM      2  C   UNL     1       0.416   0.966  -1.754  0.00  0.00    +0.000 A 
ATOM      3  C   UNL     1      -0.355   2.010  -1.219  0.00  0.00    +0.000 A 
ATOM      4  C   UNL     1      -1.745   1.963  -1.269  0.00  0.00    +0.000 A 
ATOM      5  C   UNL     1      -2.393   0.857  -1.834  0.00  0.00    +0.000 A 
ATOM      6  C   UNL     1      -1.624  -0.219  -2.300  0.00  0.00    +0.000 A 
ATOM      7  C   UNL     1      -0.229  -0.171  -2.252  0.00  0.00    +0.000 A 
BRANCH   5   8
ATOM      8  C   UNL     1      -3.888   0.844  -1.990  0.00  0.00    +0.000 C 
BRANCH   8   9
ATOM      9  N   UNL     1      -4.309   1.418  -3.244  0.00  0.00    +0.000 N 
ATOM     10  C   UNL     1      -5.649   1.495  -3.558  0.00  0.00    +0.000 C 
ATOM     11  O   UNL     1      -6.533   1.088  -2.814  0.00  0.00    +0.000 OA
ATOM     12  H   UNL     1      -3.640   1.762  -3.926  0.00  0.00    +0.000 HD
BRANCH  10  13
ATOM     13  C   UNL     1      -5.928   2.106  -4.862  0.00  0.00    +0.000 A 
ATOM     14  C   UNL     1      -7.209   2.251  -5.370  0.00  0.00    +0.000 A 
ATOM     15  S   UNL     1      -7.164   3.017  -6.899  0.00  0.00    +0.000 S 
ATOM     16  C   UNL     1      -5.456   3.100  -6.785  0.00  0.00    +0.000 A 
ATOM     17  N   UNL     1      -4.916   2.598  -5.693  0.00  0.00    +0.000 NA
ENDBRANCH  10  13
ENDBRANCH   8   9
ENDBRANCH   5   8
ENDBRANCH   1   2
BRANCH   1  18
ATOM     18  N   UNL     1       2.893   0.709  -1.051  0.00  0.00    +0.000 N 
ATOM     19  C   UNL     1       4.269   0.717  -1.366  0.00  0.00    +0.000 C 
ATOM     20  O   UNL     1       5.105   0.314  -0.560  0.00  0.00    +0.000 OA
BRANCH  19  21
ATOM     21  C   UNL     1       4.725   1.258  -2.664  0.00  0.00    +0.000 A 
ATOM     22  C   UNL     1       4.288   2.441  -3.244  0.00  0.00    +0.000 A 
ATOM     23  S   UNL     1       5.077   2.835  -4.705  0.00  0.00    +0.000 S 
ATOM     24  C   UNL     1       6.145   1.530  -4.528  0.00  0.00    +0.000 A 
ATOM     25  N   UNL     1       7.189   1.368  -5.382  0.00  0.00    +0.000 NA
ATOM     26  C   UNL     1       7.963   0.381  -5.077  0.00  0.00    +0.000 A 
ATOM     27  N   UNL     1       7.755  -0.491  -4.041  0.00  0.00    +0.000 N 
ATOM     28  C   UNL     1       6.628  -0.454  -3.247  0.00  0.00    +0.000 A 
ATOM     29  O   UNL     1       6.340  -1.393  -2.509  0.00  0.00    +0.000 OA
ATOM     30  C   UNL     1       5.818   0.733  -3.444  0.00  0.00    +0.000 A 
ATOM     31  H   UNL     1       8.354  -1.296  -3.914  0.00  0.00    +0.000 HD
ENDBRANCH  19  21
BRANCH  18  33
ATOM     32  C   UNL     1       2.500  -1.203   0.490  0.00  0.00    +0.000 C 
ATOM     33  C   UNL     1       2.516   0.308   0.307  0.00  0.00    +0.000 C 
ENDBRANCH  18  33
ENDBRANCH   1  18
TORSDOF 7
