REMARK  Name = 
REMARK  9 active torsions:
REMARK  status: ('A' for Active; 'I' for Inactive)
REMARK    1  A    between atoms: C_1  and  O_2
REMARK    2  A    between atoms: O_2  and  C_3
REMARK    3  A    between atoms: C_10  and  C_11
REMARK    4  A    between atoms: N_13  and  C_14
REMARK    5  A    between atoms: C_14  and  C_15
REMARK    6  A    between atoms: C_18  and  C_19
REMARK    7  A    between atoms: C_19  and  N_20
REMARK    8  A    between atoms: N_20  and  C_21
REMARK    9  A    between atoms: C_21  and  C_22
REMARK                            x       y       z     vdW  Elec       q    Type
REMARK                         _______ _______ _______ _____ _____    ______ ____
ROOT
ATOM      1  C   UNL     1       2.910   1.615   3.042  0.00  0.00    +0.000 C 
ENDROOT
BRANCH   1   2
ATOM      2  C   UNL     1       1.831   2.498   2.470  0.00  0.00    +0.000 A 
ATOM      3  C   UNL     1       0.596   1.961   2.086  0.00  0.00    +0.000 A 
ATOM      4  C   UNL     1      -0.387   2.773   1.507  0.00  0.00    +0.000 A 
ATOM      5  C   UNL     1      -0.157   4.140   1.298  0.00  0.00    +0.000 A 
ATOM      6  C   UNL     1       1.076   4.678   1.692  0.00  0.00    +0.000 A 
ATOM      7  C   UNL     1       2.060   3.865   2.266  0.00  0.00    +0.000 A 
BRANCH   5   8
ATOM      8  C   UNL     1      -1.199   5.008   0.623  0.00  0.00    +0.000 C 
BRANCH   8   9
ATOM      9  N   UNL     1      -2.455   5.024   1.371  0.00  0.00    +0.000 NA
ATOM     10  H   UNL     1      -2.276   5.406   2.301  0.00  0.00    +0.000 HD
BRANCH   9  11
ATOM     11  C   UNL     1      -3.453   5.884   0.716  0.00  0.00    +0.000 C 
BRANCH  11  12
ATOM     12  C   UNL     1      -4.762   5.927   1.483  0.00  0.00    +0.000 A 
ATOM     13  C   UNL     1      -5.482   4.754   1.709  0.00  0.00    +0.000 A 
ATOM     14  C   UNL     1      -6.674   4.819   2.427  0.00  0.00    +0.000 A 
ATOM     15  C   UNL     1      -7.120   6.048   2.892  0.00  0.00    +0.000 A 
ATOM     16  C   UNL     1      -6.352   7.168   2.621  0.00  0.00    +0.000 A 
ATOM     17  N   UNL     1      -5.188   7.137   1.932  0.00  0.00    +0.000 NA
ENDBRANCH  11  12
ENDBRANCH   9  11
ENDBRANCH   8   9
ENDBRANCH   5   8
ENDBRANCH   1   2
BRANCH   1  20
ATOM     18  C   UNL     1       4.758   0.185   2.282  0.00  0.00    +0.000 C 
ATOM     19  O   UNL     1       4.997  -0.156   3.438  0.00  0.00    +0.000 OA
ATOM     20  N   UNL     1       3.743   1.062   2.000  0.00  0.00    +0.000 N 
ATOM     21  H   UNL     1       3.587   1.377   1.052  0.00  0.00    +0.000 HD
BRANCH  18  29
ATOM     22  C   UNL     1       4.564   0.557  -1.144  0.00  0.00    +0.000 A 
ATOM     23  N   UNL     1       4.728   0.531  -2.483  0.00  0.00    +0.000 NA
ATOM     24  C   UNL     1       5.732  -0.193  -2.983  0.00  0.00    +0.000 A 
ATOM     25  N   UNL     1       6.613  -0.914  -2.297  0.00  0.00    +0.000 NA
ATOM     26  C   UNL     1       6.422  -0.855  -0.969  0.00  0.00    +0.000 A 
ATOM     27  S   UNL     1       7.458  -1.719   0.061  0.00  0.00    +0.000 S 
ATOM     28  C   UNL     1       6.623  -1.175   1.436  0.00  0.00    +0.000 A 
ATOM     29  C   UNL     1       5.554  -0.332   1.153  0.00  0.00    +0.000 A 
ATOM     30  C   UNL     1       5.434  -0.144  -0.292  0.00  0.00    +0.000 A 
BRANCH  22  32
ATOM     31  C   UNL     1       2.456   1.479  -1.541  0.00  0.00    +0.000 C 
ATOM     32  O   UNL     1       3.550   1.342  -0.635  0.00  0.00    +0.000 OA
ENDBRANCH  22  32
ENDBRANCH  18  29
ENDBRANCH   1  20
TORSDOF 8
