REMARK  Name = 
REMARK  6 active torsions:
REMARK  status: ('A' for Active; 'I' for Inactive)
REMARK    1  A    between atoms: C_1  and  C_2
REMARK    2  A    between atoms: C_2  and  C_3
REMARK    3  A    between atoms: C_2  and  C_4
REMARK    4  A    between atoms: C_2  and  C_15
REMARK    5  A    between atoms: C_5  and  C_6
REMARK    6  A    between atoms: C_9  and  C_10
REMARK                            x       y       z     vdW  Elec       q    Type
REMARK                         _______ _______ _______ _____ _____    ______ ____
ROOT
ATOM      1  C   UNL     1       2.995   0.389   1.304  0.00  0.00    +0.000 C 
ATOM      2  C   UNL     1       2.261   0.657   2.402  0.00  0.00    +0.000 C 
ENDROOT
BRANCH   2   3
ATOM      3  C   UNL     1       2.822   0.922   3.733  0.00  0.00    +0.000 A 
ATOM      4  C   UNL     1       2.001   1.212   4.826  0.00  0.00    +0.000 A 
ATOM      5  N   UNL     1       2.471   1.468   6.075  0.00  0.00    +0.000 NA
ATOM      6  C   UNL     1       3.828   1.415   6.184  0.00  0.00    +0.000 A 
ATOM      7  C   UNL     1       4.654   1.121   5.106  0.00  0.00    +0.000 A 
ATOM      8  N   UNL     1       4.169   0.869   3.866  0.00  0.00    +0.000 NA
BRANCH   6   9
ATOM      9  C   UNL     1       4.437   1.696   7.511  0.00  0.00    +0.000 C 
ATOM     10  N   UNL     1       3.577   1.986   8.536  0.00  0.00    +0.000 N 
ATOM     11  O   UNL     1       5.653   1.671   7.686  0.00  0.00    +0.000 OA
ATOM     12  H   UNL     1       2.577   2.012   8.384  0.00  0.00    +0.000 HD
ATOM     13  H   UNL     1       3.962   2.191   9.447  0.00  0.00    +0.000 HD
ENDBRANCH   6   9
ENDBRANCH   2   3
BRANCH   1  15
ATOM     14  C   UNL     1       0.923   0.125  -0.168  0.00  0.00    +0.000 C 
ATOM     15  C   UNL     1       2.469   0.087  -0.102  0.00  0.00    +0.000 C 
ATOM     16  C   UNL     1       2.976   1.218  -1.030  0.00  0.00    +0.000 C 
BRANCH  15  17
ATOM     17  C   UNL     1       2.951  -1.313  -0.545  0.00  0.00    +0.000 A 
ATOM     18  C   UNL     1       2.556  -2.457   0.183  0.00  0.00    +0.000 A 
ATOM     19  C   UNL     1       2.931  -3.745  -0.218  0.00  0.00    +0.000 A 
ATOM     20  C   UNL     1       3.718  -3.909  -1.349  0.00  0.00    +0.000 A 
ATOM     21  F   UNL     1       4.061  -5.144  -1.742  0.00  0.00    +0.000 F 
ATOM     22  C   UNL     1       4.144  -2.802  -2.065  0.00  0.00    +0.000 A 
ATOM     23  F   UNL     1       4.913  -2.957  -3.152  0.00  0.00    +0.000 F 
ATOM     24  C   UNL     1       3.774  -1.516  -1.670  0.00  0.00    +0.000 A 
ENDBRANCH  15  17
ENDBRANCH   1  15
TORSDOF 4
