REMARK  Name = 
REMARK  7 active torsions:
REMARK  status: ('A' for Active; 'I' for Inactive)
REMARK    1  A    between atoms: C_2  and  C_4
REMARK    2  A    between atoms: C_7  and  N_8
REMARK    3  A    between atoms: N_8  and  C_9
REMARK    4  A    between atoms: C_9  and  C_10
REMARK    5  A    between atoms: C_10  and  C_13
REMARK    6  A    between atoms: C_15  and  S_16
REMARK    7  A    between atoms: S_16  and  C_17
REMARK                            x       y       z     vdW  Elec       q    Type
REMARK                         _______ _______ _______ _____ _____    ______ ____
ROOT
ATOM      1  C   UNL     1       5.881  -3.014  -6.736  0.00  0.00    +0.000 C 
ATOM      2  F   UNL     1       7.200  -2.673  -6.598  0.00  0.00    +0.000 F 
ATOM      3  F   UNL     1       5.813  -4.327  -6.345  0.00  0.00    +0.000 F 
ENDROOT
BRANCH   1   4
ATOM      4  C   UNL     1       5.405  -2.829  -8.178  0.00  0.00    +0.000 A 
ATOM      5  C   UNL     1       6.085  -3.470  -9.217  0.00  0.00    +0.000 A 
ATOM      6  C   UNL     1       5.692  -3.234 -10.537  0.00  0.00    +0.000 A 
ATOM      7  C   UNL     1       4.631  -2.367 -10.784  0.00  0.00    +0.000 A 
ATOM      8  C   UNL     1       3.998  -1.782  -9.705  0.00  0.00    +0.000 A 
ATOM      9  N   UNL     1       4.352  -1.998  -8.421  0.00  0.00    +0.000 NA
BRANCH   6  10
ATOM     10  S   UNL     1       6.665  -3.835 -11.902  0.00  0.00    +0.000 S 
BRANCH  10  11
ATOM     11  C   UNL     1       5.825  -5.417 -12.269  0.00  0.00    +0.000 C 
ATOM     12  C   UNL     1       6.412  -6.058 -13.550  0.00  0.00    +0.000 C 
ATOM     13  N   UNL     1       5.043  -6.298 -14.046  0.00  0.00    +0.000 NA
ATOM     14  C   UNL     1       4.526  -5.297 -13.087  0.00  0.00    +0.000 C 
ATOM     15  H   UNL     1       4.710  -7.249 -13.885  0.00  0.00    +0.000 HD
ENDBRANCH  10  11
ENDBRANCH   6  10
ENDBRANCH   1   4
BRANCH   1  16
ATOM     16  C   UNL     1       5.038  -2.171  -5.742  0.00  0.00    +0.000 C 
BRANCH  16  17
ATOM     17  N   UNL     1       5.450  -2.299  -4.326  0.00  0.00    +0.000 N 
ATOM     18  H   UNL     1       5.741  -3.238  -4.057  0.00  0.00    +0.000 HD
BRANCH  17  22
ATOM     19  C   UNL     1       3.517  -0.168  -1.230  0.00  0.00    +0.000 A 
ATOM     20  C   UNL     1       3.087  -0.005  -2.549  0.00  0.00    +0.000 A 
ATOM     21  C   UNL     1       3.709  -0.719  -3.582  0.00  0.00    +0.000 A 
ATOM     22  C   UNL     1       4.744  -1.628  -3.326  0.00  0.00    +0.000 A 
ATOM     23  C   UNL     1       5.178  -1.759  -1.998  0.00  0.00    +0.000 A 
ATOM     24  C   UNL     1       4.578  -1.034  -0.959  0.00  0.00    +0.000 A 
BRANCH  19  26
ATOM     25  N   UNL     1       1.596   0.964  -0.251  0.00  0.00    +0.000 N 
ATOM     26  C   UNL     1       2.904   0.588  -0.109  0.00  0.00    +0.000 C 
ATOM     27  O   UNL     1       3.523   0.837   0.919  0.00  0.00    +0.000 OA
ATOM     28  H   UNL     1       1.161   1.383   0.561  0.00  0.00    +0.000 HD
ATOM     29  H   UNL     1       0.993   0.568  -0.958  0.00  0.00    +0.000 HD
ENDBRANCH  19  26
ENDBRANCH  17  22
ENDBRANCH  16  17
ENDBRANCH   1  16
TORSDOF 7
