REMARK  Name = 
REMARK  9 active torsions:
REMARK  status: ('A' for Active; 'I' for Inactive)
REMARK    1  A    between atoms: C_1  and  N_2
REMARK    2  A    between atoms: N_5  and  C_6
REMARK    3  A    between atoms: C_10  and  C_11
REMARK    4  A    between atoms: C_11  and  C_12
REMARK    5  A    between atoms: C_11  and  C_13
REMARK    6  A    between atoms: C_11  and  C_14
REMARK    7  A    between atoms: C_14  and  N_15
REMARK    8  A    between atoms: N_15  and  C_16
REMARK    9  A    between atoms: C_19  and  C_20
REMARK                            x       y       z     vdW  Elec       q    Type
REMARK                         _______ _______ _______ _____ _____    ______ ____
ROOT
ATOM      1  C   UNL     1      -6.412   1.734   0.498  0.00  0.00    +0.000 C 
ATOM      2  C   UNL     1      -7.740   0.964   0.312  0.00  0.00    +0.000 C 
ATOM      3  C   UNL     1      -6.628   2.858   1.539  0.00  0.00    +0.000 C 
ENDROOT
BRANCH   1   8
ATOM      4  C   UNL     1      -3.019  -0.103   0.825  0.00  0.00    +0.000 A 
ATOM      5  C   UNL     1      -3.201  -0.727   2.062  0.00  0.00    +0.000 A 
ATOM      6  C   UNL     1      -4.421  -0.665   2.740  0.00  0.00    +0.000 A 
ATOM      7  C   UNL     1      -5.471   0.092   2.225  0.00  0.00    +0.000 A 
ATOM      8  C   UNL     1      -5.332   0.759   1.002  0.00  0.00    +0.000 A 
ATOM      9  C   UNL     1      -4.133   0.556   0.295  0.00  0.00    +0.000 A 
BRANCH   4  14
ATOM     10  C   UNL     1       1.638   1.864  -1.493  0.00  0.00    +0.000 C 
ATOM     11  N   UNL     1       0.678   0.863  -1.041  0.00  0.00    +0.000 NA
ATOM     12  C   UNL     1       0.452   0.967   0.416  0.00  0.00    +0.000 C 
ATOM     13  C   UNL     1      -0.537  -0.107   0.932  0.00  0.00    +0.000 C 
ATOM     14  N   UNL     1      -1.800  -0.040   0.184  0.00  0.00    +0.000 N 
ATOM     15  C   UNL     1      -1.650  -0.043  -1.282  0.00  0.00    +0.000 C 
ATOM     16  C   UNL     1      -0.620   1.020  -1.734  0.00  0.00    +0.000 C 
ENDBRANCH   4  14
ENDBRANCH   1   8
BRANCH   1  17
ATOM     17  C   UNL     1      -6.095   2.403  -0.878  0.00  0.00    +0.000 C 
BRANCH  17  18
ATOM     18  N   UNL     1      -4.909   3.276  -0.870  0.00  0.00    +0.000 N 
ATOM     19  H   UNL     1      -4.180   3.014  -0.205  0.00  0.00    +0.000 HD
BRANCH  18  20
ATOM     20  C   UNL     1      -4.413   3.742  -2.085  0.00  0.00    +0.000 A 
ATOM     21  C   UNL     1      -5.107   3.707  -3.285  0.00  0.00    +0.000 A 
ATOM     22  N   UNL     1      -4.698   4.267  -4.440  0.00  0.00    +0.000 NA
ATOM     23  C   UNL     1      -3.516   4.922  -4.373  0.00  0.00    +0.000 A 
ATOM     24  N   UNL     1      -2.736   5.031  -3.288  0.00  0.00    +0.000 NA
ATOM     25  C   UNL     1      -3.217   4.444  -2.168  0.00  0.00    +0.000 A 
BRANCH  23  26
ATOM     26  C   UNL     1      -3.095   5.624  -5.645  0.00  0.00    +0.000 C 
ATOM     27  N   UNL     1      -3.964   5.489  -6.704  0.00  0.00    +0.000 N 
ATOM     28  O   UNL     1      -2.064   6.279  -5.759  0.00  0.00    +0.000 OA
ATOM     29  H   UNL     1      -4.823   4.963  -6.590  0.00  0.00    +0.000 HD
ATOM     30  H   UNL     1      -3.751   5.950  -7.577  0.00  0.00    +0.000 HD
ENDBRANCH  23  26
ENDBRANCH  18  20
ENDBRANCH  17  18
ENDBRANCH   1  17
TORSDOF 6
