REMARK  Name = 
REMARK  5 active torsions:
REMARK  status: ('A' for Active; 'I' for Inactive)
REMARK    1  A    between atoms: C_2  and  C_4
REMARK    2  A    between atoms: C_7  and  N_8
REMARK    3  A    between atoms: N_8  and  C_9
REMARK    4  A    between atoms: C_9  and  C_10
REMARK    5  A    between atoms: C_15  and  N_16
REMARK                            x       y       z     vdW  Elec       q    Type
REMARK                         _______ _______ _______ _____ _____    ______ ____
ROOT
ATOM      1  C   UNL     1       4.752   5.546  -2.941  0.00  0.00    +0.000 C 
ATOM      2  C   UNL     1       4.746   6.670  -1.915  0.00  0.00    +0.000 C 
ATOM      3  C   UNL     1       3.467   6.287  -2.572  0.00  0.00    +0.000 C 
ENDROOT
BRANCH   1   4
ATOM      4  C   UNL     1       5.147   5.791  -4.394  0.00  0.00    +0.000 A 
ATOM      5  C   UNL     1       4.347   5.312  -5.448  0.00  0.00    +0.000 A 
ATOM      6  C   UNL     1       4.526   5.777  -6.748  0.00  0.00    +0.000 A 
ATOM      7  C   UNL     1       5.504   6.733  -7.007  0.00  0.00    +0.000 A 
ATOM      8  F   UNL     1       5.587   7.227  -8.254  0.00  0.00    +0.000 F 
ATOM      9  C   UNL     1       6.378   7.182  -6.008  0.00  0.00    +0.000 A 
ATOM     10  C   UNL     1       6.211   6.645  -4.722  0.00  0.00    +0.000 A 
BRANCH   9  11
ATOM     11  N   UNL     1       7.316   8.188  -6.172  0.00  0.00    +0.000 N 
ATOM     12  C   UNL     1       7.030   9.366  -7.001  0.00  0.00    +0.000 C 
ATOM     13  C   UNL     1       7.895   9.377  -8.263  0.00  0.00    +0.000 C 
ATOM     14  O   UNL     1       9.290   9.221  -7.947  0.00  0.00    +0.000 OA
ATOM     15  C   UNL     1       9.505   7.967  -7.276  0.00  0.00    +0.000 C 
ATOM     16  C   UNL     1       8.733   7.896  -5.948  0.00  0.00    +0.000 C 
ENDBRANCH   9  11
ENDBRANCH   1   4
BRANCH   1  17
ATOM     17  N   UNL     1       4.994   4.179  -2.458  0.00  0.00    +0.000 N 
ATOM     18  H   UNL     1       4.193   3.612  -2.201  0.00  0.00    +0.000 HD
BRANCH  17  22
ATOM     19  C   UNL     1       8.653   2.801  -0.823  0.00  0.00    +0.000 A 
ATOM     20  C   UNL     1       8.491   4.159  -1.098  0.00  0.00    +0.000 A 
ATOM     21  C   UNL     1       7.283   4.624  -1.633  0.00  0.00    +0.000 A 
ATOM     22  C   UNL     1       6.204   3.762  -1.865  0.00  0.00    +0.000 A 
ATOM     23  C   UNL     1       6.392   2.397  -1.606  0.00  0.00    +0.000 A 
ATOM     24  C   UNL     1       7.605   1.918  -1.094  0.00  0.00    +0.000 A 
BRANCH  19  26
ATOM     25  N   UNL     1      10.696   3.090   0.475  0.00  0.00    +0.000 N 
ATOM     26  C   UNL     1       9.929   2.257  -0.293  0.00  0.00    +0.000 C 
ATOM     27  O   UNL     1      10.272   1.099  -0.496  0.00  0.00    +0.000 OA
ATOM     28  H   UNL     1      11.504   2.672   0.916  0.00  0.00    +0.000 HD
ATOM     29  H   UNL     1      10.334   3.946   0.870  0.00  0.00    +0.000 HD
ENDBRANCH  19  26
ENDBRANCH  17  22
ENDBRANCH   1  17
TORSDOF 5
