REMARK  Name = 
REMARK  7 active torsions:
REMARK  status: ('A' for Active; 'I' for Inactive)
REMARK    1  A    between atoms: C_2  and  C_3
REMARK    2  A    between atoms: C_7  and  C_8
REMARK    3  A    between atoms: N_10  and  C_11
REMARK    4  A    between atoms: C_11  and  C_12
REMARK    5  A    between atoms: C_15  and  C_16
REMARK    6  A    between atoms: C_16  and  N_17
REMARK    7  A    between atoms: C_18  and  C_20
REMARK                            x       y       z     vdW  Elec       q    Type
REMARK                         _______ _______ _______ _____ _____    ______ ____
ROOT
ATOM      1  C   UNL     1       4.112   6.049   1.226  0.00  0.00    +0.000 A 
ATOM      2  C   UNL     1       5.259   6.666   1.745  0.00  0.00    +0.000 A 
ATOM      3  C   UNL     1       5.151   7.735   2.644  0.00  0.00    +0.000 A 
ATOM      4  C   UNL     1       3.895   8.197   3.060  0.00  0.00    +0.000 A 
ATOM      5  C   UNL     1       2.750   7.594   2.524  0.00  0.00    +0.000 A 
ATOM      6  C   UNL     1       2.857   6.525   1.629  0.00  0.00    +0.000 A 
ENDROOT
BRANCH   1   7
ATOM      7  C   UNL     1       4.216   4.905   0.250  0.00  0.00    +0.000 C 
BRANCH   7  10
ATOM      8  C   UNL     1       3.100   2.877   1.094  0.00  0.00    +0.000 C 
ATOM      9  O   UNL     1       1.990   3.268   0.749  0.00  0.00    +0.000 OA
ATOM     10  N   UNL     1       4.247   3.613   0.905  0.00  0.00    +0.000 N 
ATOM     11  H   UNL     1       5.117   3.311   1.320  0.00  0.00    +0.000 HD
BRANCH   8  16
ATOM     12  C   UNL     1       2.005   0.733   1.857  0.00  0.00    +0.000 C 
ATOM     13  C   UNL     1       2.435  -0.736   1.928  0.00  0.00    +0.000 C 
ATOM     14  C   UNL     1       3.830  -0.809   1.313  0.00  0.00    +0.000 C 
ATOM     15  C   UNL     1       4.184   0.607   0.878  0.00  0.00    +0.000 C 
ATOM     16  C   UNL     1       3.318   1.519   1.745  0.00  0.00    +0.000 C 
BRANCH  12  18
ATOM     17  N   UNL     1       0.618   1.416   3.986  0.00  0.00    +0.000 NA
ATOM     18  C   UNL     1       1.223   1.127   3.036  0.00  0.00    +0.000 C 
ENDBRANCH  12  18
ENDBRANCH   8  16
ENDBRANCH   7  10
ENDBRANCH   1   7
BRANCH   4  19
ATOM     19  C   UNL     1       3.766   9.328   4.052  0.00  0.00    +0.000 C 
BRANCH  19  20
ATOM     20  N   UNL     1       3.714  10.609   3.396  0.00  0.00    +0.000 N 
ATOM     21  C   UNL     1       3.640  11.779   4.113  0.00  0.00    +0.000 C 
ATOM     22  O   UNL     1       3.665  11.797   5.341  0.00  0.00    +0.000 OA
ATOM     23  H   UNL     1       3.430  10.609   2.423  0.00  0.00    +0.000 HD
BRANCH  21  24
ATOM     24  C   UNL     1       3.600  13.020   3.328  0.00  0.00    +0.000 A 
ATOM     25  C   UNL     1       4.045  14.211   3.886  0.00  0.00    +0.000 A 
ATOM     26  S   UNL     1       3.979  15.535   2.812  0.00  0.00    +0.000 S 
ATOM     27  C   UNL     1       3.302  14.575   1.582  0.00  0.00    +0.000 A 
ATOM     28  N   UNL     1       2.970  15.110   0.375  0.00  0.00    +0.000 NA
ATOM     29  C   UNL     1       2.440  14.272  -0.452  0.00  0.00    +0.000 A 
ATOM     30  N   UNL     1       2.220  12.949  -0.188  0.00  0.00    +0.000 N 
ATOM     31  C   UNL     1       2.564  12.356   1.004  0.00  0.00    +0.000 A 
ATOM     32  O   UNL     1       2.397  11.156   1.189  0.00  0.00    +0.000 OA
ATOM     33  C   UNL     1       3.150  13.258   1.978  0.00  0.00    +0.000 A 
ATOM     34  H   UNL     1       1.811  12.341  -0.881  0.00  0.00    +0.000 HD
ENDBRANCH  21  24
ENDBRANCH  19  20
ENDBRANCH   4  19
TORSDOF 7
