REMARK  Name = 
REMARK  7 active torsions:
REMARK  status: ('A' for Active; 'I' for Inactive)
REMARK    1  A    between atoms: C_1  and  O_2
REMARK    2  A    between atoms: O_2  and  C_3
REMARK    3  A    between atoms: C_10  and  C_11
REMARK    4  A    between atoms: N_13  and  C_14
REMARK    5  A    between atoms: C_14  and  C_15
REMARK    6  A    between atoms: C_18  and  C_19
REMARK    7  A    between atoms: C_20  and  C_21
REMARK                            x       y       z     vdW  Elec       q    Type
REMARK                         _______ _______ _______ _____ _____    ______ ____
ROOT
ATOM      1  C   UNL     1       4.461  -1.951  -1.262  0.00  0.00    +0.000 C 
ATOM      2  O   UNL     1       5.082  -2.945  -1.627  0.00  0.00    +0.000 OA
ATOM      3  N   UNL     1       3.538  -2.004  -0.251  0.00  0.00    +0.000 N 
ATOM      4  H   UNL     1       3.062  -1.157   0.014  0.00  0.00    +0.000 HD
ENDROOT
BRANCH   1  12
ATOM      5  C   UNL     1       3.032   1.129  -0.763  0.00  0.00    +0.000 A 
ATOM      6  N   UNL     1       2.681   2.424  -0.714  0.00  0.00    +0.000 NA
ATOM      7  C   UNL     1       3.322   3.273  -1.515  0.00  0.00    +0.000 A 
ATOM      8  N   UNL     1       4.275   2.978  -2.393  0.00  0.00    +0.000 NA
ATOM      9  C   UNL     1       4.596   1.672  -2.410  0.00  0.00    +0.000 A 
ATOM     10  S   UNL     1       5.787   1.103  -3.478  0.00  0.00    +0.000 S 
ATOM     11  C   UNL     1       5.616  -0.492  -2.905  0.00  0.00    +0.000 A 
ATOM     12  C   UNL     1       4.679  -0.625  -1.886  0.00  0.00    +0.000 A 
ATOM     13  C   UNL     1       4.045   0.668  -1.620  0.00  0.00    +0.000 A 
BRANCH   5  15
ATOM     14  C   UNL     1       1.115   0.723   0.492  0.00  0.00    +0.000 C 
ATOM     15  O   UNL     1       2.418   0.280   0.131  0.00  0.00    +0.000 OA
ENDBRANCH   5  15
ENDBRANCH   1  12
BRANCH   3  16
ATOM     16  C   UNL     1       3.189  -3.197   0.488  0.00  0.00    +0.000 C 
BRANCH  16  17
ATOM     17  C   UNL     1       2.129  -2.943   1.546  0.00  0.00    +0.000 A 
ATOM     18  C   UNL     1       0.767  -3.059   1.226  0.00  0.00    +0.000 A 
ATOM     19  C   UNL     1      -0.226  -2.793   2.180  0.00  0.00    +0.000 A 
ATOM     20  C   UNL     1       0.125  -2.381   3.466  0.00  0.00    +0.000 A 
ATOM     21  C   UNL     1       1.475  -2.285   3.806  0.00  0.00    +0.000 A 
ATOM     22  C   UNL     1       2.467  -2.579   2.860  0.00  0.00    +0.000 A 
BRANCH  20  23
ATOM     23  C   UNL     1      -0.874  -2.033   4.423  0.00  0.00    +0.000 C 
ATOM     24  C   UNL     1      -1.677  -1.697   5.263  0.00  0.00    +0.000 C 
BRANCH  24  25
ATOM     25  C   UNL     1      -2.572  -1.270   6.286  0.00  0.00    +0.000 A 
ATOM     26  C   UNL     1      -3.726  -1.990   6.586  0.00  0.00    +0.000 A 
ATOM     27  C   UNL     1      -4.558  -1.549   7.613  0.00  0.00    +0.000 A 
ATOM     28  C   UNL     1      -4.204  -0.399   8.303  0.00  0.00    +0.000 A 
ATOM     29  N   UNL     1      -3.097   0.326   8.034  0.00  0.00    +0.000 NA
ATOM     30  C   UNL     1      -2.306  -0.127   7.031  0.00  0.00    +0.000 A 
ENDBRANCH  24  25
ENDBRANCH  20  23
ENDBRANCH  16  17
ENDBRANCH   3  16
TORSDOF 6
