REMARK  Name = 
REMARK  7 active torsions:
REMARK  status: ('A' for Active; 'I' for Inactive)
REMARK    1  A    between atoms: C_1  and  O_2
REMARK    2  A    between atoms: O_2  and  C_3
REMARK    3  A    between atoms: C_5  and  C_6
REMARK    4  A    between atoms: C_11  and  O_12
REMARK    5  A    between atoms: O_12  and  C_13
REMARK    6  A    between atoms: C_13  and  C_14
REMARK    7  A    between atoms: C_18  and  C_19
REMARK                            x       y       z     vdW  Elec       q    Type
REMARK                         _______ _______ _______ _____ _____    ______ ____
ROOT
ATOM      1  O   UNL     1       4.689   0.076   1.711  0.00  0.00    +0.000 OA
ENDROOT
BRANCH   1   7
ATOM      2  C   UNL     1       3.214  -1.105   0.067  0.00  0.00    +0.000 A 
ATOM      3  C   UNL     1       3.036  -2.281  -0.676  0.00  0.00    +0.000 A 
ATOM      4  C   UNL     1       3.960  -3.338  -0.620  0.00  0.00    +0.000 A 
ATOM      5  C   UNL     1       5.085  -3.205   0.197  0.00  0.00    +0.000 A 
ATOM      6  C   UNL     1       5.268  -2.038   0.950  0.00  0.00    +0.000 A 
ATOM      7  C   UNL     1       4.344  -0.983   0.900  0.00  0.00    +0.000 A 
BRANCH   4   8
ATOM      8  C   UNL     1       3.675  -4.536  -1.465  0.00  0.00    +0.000 C 
ATOM      9  N   UNL     1       4.572  -5.568  -1.470  0.00  0.00    +0.000 N 
ATOM     10  O   UNL     1       2.655  -4.612  -2.140  0.00  0.00    +0.000 OA
ATOM     11  H   UNL     1       5.443  -5.585  -0.968  0.00  0.00    +0.000 HD
ATOM     12  H   UNL     1       4.348  -6.355  -2.061  0.00  0.00    +0.000 HD
ENDBRANCH   4   8
BRANCH   2  14
ATOM     13  C   UNL     1       1.037  -0.283  -0.500  0.00  0.00    +0.000 C 
ATOM     14  O   UNL     1       2.361  -0.042  -0.040  0.00  0.00    +0.000 OA
ENDBRANCH   2  14
ENDBRANCH   1   7
BRANCH   1  15
ATOM     15  C   UNL     1       3.738   1.130   1.848  0.00  0.00    +0.000 C 
BRANCH  15  16
ATOM     16  C   UNL     1       4.221   2.180   2.812  0.00  0.00    +0.000 A 
ATOM     17  C   UNL     1       3.470   2.528   3.927  0.00  0.00    +0.000 A 
ATOM     18  N   UNL     1       3.791   3.536   4.764  0.00  0.00    +0.000 NA
ATOM     19  C   UNL     1       4.915   4.236   4.469  0.00  0.00    +0.000 A 
ATOM     20  C   UNL     1       5.756   3.994   3.379  0.00  0.00    +0.000 A 
ATOM     21  C   UNL     1       5.377   2.925   2.552  0.00  0.00    +0.000 A 
BRANCH  20  22
ATOM     22  C   UNL     1       6.943   4.825   3.087  0.00  0.00    +0.000 A 
ATOM     23  C   UNL     1       8.098   4.270   2.500  0.00  0.00    +0.000 A 
ATOM     24  C   UNL     1       9.207   5.059   2.183  0.00  0.00    +0.000 A 
ATOM     25  C   UNL     1       9.182   6.417   2.462  0.00  0.00    +0.000 A 
ATOM     26  F   UNL     1      10.243   7.175   2.156  0.00  0.00    +0.000 F 
ATOM     27  C   UNL     1       8.070   6.999   3.052  0.00  0.00    +0.000 A 
ATOM     28  C   UNL     1       6.957   6.209   3.358  0.00  0.00    +0.000 A 
ENDBRANCH  20  22
ENDBRANCH  15  16
ENDBRANCH   1  15
TORSDOF 6
