REMARK  Name = 
REMARK  9 active torsions:
REMARK  status: ('A' for Active; 'I' for Inactive)
REMARK    1  A    between atoms: C_1  and  O_2
REMARK    2  A    between atoms: O_2  and  C_3
REMARK    3  A    between atoms: C_3  and  C_5
REMARK    4  A    between atoms: C_5  and  N_6
REMARK    5  A    between atoms: C_5  and  C_15
REMARK    6  A    between atoms: C_7  and  C_9
REMARK    7  A    between atoms: C_18  and  C_19
REMARK    8  A    between atoms: C_19  and  N_20
REMARK    9  A    between atoms: C_21  and  C_23
REMARK                            x       y       z     vdW  Elec       q    Type
REMARK                         _______ _______ _______ _____ _____    ______ ____
ROOT
ATOM      1  C   UNL     1       4.914  -1.195   2.371  0.00  0.00    +0.000 A 
ATOM      2  C   UNL     1       5.279  -0.382   3.453  0.00  0.00    +0.000 A 
ATOM      3  C   UNL     1       5.658  -0.951   4.676  0.00  0.00    +0.000 A 
ATOM      4  C   UNL     1       5.683  -2.343   4.841  0.00  0.00    +0.000 A 
ATOM      5  C   UNL     1       5.339  -3.156   3.757  0.00  0.00    +0.000 A 
ATOM      6  C   UNL     1       4.969  -2.591   2.537  0.00  0.00    +0.000 A 
ENDROOT
BRANCH   1   7
ATOM      7  C   UNL     1       4.409  -0.581   1.066  0.00  0.00    +0.000 C 
BRANCH   7   8
ATOM      8  N   UNL     1       3.049  -1.059   0.821  0.00  0.00    +0.000 N 
ATOM      9  C   UNL     1       2.078  -0.324   0.183  0.00  0.00    +0.000 C 
ATOM     10  O   UNL     1       2.265   0.813  -0.238  0.00  0.00    +0.000 OA
ATOM     11  H   UNL     1       2.710  -1.871   1.328  0.00  0.00    +0.000 HD
BRANCH   9  12
ATOM     12  C   UNL     1       0.736  -1.080  -0.010  0.00  0.00    +0.000 C 
ATOM     13  C   UNL     1      -0.425  -0.367   0.690  0.00  0.00    +0.000 C 
ATOM     14  C   UNL     1      -1.741  -1.109   0.452  0.00  0.00    +0.000 C 
ATOM     15  C   UNL     1      -1.614  -2.581   0.832  0.00  0.00    +0.000 C 
ATOM     16  C   UNL     1      -0.392  -3.224   0.182  0.00  0.00    +0.000 C 
ATOM     17  N   UNL     1       0.845  -2.489   0.473  0.00  0.00    +0.000 NA
ATOM     18  H   UNL     1       1.598  -2.936  -0.056  0.00  0.00    +0.000 HD
ENDBRANCH   9  12
ENDBRANCH   7   8
BRANCH   7  19
ATOM     19  C   UNL     1       5.346  -0.929  -0.121  0.00  0.00    +0.000 C 
ATOM     20  O   UNL     1       5.879  -2.018  -0.312  0.00  0.00    +0.000 OA
BRANCH  19  22
ATOM     21  C   UNL     1       6.310  -0.120  -2.104  0.00  0.00    +0.000 C 
ATOM     22  O   UNL     1       5.452   0.125  -0.986  0.00  0.00    +0.000 OA
ENDBRANCH  19  22
ENDBRANCH   7  19
ENDBRANCH   1   7
BRANCH   4  23
ATOM     23  C   UNL     1       5.989  -2.968   6.177  0.00  0.00    +0.000 C 
BRANCH  23  24
ATOM     24  N   UNL     1       4.774  -3.171   6.929  0.00  0.00    +0.000 N 
ATOM     25  C   UNL     1       4.798  -3.637   8.217  0.00  0.00    +0.000 C 
ATOM     26  O   UNL     1       5.851  -3.861   8.808  0.00  0.00    +0.000 OA
ATOM     27  H   UNL     1       3.908  -3.210   6.400  0.00  0.00    +0.000 HD
BRANCH  25  28
ATOM     28  C   UNL     1       3.498  -3.801   8.881  0.00  0.00    +0.000 A 
ATOM     29  C   UNL     1       3.431  -3.789  10.268  0.00  0.00    +0.000 A 
ATOM     30  S   UNL     1       1.849  -3.954  10.881  0.00  0.00    +0.000 S 
ATOM     31  C   UNL     1       1.201  -4.095   9.315  0.00  0.00    +0.000 A 
ATOM     32  N   UNL     1      -0.134  -4.294   9.131  0.00  0.00    +0.000 NA
ATOM     33  C   UNL     1      -0.488  -4.415   7.894  0.00  0.00    +0.000 A 
ATOM     34  N   UNL     1       0.371  -4.348   6.828  0.00  0.00    +0.000 N 
ATOM     35  C   UNL     1       1.721  -4.123   6.964  0.00  0.00    +0.000 A 
ATOM     36  O   UNL     1       2.450  -4.025   5.987  0.00  0.00    +0.000 OA
ATOM     37  C   UNL     1       2.171  -3.997   8.337  0.00  0.00    +0.000 A 
ATOM     38  H   UNL     1       0.027  -4.440   5.883  0.00  0.00    +0.000 HD
ENDBRANCH  25  28
ENDBRANCH  23  24
ENDBRANCH   4  23
TORSDOF 8
