REMARK  Name = 
REMARK  3 active torsions:
REMARK  status: ('A' for Active; 'I' for Inactive)
REMARK    1  A    between atoms: C_2  and  C_4
REMARK    2  A    between atoms: N_8  and  C_9
REMARK    3  A    between atoms: C_9  and  C_10
REMARK                            x       y       z     vdW  Elec       q    Type
REMARK                         _______ _______ _______ _____ _____    ______ ____
ROOT
ATOM      1  C   UNL     1       3.224  -0.978   0.819  0.00  0.00    +0.000 A 
ATOM      2  C   UNL     1       3.729  -0.133   1.803  0.00  0.00    +0.000 A 
ATOM      3  C   UNL     1       4.532  -0.672   2.807  0.00  0.00    +0.000 A 
ATOM      4  C   UNL     1       4.784  -2.043   2.835  0.00  0.00    +0.000 A 
ATOM      5  N   UNL     1       5.535  -2.536   3.903  0.00  0.00    +0.000 N 
ATOM      6  N   UNL     1       4.298  -2.871   1.891  0.00  0.00    +0.000 NA
ATOM      7  C   UNL     1       3.533  -2.328   0.908  0.00  0.00    +0.000 A 
ATOM      8  H   UNL     1       6.485  -2.184   3.852  0.00  0.00    +0.000 HD
ENDROOT
BRANCH   1  10
ATOM      9  N   UNL     1       2.413   0.811  -0.620  0.00  0.00    +0.000 N 
ATOM     10  C   UNL     1       2.351  -0.512  -0.281  0.00  0.00    +0.000 C 
ATOM     11  O   UNL     1       1.617  -1.284  -0.882  0.00  0.00    +0.000 OA
ATOM     12  H   UNL     1       1.869   1.094  -1.428  0.00  0.00    +0.000 HD
ATOM     13  H   UNL     1       3.147   1.431  -0.310  0.00  0.00    +0.000 HD
ENDBRANCH   1  10
BRANCH   5  14
ATOM     14  C   UNL     1       5.485  -3.979   4.103  0.00  0.00    +0.000 C 
BRANCH  14  15
ATOM     15  C   UNL     1       5.959  -4.324   5.495  0.00  0.00    +0.000 A 
ATOM     16  C   UNL     1       5.858  -3.439   6.576  0.00  0.00    +0.000 A 
ATOM     17  C   UNL     1       6.255  -3.839   7.848  0.00  0.00    +0.000 A 
ATOM     18  C   UNL     1       6.730  -5.128   8.008  0.00  0.00    +0.000 A 
ATOM     19  N   UNL     1       6.828  -6.021   7.000  0.00  0.00    +0.000 NA
ATOM     20  C   UNL     1       6.434  -5.602   5.774  0.00  0.00    +0.000 A 
ENDBRANCH  14  15
ENDBRANCH   5  14
TORSDOF 3
