REMARK  Name = 
REMARK  6 active torsions:
REMARK  status: ('A' for Active; 'I' for Inactive)
REMARK    1  A    between atoms: N_1  and  C_2
REMARK    2  A    between atoms: C_2  and  C_3
REMARK    3  A    between atoms: C_3  and  C_4
REMARK    4  A    between atoms: C_7  and  C_8
REMARK    5  A    between atoms: C_8  and  N_9
REMARK    6  A    between atoms: C_14  and  C_15
REMARK                            x       y       z     vdW  Elec       q    Type
REMARK                         _______ _______ _______ _____ _____    ______ ____
ROOT
ATOM      1  N   UNL     1       9.512   2.235  -1.098  0.00  0.00    +0.000 N 
ATOM      2  N   UNL     1       9.801   3.431  -0.541  0.00  0.00    +0.000 NA
ATOM      3  N   UNL     1       9.677   4.344  -1.495  0.00  0.00    +0.000 NA
ATOM      4  C   UNL     1       9.426   3.695  -2.672  0.00  0.00    +0.000 A 
ATOM      5  C   UNL     1       9.103   4.192  -3.939  0.00  0.00    +0.000 A 
ATOM      6  C   UNL     1       8.900   3.283  -4.994  0.00  0.00    +0.000 A 
ATOM      7  C   UNL     1       9.077   1.905  -4.782  0.00  0.00    +0.000 A 
ATOM      8  C   UNL     1       9.361   1.391  -3.508  0.00  0.00    +0.000 A 
ATOM      9  C   UNL     1       9.480   2.321  -2.473  0.00  0.00    +0.000 A 
ENDROOT
BRANCH   6  10
ATOM     10  C   UNL     1       8.441   3.858  -6.291  0.00  0.00    +0.000 C 
ATOM     11  N   UNL     1       8.279   3.033  -7.367  0.00  0.00    +0.000 N 
ATOM     12  O   UNL     1       8.191   5.052  -6.407  0.00  0.00    +0.000 OA
ATOM     13  H   UNL     1       8.479   2.043  -7.386  0.00  0.00    +0.000 HD
ATOM     14  H   UNL     1       7.951   3.465  -8.219  0.00  0.00    +0.000 HD
ENDBRANCH   6  10
BRANCH   1  15
ATOM     15  C   UNL     1       8.852   1.222  -0.285  0.00  0.00    +0.000 C 
BRANCH  15  19
ATOM     16  C   UNL     1       4.589   1.869  -0.781  0.00  0.00    +0.000 A 
ATOM     17  C   UNL     1       5.235   0.836  -1.471  0.00  0.00    +0.000 A 
ATOM     18  C   UNL     1       6.599   0.594  -1.280  0.00  0.00    +0.000 A 
ATOM     19  C   UNL     1       7.346   1.380  -0.392  0.00  0.00    +0.000 A 
ATOM     20  C   UNL     1       6.692   2.404   0.311  0.00  0.00    +0.000 A 
ATOM     21  C   UNL     1       5.327   2.642   0.122  0.00  0.00    +0.000 A 
BRANCH  16  22
ATOM     22  C   UNL     1       3.123   2.154  -1.011  0.00  0.00    +0.000 C 
BRANCH  22  23
ATOM     23  C   UNL     1       2.223   1.369  -0.052  0.00  0.00    +0.000 C 
BRANCH  23  24
ATOM     24  N   UNL     1       0.810   1.662  -0.295  0.00  0.00    +0.000 NA
ATOM     25  H   UNL     1       0.237   1.117   0.349  0.00  0.00    +0.000 HD
ATOM     26  H   UNL     1       0.551   1.359  -1.233  0.00  0.00    +0.000 HD
ENDBRANCH  23  24
ENDBRANCH  22  23
ENDBRANCH  16  22
ENDBRANCH  15  19
ENDBRANCH   1  15
TORSDOF 6
