REMARK  Name = 
REMARK  8 active torsions:
REMARK  status: ('A' for Active; 'I' for Inactive)
REMARK    1  A    between atoms: C_1  and  C_2
REMARK    2  A    between atoms: C_2  and  N_3
REMARK    3  A    between atoms: C_2  and  C_17
REMARK    4  A    between atoms: C_4  and  C_6
REMARK    5  A    between atoms: N_12  and  C_13
REMARK    6  A    between atoms: C_20  and  C_21
REMARK    7  A    between atoms: C_21  and  N_22
REMARK    8  A    between atoms: C_27  and  C_28
REMARK                            x       y       z     vdW  Elec       q    Type
REMARK                         _______ _______ _______ _____ _____    ______ ____
ROOT
ATOM      1  C   UNL     1       3.253   0.911  -1.097  0.00  0.00    +0.000 C 
ATOM      2  C   UNL     1       2.586   0.130   0.041  0.00  0.00    +0.000 C 
ENDROOT
BRANCH   2   3
ATOM      3  C   UNL     1       2.975   0.720   1.396  0.00  0.00    +0.000 A 
ATOM      4  C   UNL     1       3.103  -0.108   2.509  0.00  0.00    +0.000 A 
ATOM      5  C   UNL     1       3.471   0.450   3.736  0.00  0.00    +0.000 A 
ATOM      6  C   UNL     1       3.704   1.824   3.838  0.00  0.00    +0.000 A 
ATOM      7  C   UNL     1       3.532   2.575   2.681  0.00  0.00    +0.000 A 
ATOM      8  N   UNL     1       3.176   2.061   1.480  0.00  0.00    +0.000 NA
BRANCH   6   9
ATOM      9  C   UNL     1       4.115   2.487   5.128  0.00  0.00    +0.000 C 
BRANCH   9  10
ATOM     10  N   UNL     1       2.943   2.897   5.872  0.00  0.00    +0.000 N 
ATOM     11  C   UNL     1       3.180   3.576   7.055  0.00  0.00    +0.000 A 
ATOM     12  N   UNL     1       4.284   4.318   7.210  0.00  0.00    +0.000 NA
ATOM     13  C   UNL     1       4.432   4.988   8.367  0.00  0.00    +0.000 A 
ATOM     14  C   UNL     1       3.513   4.948   9.383  0.00  0.00    +0.000 A 
ATOM     15  C   UNL     1       2.420   4.149   9.138  0.00  0.00    +0.000 A 
ATOM     16  N   UNL     1       2.236   3.454   7.993  0.00  0.00    +0.000 NA
ATOM     17  H   UNL     1       2.268   2.168   6.064  0.00  0.00    +0.000 HD
BRANCH  15  18
ATOM     18  C   UNL     1       1.385   4.013  10.123  0.00  0.00    +0.000 C 
ATOM     19  N   UNL     1       0.573   3.929  10.949  0.00  0.00    +0.000 NA
ENDBRANCH  15  18
ENDBRANCH   9  10
ENDBRANCH   6   9
ENDBRANCH   2   3
BRANCH   2  20
ATOM     20  N   UNL     1       1.144   0.131  -0.150  0.00  0.00    +0.000 N 
ATOM     21  C   UNL     1       0.325  -0.885   0.274  0.00  0.00    +0.000 C 
ATOM     22  O   UNL     1       0.765  -1.948   0.704  0.00  0.00    +0.000 OA
ATOM     23  H   UNL     1       0.742   1.060  -0.243  0.00  0.00    +0.000 HD
BRANCH  21  24
ATOM     24  C   UNL     1      -1.120  -0.646   0.156  0.00  0.00    +0.000 A 
ATOM     25  C   UNL     1      -2.004  -1.700  -0.036  0.00  0.00    +0.000 A 
ATOM     26  S   UNL     1      -3.644  -1.215  -0.072  0.00  0.00    +0.000 S 
ATOM     27  C   UNL     1      -3.225   0.414   0.194  0.00  0.00    +0.000 A 
ATOM     28  N   UNL     1      -4.178   1.377   0.340  0.00  0.00    +0.000 NA
ATOM     29  C   UNL     1      -3.708   2.558   0.574  0.00  0.00    +0.000 A 
ATOM     30  N   UNL     1      -2.370   2.892   0.649  0.00  0.00    +0.000 N 
ATOM     31  C   UNL     1      -1.939   4.254   0.865  0.00  0.00    +0.000 C 
ATOM     32  C   UNL     1      -1.380   1.951   0.424  0.00  0.00    +0.000 A 
ATOM     33  O   UNL     1      -0.196   2.249   0.329  0.00  0.00    +0.000 OA
ATOM     34  C   UNL     1      -1.858   0.591   0.245  0.00  0.00    +0.000 A 
ENDBRANCH  21  24
ENDBRANCH   2  20
TORSDOF 6
