REMARK  Name = 
REMARK  5 active torsions:
REMARK  status: ('A' for Active; 'I' for Inactive)
REMARK    1  A    between atoms: C_1  and  N_2
REMARK    2  A    between atoms: C_10  and  C_11
REMARK    3  A    between atoms: C_11  and  O_12
REMARK    4  A    between atoms: O_12  and  C_13
REMARK    5  A    between atoms: C_16  and  C_17
REMARK                            x       y       z     vdW  Elec       q    Type
REMARK                         _______ _______ _______ _____ _____    ______ ____
ROOT
ATOM      1  C   UNL     1       1.935  -1.285  -1.205  0.00  0.00    +0.000 C 
ATOM      2  N   UNL     1       0.839  -0.403  -0.809  0.00  0.00    +0.000 NA
ATOM      3  C   UNL     1      -0.398  -0.730  -1.566  0.00  0.00    +0.000 C 
ATOM      4  C   UNL     1      -1.639   0.088  -1.106  0.00  0.00    +0.000 C 
ATOM      5  N   UNL     1      -1.808  -0.132   0.333  0.00  0.00    +0.000 N 
ATOM      6  C   UNL     1      -3.065  -0.029   0.908  0.00  0.00    +0.000 A 
ATOM      7  C   UNL     1      -3.286  -0.660   2.120  0.00  0.00    +0.000 A 
ATOM      8  C   UNL     1      -4.557  -0.631   2.634  0.00  0.00    +0.000 A 
ATOM      9  N   UNL     1      -5.578  -0.015   2.027  0.00  0.00    +0.000 NA
ATOM     10  C   UNL     1      -5.294   0.578   0.849  0.00  0.00    +0.000 A 
ATOM     11  N   UNL     1      -4.076   0.576   0.256  0.00  0.00    +0.000 NA
ATOM     12  C   UNL     1      -0.637   0.298   1.111  0.00  0.00    +0.000 C 
ATOM     13  C   UNL     1       0.586  -0.526   0.646  0.00  0.00    +0.000 C 
ENDROOT
BRANCH  10  14
ATOM     14  C   UNL     1      -6.452   1.239   0.129  0.00  0.00    +0.000 C 
BRANCH  14  15
ATOM     15  O   UNL     1      -6.655   2.574   0.613  0.00  0.00    +0.000 OA
BRANCH  15  16
ATOM     16  C   UNL     1      -7.736   3.248   0.121  0.00  0.00    +0.000 A 
ATOM     17  C   UNL     1      -8.632   2.786  -0.840  0.00  0.00    +0.000 A 
ATOM     18  C   UNL     1      -9.693   3.598  -1.245  0.00  0.00    +0.000 A 
ATOM     19  C   UNL     1      -9.822   4.856  -0.671  0.00  0.00    +0.000 A 
ATOM     20  N   UNL     1      -8.970   5.348   0.270  0.00  0.00    +0.000 NA
ATOM     21  C   UNL     1      -7.953   4.526   0.636  0.00  0.00    +0.000 A 
BRANCH  19  22
ATOM     22  C   UNL     1     -10.949   5.749  -1.094  0.00  0.00    +0.000 C 
ATOM     23  N   UNL     1     -10.994   6.968  -0.474  0.00  0.00    +0.000 N 
ATOM     24  O   UNL     1     -11.776   5.417  -1.934  0.00  0.00    +0.000 OA
ATOM     25  H   UNL     1     -10.291   7.209   0.215  0.00  0.00    +0.000 HD
ATOM     26  H   UNL     1     -11.728   7.623  -0.711  0.00  0.00    +0.000 HD
ENDBRANCH  19  22
ENDBRANCH  15  16
ENDBRANCH  14  15
ENDBRANCH  10  14
TORSDOF 4
