REMARK  Name = 
REMARK  7 active torsions:
REMARK  status: ('A' for Active; 'I' for Inactive)
REMARK    1  A    between atoms: C_2  and  C_3
REMARK    2  A    between atoms: C_7  and  N_8
REMARK    3  A    between atoms: N_8  and  C_9
REMARK    4  A    between atoms: C_9  and  C_10
REMARK    5  A    between atoms: C_13  and  C_14
REMARK    6  A    between atoms: C_14  and  N_15
REMARK    7  A    between atoms: C_16  and  C_18
REMARK                            x       y       z     vdW  Elec       q    Type
REMARK                         _______ _______ _______ _____ _____    ______ ____
ROOT
ATOM      1  C   UNL     1       4.231   3.935   0.091  0.00  0.00    +0.000 A 
ATOM      2  C   UNL     1       3.309   4.976   0.187  0.00  0.00    +0.000 A 
ATOM      3  C   UNL     1       3.768   6.293   0.145  0.00  0.00    +0.000 A 
ATOM      4  C   UNL     1       5.135   6.549   0.020  0.00  0.00    +0.000 A 
ATOM      5  C   UNL     1       5.984   5.451  -0.030  0.00  0.00    +0.000 A 
ATOM      6  N   UNL     1       5.565   4.165  -0.010  0.00  0.00    +0.000 NA
ENDROOT
BRANCH   1   7
ATOM      7  C   UNL     1       3.771   2.485   0.103  0.00  0.00    +0.000 C 
BRANCH   7   8
ATOM      8  N   UNL     1       3.653   1.975   1.470  0.00  0.00    +0.000 N 
ATOM      9  H   UNL     1       3.266   2.655   2.115  0.00  0.00    +0.000 HD
BRANCH   8  14
ATOM     10  C   UNL     1       2.409  -0.978   3.323  0.00  0.00    +0.000 A 
ATOM     11  C   UNL     1       2.583  -2.003   2.395  0.00  0.00    +0.000 A 
ATOM     12  C   UNL     1       3.115  -1.710   1.142  0.00  0.00    +0.000 A 
ATOM     13  C   UNL     1       3.457  -0.392   0.812  0.00  0.00    +0.000 A 
ATOM     14  C   UNL     1       3.259   0.661   1.715  0.00  0.00    +0.000 A 
ATOM     15  C   UNL     1       2.759   0.337   2.986  0.00  0.00    +0.000 A 
BRANCH  10  17
ATOM     16  N   UNL     1       1.447  -1.495   5.675  0.00  0.00    +0.000 NA
ATOM     17  C   UNL     1       1.879  -1.265   4.625  0.00  0.00    +0.000 C 
ENDBRANCH  10  17
ENDBRANCH   8  14
ENDBRANCH   7   8
ENDBRANCH   1   7
BRANCH   4  18
ATOM     18  C   UNL     1       5.684   7.942  -0.029  0.00  0.00    +0.000 C 
BRANCH  18  19
ATOM     19  N   UNL     1       5.956   8.451   1.290  0.00  0.00    +0.000 N 
ATOM     20  C   UNL     1       7.203   8.402   1.857  0.00  0.00    +0.000 C 
ATOM     21  O   UNL     1       8.172   7.933   1.265  0.00  0.00    +0.000 OA
ATOM     22  H   UNL     1       5.153   8.656   1.875  0.00  0.00    +0.000 HD
BRANCH  20  23
ATOM     23  C   UNL     1       7.337   9.007   3.188  0.00  0.00    +0.000 A 
ATOM     24  C   UNL     1       8.583   9.442   3.621  0.00  0.00    +0.000 A 
ATOM     25  S   UNL     1       8.559  10.153   5.170  0.00  0.00    +0.000 S 
ATOM     26  C   UNL     1       6.891   9.863   5.337  0.00  0.00    +0.000 A 
ATOM     27  N   UNL     1       6.232  10.213   6.475  0.00  0.00    +0.000 NA
ATOM     28  C   UNL     1       4.979   9.902   6.483  0.00  0.00    +0.000 A 
ATOM     29  N   UNL     1       4.321   9.285   5.450  0.00  0.00    +0.000 N 
ATOM     30  C   UNL     1       4.930   8.973   4.259  0.00  0.00    +0.000 A 
ATOM     31  O   UNL     1       4.286   8.527   3.313  0.00  0.00    +0.000 OA
ATOM     32  C   UNL     1       6.353   9.259   4.215  0.00  0.00    +0.000 A 
ATOM     33  H   UNL     1       3.332   9.096   5.510  0.00  0.00    +0.000 HD
ENDBRANCH  20  23
ENDBRANCH  18  19
ENDBRANCH   4  18
TORSDOF 7
