REMARK  Name = 
REMARK  7 active torsions:
REMARK  status: ('A' for Active; 'I' for Inactive)
REMARK    1  A    between atoms: C_2  and  C_19
REMARK    2  A    between atoms: N_3  and  C_4
REMARK    3  A    between atoms: C_4  and  C_5
REMARK    4  A    between atoms: C_8  and  O_9
REMARK    5  A    between atoms: O_9  and  C_10
REMARK    6  A    between atoms: C_10  and  C_11
REMARK    7  A    between atoms: C_11  and  N_12
REMARK                            x       y       z     vdW  Elec       q    Type
REMARK                         _______ _______ _______ _____ _____    ______ ____
ROOT
ATOM      1  O   UNL     1      -0.315   3.060  -1.763  0.00  0.00    +0.000 OA
ATOM      2  C   UNL     1       0.293   2.192  -2.384  0.00  0.00    +0.000 C 
ATOM      3  N   UNL     1       1.511   1.712  -1.987  0.00  0.00    +0.000 N 
ATOM      4  H   UNL     1       2.036   1.121  -2.620  0.00  0.00    +0.000 HD
ENDROOT
BRANCH   2   5
ATOM      5  C   UNL     1      -0.282   1.560  -3.578  0.00  0.00    +0.000 A 
ATOM      6  C   UNL     1      -1.657   1.532  -3.769  0.00  0.00    +0.000 A 
ATOM      7  S   UNL     1      -2.127   0.728  -5.200  0.00  0.00    +0.000 S 
ATOM      8  C   UNL     1      -0.508   0.434  -5.635  0.00  0.00    +0.000 A 
ATOM      9  N   UNL     1      -0.193  -0.209  -6.790  0.00  0.00    +0.000 NA
ATOM     10  C   UNL     1       1.078  -0.318  -7.014  0.00  0.00    +0.000 A 
ATOM     11  N   UNL     1       2.059   0.153  -6.181  0.00  0.00    +0.000 N 
ATOM     12  C   UNL     1       1.787   0.719  -4.965  0.00  0.00    +0.000 A 
ATOM     13  O   UNL     1       2.697   0.968  -4.173  0.00  0.00    +0.000 OA
ATOM     14  C   UNL     1       0.378   0.917  -4.693  0.00  0.00    +0.000 A 
ATOM     15  H   UNL     1       3.035   0.003  -6.390  0.00  0.00    +0.000 HD
ENDBRANCH   2   5
BRANCH   3  16
ATOM     16  C   UNL     1       2.256   2.245  -0.877  0.00  0.00    +0.000 C 
BRANCH  16  17
ATOM     17  C   UNL     1       3.184   3.359  -1.293  0.00  0.00    +0.000 A 
ATOM     18  C   UNL     1       2.738   4.685  -1.257  0.00  0.00    +0.000 A 
ATOM     19  C   UNL     1       3.589   5.740  -1.605  0.00  0.00    +0.000 A 
ATOM     20  C   UNL     1       4.900   5.487  -2.006  0.00  0.00    +0.000 A 
ATOM     21  C   UNL     1       5.339   4.163  -2.083  0.00  0.00    +0.000 A 
ATOM     22  C   UNL     1       4.490   3.104  -1.731  0.00  0.00    +0.000 A 
BRANCH  20  23
ATOM     23  O   UNL     1       5.808   6.439  -2.395  0.00  0.00    +0.000 OA
BRANCH  23  24
ATOM     24  C   UNL     1       5.636   7.739  -1.816  0.00  0.00    +0.000 C 
BRANCH  24  25
ATOM     25  C   UNL     1       6.727   8.688  -2.353  0.00  0.00    +0.000 C 
BRANCH  25  26
ATOM     26  N   UNL     1       6.771   9.982  -1.680  0.00  0.00    +0.000 NA
ATOM     27  C   UNL     1       7.705  10.954  -2.238  0.00  0.00    +0.000 C 
ATOM     28  C   UNL     1       7.484  12.084  -1.248  0.00  0.00    +0.000 C 
ATOM     29  C   UNL     1       5.968  12.105  -1.081  0.00  0.00    +0.000 C 
ATOM     30  C   UNL     1       5.516  10.692  -1.457  0.00  0.00    +0.000 C 
ENDBRANCH  25  26
ENDBRANCH  24  25
ENDBRANCH  23  24
ENDBRANCH  20  23
ENDBRANCH  16  17
ENDBRANCH   3  16
TORSDOF 7
