REMARK  Name = 
REMARK  10 active torsions:
REMARK  status: ('A' for Active; 'I' for Inactive)
REMARK    1  A    between atoms: C_1  and  O_2
REMARK    2  A    between atoms: O_2  and  C_3
REMARK    3  A    between atoms: C_10  and  C_11
REMARK    4  A    between atoms: N_13  and  C_14
REMARK    5  A    between atoms: C_14  and  C_15
REMARK    6  A    between atoms: C_18  and  C_19
REMARK    7  A    between atoms: C_19  and  O_20
REMARK    8  A    between atoms: O_20  and  C_21
REMARK    9  A    between atoms: C_21  and  C_22
REMARK   10  A    between atoms: N_25  and  C_26
REMARK                            x       y       z     vdW  Elec       q    Type
REMARK                         _______ _______ _______ _____ _____    ______ ____
ROOT
ATOM      1  C   UNL     1       3.437  -3.337   0.052  0.00  0.00    +0.000 C 
ENDROOT
BRANCH   1   2
ATOM      2  C   UNL     1       2.433  -3.271   1.176  0.00  0.00    +0.000 A 
ATOM      3  C   UNL     1       1.729  -4.424   1.553  0.00  0.00    +0.000 A 
ATOM      4  C   UNL     1       0.759  -4.372   2.554  0.00  0.00    +0.000 A 
ATOM      5  C   UNL     1       0.464  -3.165   3.191  0.00  0.00    +0.000 A 
ATOM      6  C   UNL     1       1.159  -2.008   2.811  0.00  0.00    +0.000 A 
ATOM      7  C   UNL     1       2.145  -2.062   1.820  0.00  0.00    +0.000 A 
BRANCH   5   8
ATOM      8  C   UNL     1      -0.646  -3.057   4.198  0.00  0.00    +0.000 C 
BRANCH   8   9
ATOM      9  O   UNL     1      -0.835  -4.258   4.962  0.00  0.00    +0.000 OA
BRANCH   9  10
ATOM     10  C   UNL     1      -1.887  -4.026   5.890  0.00  0.00    +0.000 C 
BRANCH  10  11
ATOM     11  C   UNL     1      -2.232  -5.225   6.781  0.00  0.00    +0.000 C 
ATOM     12  C   UNL     1      -3.379  -4.801   7.712  0.00  0.00    +0.000 C 
ATOM     13  C   UNL     1      -2.896  -3.800   8.767  0.00  0.00    +0.000 C 
ATOM     14  N   UNL     1      -1.827  -4.381   9.584  0.00  0.00    +0.000 NA
ATOM     15  C   UNL     1      -1.391  -3.427  10.605  0.00  0.00    +0.000 C 
ATOM     16  C   UNL     1      -0.678  -4.822   8.776  0.00  0.00    +0.000 C 
ATOM     17  C   UNL     1      -1.080  -5.765   7.638  0.00  0.00    +0.000 C 
ENDBRANCH  10  11
ENDBRANCH   9  10
ENDBRANCH   8   9
ENDBRANCH   5   8
ENDBRANCH   1   2
BRANCH   1  20
ATOM     18  C   UNL     1       3.503  -3.089  -2.401  0.00  0.00    +0.000 C 
ATOM     19  O   UNL     1       4.710  -3.306  -2.424  0.00  0.00    +0.000 OA
ATOM     20  N   UNL     1       2.807  -3.094  -1.224  0.00  0.00    +0.000 N 
ATOM     21  H   UNL     1       1.796  -3.020  -1.235  0.00  0.00    +0.000 HD
BRANCH  18  29
ATOM     22  C   UNL     1       0.204  -2.332  -3.035  0.00  0.00    +0.000 A 
ATOM     23  N   UNL     1      -0.974  -1.912  -3.539  0.00  0.00    +0.000 NA
ATOM     24  C   UNL     1      -1.035  -1.622  -4.840  0.00  0.00    +0.000 A 
ATOM     25  N   UNL     1      -0.050  -1.719  -5.729  0.00  0.00    +0.000 NA
ATOM     26  C   UNL     1       1.108  -2.132  -5.185  0.00  0.00    +0.000 A 
ATOM     27  S   UNL     1       2.474  -2.329  -6.175  0.00  0.00    +0.000 S 
ATOM     28  C   UNL     1       3.431  -2.788  -4.848  0.00  0.00    +0.000 A 
ATOM     29  C   UNL     1       2.750  -2.789  -3.635  0.00  0.00    +0.000 A 
ATOM     30  C   UNL     1       1.347  -2.440  -3.850  0.00  0.00    +0.000 A 
BRANCH  22  32
ATOM     31  C   UNL     1      -0.961  -2.457  -0.999  0.00  0.00    +0.000 C 
ATOM     32  O   UNL     1       0.259  -2.681  -1.703  0.00  0.00    +0.000 OA
ENDBRANCH  22  32
ENDBRANCH  18  29
ENDBRANCH   1  20
TORSDOF 8
