REMARK  Name = 
REMARK  9 active torsions:
REMARK  status: ('A' for Active; 'I' for Inactive)
REMARK    1  A    between atoms: C_1  and  O_2
REMARK    2  A    between atoms: O_2  and  C_3
REMARK    3  A    between atoms: C_10  and  C_11
REMARK    4  A    between atoms: N_13  and  C_14
REMARK    5  A    between atoms: C_14  and  C_15
REMARK    6  A    between atoms: C_18  and  C_19
REMARK    7  A    between atoms: C_19  and  N_20
REMARK    8  A    between atoms: N_20  and  C_21
REMARK    9  A    between atoms: C_21  and  C_22
REMARK                            x       y       z     vdW  Elec       q    Type
REMARK                         _______ _______ _______ _____ _____    ______ ____
ROOT
ATOM      1  C   UNL     1       1.763   3.513   0.570  0.00  0.00    +0.000 A 
ATOM      2  C   UNL     1       0.861   2.483   0.272  0.00  0.00    +0.000 A 
ATOM      3  C   UNL     1      -0.226   2.691  -0.590  0.00  0.00    +0.000 A 
ATOM      4  C   UNL     1      -0.508   3.958  -1.115  0.00  0.00    +0.000 A 
ATOM      5  C   UNL     1       0.336   5.016  -0.737  0.00  0.00    +0.000 A 
ATOM      6  C   UNL     1       1.470   4.793   0.078  0.00  0.00    +0.000 A 
ENDROOT
BRANCH   1   7
ATOM      7  C   UNL     1       3.001   3.203   1.391  0.00  0.00    +0.000 C 
BRANCH   7  10
ATOM      8  C   UNL     1       5.333   2.384   1.153  0.00  0.00    +0.000 C 
ATOM      9  O   UNL     1       5.489   2.416   2.363  0.00  0.00    +0.000 OA
ATOM     10  N   UNL     1       4.129   2.767   0.582  0.00  0.00    +0.000 N 
ATOM     11  H   UNL     1       4.027   2.751  -0.420  0.00  0.00    +0.000 HD
BRANCH   8  19
ATOM     12  C   UNL     1       5.623   1.919  -2.277  0.00  0.00    +0.000 A 
ATOM     13  N   UNL     1       6.023   1.682  -3.547  0.00  0.00    +0.000 NA
ATOM     14  C   UNL     1       7.280   1.312  -3.759  0.00  0.00    +0.000 A 
ATOM     15  N   UNL     1       8.218   1.137  -2.841  0.00  0.00    +0.000 NA
ATOM     16  C   UNL     1       7.783   1.375  -1.587  0.00  0.00    +0.000 A 
ATOM     17  S   UNL     1       8.854   1.177  -0.288  0.00  0.00    +0.000 S 
ATOM     18  C   UNL     1       7.660   1.637   0.829  0.00  0.00    +0.000 A 
ATOM     19  C   UNL     1       6.432   1.953   0.251  0.00  0.00    +0.000 A 
ATOM     20  C   UNL     1       6.508   1.778  -1.197  0.00  0.00    +0.000 A 
BRANCH  12  22
ATOM     21  C   UNL     1       3.809   2.950  -3.258  0.00  0.00    +0.000 C 
ATOM     22  O   UNL     1       4.306   2.293  -2.090  0.00  0.00    +0.000 OA
ENDBRANCH  12  22
ENDBRANCH   8  19
ENDBRANCH   7  10
ENDBRANCH   1   7
BRANCH   4  23
ATOM     23  C   UNL     1      -1.684   4.163  -2.065  0.00  0.00    +0.000 C 
BRANCH  23  24
ATOM     24  N   UNL     1      -2.961   3.809  -1.432  0.00  0.00    +0.000 NA
ATOM     25  H   UNL     1      -3.081   4.411  -0.618  0.00  0.00    +0.000 HD
BRANCH  24  26
ATOM     26  C   UNL     1      -4.123   3.999  -2.312  0.00  0.00    +0.000 C 
BRANCH  26  27
ATOM     27  C   UNL     1      -5.410   3.627  -1.601  0.00  0.00    +0.000 A 
ATOM     28  C   UNL     1      -5.618   2.335  -1.085  0.00  0.00    +0.000 A 
ATOM     29  C   UNL     1      -6.790   2.029  -0.383  0.00  0.00    +0.000 A 
ATOM     30  C   UNL     1      -7.765   3.004  -0.209  0.00  0.00    +0.000 A 
ATOM     31  F   UNL     1      -8.876   2.713   0.479  0.00  0.00    +0.000 F 
ATOM     32  C   UNL     1      -7.603   4.274  -0.744  0.00  0.00    +0.000 A 
ATOM     33  C   UNL     1      -6.434   4.571  -1.436  0.00  0.00    +0.000 A 
ATOM     34  F   UNL     1      -6.295   5.801  -1.952  0.00  0.00    +0.000 F 
ENDBRANCH  26  27
ENDBRANCH  24  26
ENDBRANCH  23  24
ENDBRANCH   4  23
TORSDOF 8
