REMARK  Name = 
REMARK  6 active torsions:
REMARK  status: ('A' for Active; 'I' for Inactive)
REMARK    1  A    between atoms: C_1  and  C_2
REMARK    2  A    between atoms: C_2  and  C_3
REMARK    3  A    between atoms: C_2  and  C_15
REMARK    4  A    between atoms: C_3  and  N_4
REMARK    5  A    between atoms: N_4  and  C_5
REMARK    6  A    between atoms: C_8  and  C_9
REMARK                            x       y       z     vdW  Elec       q    Type
REMARK                         _______ _______ _______ _____ _____    ______ ____
ROOT
ATOM      1  C   UNL     1       3.402  -3.626  -0.180  0.00  0.00    +0.000 A 
ATOM      2  N   UNL     1       4.236  -3.621  -1.244  0.00  0.00    +0.000 NA
ATOM      3  C   UNL     1       4.804  -4.794  -1.616  0.00  0.00    +0.000 A 
ATOM      4  C   UNL     1       4.596  -6.003  -0.969  0.00  0.00    +0.000 A 
ATOM      5  C   UNL     1       3.756  -5.998   0.145  0.00  0.00    +0.000 A 
ATOM      6  C   UNL     1       3.160  -4.804   0.537  0.00  0.00    +0.000 A 
ATOM      7  F   UNL     1       2.343  -4.803   1.603  0.00  0.00    +0.000 F 
ENDROOT
BRANCH   4   8
ATOM      8  C   UNL     1       5.217  -7.274  -1.410  0.00  0.00    +0.000 C 
ATOM      9  N   UNL     1       5.997  -7.282  -2.530  0.00  0.00    +0.000 N 
ATOM     10  O   UNL     1       5.029  -8.311  -0.784  0.00  0.00    +0.000 OA
ATOM     11  H   UNL     1       6.195  -6.500  -3.132  0.00  0.00    +0.000 HD
ATOM     12  H   UNL     1       6.386  -8.179  -2.798  0.00  0.00    +0.000 HD
ENDBRANCH   4   8
BRANCH   1  13
ATOM     13  N   UNL     1       2.807  -2.422   0.236  0.00  0.00    +0.000 N 
ATOM     14  H   UNL     1       1.811  -2.573   0.376  0.00  0.00    +0.000 HD
BRANCH  13  15
ATOM     15  C   UNL     1       3.077  -1.295  -0.646  0.00  0.00    +0.000 C 
BRANCH  15  17
ATOM     16  C   UNL     1       2.771   0.491   1.177  0.00  0.00    +0.000 C 
ATOM     17  C   UNL     1       2.320  -0.120  -0.113  0.00  0.00    +0.000 C 
BRANCH  17  18
ATOM     18  C   UNL     1       1.048   0.303  -0.720  0.00  0.00    +0.000 A 
ATOM     19  C   UNL     1       0.896   0.413  -2.108  0.00  0.00    +0.000 A 
ATOM     20  C   UNL     1      -0.317   0.840  -2.660  0.00  0.00    +0.000 A 
ATOM     21  C   UNL     1      -1.393   1.149  -1.830  0.00  0.00    +0.000 A 
ATOM     22  C   UNL     1      -1.258   1.033  -0.450  0.00  0.00    +0.000 A 
ATOM     23  C   UNL     1      -0.044   0.618   0.100  0.00  0.00    +0.000 A 
ENDBRANCH  17  18
ENDBRANCH  15  17
ENDBRANCH  13  15
ENDBRANCH   1  13
TORSDOF 5
