REMARK  Name = 
REMARK  7 active torsions:
REMARK  status: ('A' for Active; 'I' for Inactive)
REMARK    1  A    between atoms: N_1  and  C_2
REMARK    2  A    between atoms: C_2  and  C_3
REMARK    3  A    between atoms: C_6  and  O_7
REMARK    4  A    between atoms: O_7  and  C_8
REMARK    5  A    between atoms: C_8  and  C_9
REMARK    6  A    between atoms: C_9  and  C_10
REMARK    7  A    between atoms: C_13  and  C_14
REMARK                            x       y       z     vdW  Elec       q    Type
REMARK                         _______ _______ _______ _____ _____    ______ ____
ROOT
ATOM      1  C   UNL     1       3.942   6.214   4.601  0.00  0.00    +0.000 C 
ENDROOT
BRANCH   1   2
ATOM      2  C   UNL     1       3.050   6.171   5.816  0.00  0.00    +0.000 A 
ATOM      3  C   UNL     1       3.420   5.362   6.888  0.00  0.00    +0.000 A 
ATOM      4  N   UNL     1       2.749   5.278   8.057  0.00  0.00    +0.000 NA
ATOM      5  C   UNL     1       1.626   6.037   8.164  0.00  0.00    +0.000 A 
ATOM      6  C   UNL     1       1.147   6.858   7.158  0.00  0.00    +0.000 A 
ATOM      7  C   UNL     1       1.875   6.918   5.969  0.00  0.00    +0.000 A 
ATOM      8 BR   UNL     1       1.212   8.065   4.608  0.00  0.00    +0.000 Br
BRANCH   5   9
ATOM      9  C   UNL     1       0.899   5.967   9.472  0.00  0.00    +0.000 C 
ATOM     10  N   UNL     1       1.464   5.152  10.414  0.00  0.00    +0.000 N 
ATOM     11  O   UNL     1      -0.125   6.599   9.692  0.00  0.00    +0.000 OA
ATOM     12  H   UNL     1       2.316   4.647  10.192  0.00  0.00    +0.000 HD
ATOM     13  H   UNL     1       1.033   5.059  11.321  0.00  0.00    +0.000 HD
ENDBRANCH   5   9
ENDBRANCH   1   2
BRANCH   1  14
ATOM     14  C   UNL     1       3.534   5.269   3.471  0.00  0.00    +0.000 C 
BRANCH  14  15
ATOM     15  O   UNL     1       3.672   3.894   3.852  0.00  0.00    +0.000 OA
BRANCH  15  19
ATOM     16  C   UNL     1       2.636   0.958   1.030  0.00  0.00    +0.000 A 
ATOM     17  C   UNL     1       2.640   2.305   0.653  0.00  0.00    +0.000 A 
ATOM     18  C   UNL     1       2.987   3.304   1.565  0.00  0.00    +0.000 A 
ATOM     19  C   UNL     1       3.333   2.983   2.879  0.00  0.00    +0.000 A 
ATOM     20  C   UNL     1       3.344   1.638   3.259  0.00  0.00    +0.000 A 
ATOM     21  C   UNL     1       2.996   0.633   2.344  0.00  0.00    +0.000 A 
BRANCH  16  22
ATOM     22  C   UNL     1       2.204  -0.095   0.042  0.00  0.00    +0.000 C 
BRANCH  22  23
ATOM     23  N   UNL     1       3.004  -0.053  -1.179  0.00  0.00    +0.000 NA
ATOM     24  H   UNL     1       2.730  -0.824  -1.785  0.00  0.00    +0.000 HD
ATOM     25  H   UNL     1       3.981  -0.207  -0.936  0.00  0.00    +0.000 HD
ENDBRANCH  22  23
ENDBRANCH  16  22
ENDBRANCH  15  19
ENDBRANCH  14  15
ENDBRANCH   1  14
TORSDOF 7
