REMARK  Name = 
REMARK  7 active torsions:
REMARK  status: ('A' for Active; 'I' for Inactive)
REMARK    1  A    between atoms: C_1  and  N_2
REMARK    2  A    between atoms: N_2  and  C_3
REMARK    3  A    between atoms: C_3  and  C_4
REMARK    4  A    between atoms: C_7  and  C_8
REMARK    5  A    between atoms: C_8  and  N_9
REMARK    6  A    between atoms: C_10  and  C_12
REMARK    7  A    between atoms: C_19  and  C_21
REMARK                            x       y       z     vdW  Elec       q    Type
REMARK                         _______ _______ _______ _____ _____    ______ ____
ROOT
ATOM      1  C   UNL     1       2.221   2.343  -0.899  0.00  0.00    +0.000 A 
ATOM      2  C   UNL     1       0.924   2.084  -1.369  0.00  0.00    +0.000 A 
ATOM      3  C   UNL     1       0.001   3.121  -1.530  0.00  0.00    +0.000 A 
ATOM      4  C   UNL     1       0.362   4.444  -1.246  0.00  0.00    +0.000 A 
ATOM      5  C   UNL     1       1.664   4.704  -0.794  0.00  0.00    +0.000 A 
ATOM      6  C   UNL     1       2.588   3.666  -0.631  0.00  0.00    +0.000 A 
ENDROOT
BRANCH   1   7
ATOM      7  C   UNL     1       3.164   1.203  -0.593  0.00  0.00    +0.000 C 
BRANCH   7   9
ATOM      8  C   UNL     1       4.091   1.381  -2.935  0.00  0.00    +0.000 C 
ATOM      9  N   UNL     1       4.112   0.759  -1.617  0.00  0.00    +0.000 N 
ATOM     10  C   UNL     1       5.193  -0.103  -1.340  0.00  0.00    +0.000 C 
ATOM     11  O   UNL     1       6.062  -0.330  -2.179  0.00  0.00    +0.000 OA
BRANCH  10  12
ATOM     12  C   UNL     1       5.264  -0.782  -0.034  0.00  0.00    +0.000 A 
ATOM     13  C   UNL     1       4.198  -1.426   0.573  0.00  0.00    +0.000 A 
ATOM     14  S   UNL     1       4.600  -2.172   2.055  0.00  0.00    +0.000 S 
ATOM     15  C   UNL     1       6.246  -1.799   1.854  0.00  0.00    +0.000 A 
ATOM     16  N   UNL     1       7.176  -2.256   2.734  0.00  0.00    +0.000 NA
ATOM     17  C   UNL     1       8.393  -1.961   2.415  0.00  0.00    +0.000 A 
ATOM     18  N   UNL     1       8.758  -1.220   1.319  0.00  0.00    +0.000 N 
ATOM     19  C   UNL     1       7.841  -0.621   0.480  0.00  0.00    +0.000 A 
ATOM     20  O   UNL     1       8.192   0.221  -0.338  0.00  0.00    +0.000 OA
ATOM     21  C   UNL     1       6.468  -1.029   0.727  0.00  0.00    +0.000 A 
ATOM     22  H   UNL     1       9.723  -0.970   1.165  0.00  0.00    +0.000 HD
ENDBRANCH  10  12
ENDBRANCH   7   9
ENDBRANCH   1   7
BRANCH   4  23
ATOM     23  C   UNL     1      -0.639   5.560  -1.398  0.00  0.00    +0.000 C 
BRANCH  23  24
ATOM     24  N   UNL     1      -1.422   5.747  -0.202  0.00  0.00    +0.000 N 
ATOM     25  C   UNL     1      -2.366   6.745  -0.130  0.00  0.00    +0.000 C 
ATOM     26  O   UNL     1      -2.569   7.532  -1.048  0.00  0.00    +0.000 OA
ATOM     27  H   UNL     1      -1.328   5.083   0.552  0.00  0.00    +0.000 HD
BRANCH  25  28
ATOM     28  C   UNL     1      -3.120   6.796   1.110  0.00  0.00    +0.000 A 
ATOM     29  C   UNL     1      -3.064   6.043   2.274  0.00  0.00    +0.000 A 
ATOM     30  C   UNL     1      -4.043   6.538   3.172  0.00  0.00    +0.000 A 
ATOM     31  C   UNL     1      -4.679   7.583   2.544  0.00  0.00    +0.000 A 
ATOM     32  N   UNL     1      -4.117   7.732   1.305  0.00  0.00    +0.000 N 
ATOM     33  H   UNL     1      -4.377   8.424   0.611  0.00  0.00    +0.000 HD
ENDBRANCH  25  28
ENDBRANCH  23  24
ENDBRANCH   4  23
TORSDOF 6
