REMARK  Name = 
REMARK  9 active torsions:
REMARK  status: ('A' for Active; 'I' for Inactive)
REMARK    1  A    between atoms: C_1  and  C_2
REMARK    2  A    between atoms: C_2  and  C_3
REMARK    3  A    between atoms: C_2  and  C_4
REMARK    4  A    between atoms: C_2  and  C_18
REMARK    5  A    between atoms: C_4  and  N_5
REMARK    6  A    between atoms: N_5  and  C_6
REMARK    7  A    between atoms: C_11  and  S_12
REMARK    8  A    between atoms: S_12  and  C_13
REMARK    9  A    between atoms: C_21  and  O_22
REMARK                            x       y       z     vdW  Elec       q    Type
REMARK                         _______ _______ _______ _____ _____    ______ ____
ROOT
ATOM      1  N   UNL     1       2.572   2.467   0.588  0.00  0.00    +0.000 N 
ATOM      2  H   UNL     1       1.558   2.513   0.435  0.00  0.00    +0.000 HD
ENDROOT
BRANCH   1   3
ATOM      3  C   UNL     1       2.954   3.435   1.540  0.00  0.00    +0.000 A 
ATOM      4  C   UNL     1       4.169   3.359   2.227  0.00  0.00    +0.000 A 
ATOM      5  C   UNL     1       4.585   4.387   3.067  0.00  0.00    +0.000 A 
ATOM      6  C   UNL     1       3.800   5.534   3.215  0.00  0.00    +0.000 A 
ATOM      7 CL   UNL     1       4.490   6.818   4.146  0.00  0.00    +0.000 Cl
ATOM      8  C   UNL     1       2.564   5.647   2.552  0.00  0.00    +0.000 A 
ATOM      9  C   UNL     1       2.182   4.601   1.689  0.00  0.00    +0.000 A 
BRANCH   8  10
ATOM     10  S   UNL     1       1.602   7.154   2.480  0.00  0.00    +0.000 S 
BRANCH  10  11
ATOM     11  C   UNL     1       0.281   7.019   3.714  0.00  0.00    +0.000 C 
ATOM     12  C   UNL     1       0.738   7.013   5.169  0.00  0.00    +0.000 C 
ATOM     13  O   UNL     1      -0.092   5.860   5.463  0.00  0.00    +0.000 OA
ATOM     14  C   UNL     1      -0.368   5.681   4.046  0.00  0.00    +0.000 C 
ENDBRANCH  10  11
ENDBRANCH   8  10
ENDBRANCH   1   3
BRANCH   1  15
ATOM     15  C   UNL     1       2.967   1.088   0.916  0.00  0.00    +0.000 C 
BRANCH  15  17
ATOM     16  C   UNL     1       3.055   0.335  -1.490  0.00  0.00    +0.000 C 
ATOM     17  C   UNL     1       2.454   0.034  -0.103  0.00  0.00    +0.000 C 
ATOM     18  C   UNL     1       2.986  -1.331   0.393  0.00  0.00    +0.000 C 
BRANCH  17  19
ATOM     19  C   UNL     1       0.929  -0.014  -0.156  0.00  0.00    +0.000 A 
ATOM     20  C   UNL     1       0.244  -0.900  -0.986  0.00  0.00    +0.000 A 
ATOM     21  C   UNL     1      -1.145  -0.914  -0.957  0.00  0.00    +0.000 A 
ATOM     22  C   UNL     1      -1.792  -0.045  -0.113  0.00  0.00    +0.000 A 
ATOM     23  N   UNL     1      -1.124   0.816   0.675  0.00  0.00    +0.000 NA
ATOM     24  N   UNL     1       0.241   0.821   0.651  0.00  0.00    +0.000 NA
BRANCH  22  25
ATOM     25  O   UNL     1      -3.149   0.000  -0.016  0.00  0.00    +0.000 OA
ATOM     26  H   UNL     1      -3.510  -0.674  -0.616  0.00  0.00    +0.000 HD
ENDBRANCH  22  25
ENDBRANCH  17  19
ENDBRANCH  15  17
ENDBRANCH   1  15
TORSDOF 7
