REMARK  Name = 
REMARK  7 active torsions:
REMARK  status: ('A' for Active; 'I' for Inactive)
REMARK    1  A    between atoms: C_2  and  C_4
REMARK    2  A    between atoms: C_7  and  N_8
REMARK    3  A    between atoms: N_8  and  C_9
REMARK    4  A    between atoms: C_9  and  C_10
REMARK    5  A    between atoms: C_10  and  C_13
REMARK    6  A    between atoms: C_17  and  C_18
REMARK    7  A    between atoms: C_18  and  C_19
REMARK                            x       y       z     vdW  Elec       q    Type
REMARK                         _______ _______ _______ _____ _____    ______ ____
ROOT
ATOM      1  C   UNL     1       7.466   0.337   7.212  0.00  0.00    +0.000 C 
ENDROOT
BRANCH   1   2
ATOM      2  C   UNL     1       5.951   0.009   7.251  0.00  0.00    +0.000 C 
ATOM      3  F   UNL     1       5.237   1.172   7.263  0.00  0.00    +0.000 F 
ATOM      4  F   UNL     1       5.617  -0.610   6.077  0.00  0.00    +0.000 F 
BRANCH   2   5
ATOM      5  C   UNL     1       5.668  -0.852   8.464  0.00  0.00    +0.000 A 
ATOM      6  C   UNL     1       5.699  -2.249   8.374  0.00  0.00    +0.000 A 
ATOM      7  C   UNL     1       5.529  -3.032   9.517  0.00  0.00    +0.000 A 
ATOM      8  C   UNL     1       5.333  -2.424  10.758  0.00  0.00    +0.000 A 
ATOM      9  C   UNL     1       5.285  -1.030  10.871  0.00  0.00    +0.000 A 
ATOM     10  C   UNL     1       5.448  -0.252   9.717  0.00  0.00    +0.000 A 
BRANCH   9  11
ATOM     11  C   UNL     1       5.068  -0.371  12.211  0.00  0.00    +0.000 C 
BRANCH  11  12
ATOM     12  C   UNL     1       6.397  -0.093  12.910  0.00  0.00    +0.000 C 
ATOM     13  C   UNL     1       6.243   0.679  14.243  0.00  0.00    +0.000 C 
ATOM     14  C   UNL     1       7.390   1.606  13.823  0.00  0.00    +0.000 C 
ATOM     15  C   UNL     1       7.260   1.084  12.386  0.00  0.00    +0.000 C 
ENDBRANCH  11  12
ENDBRANCH   9  11
ENDBRANCH   2   5
ENDBRANCH   1   2
BRANCH   1  16
ATOM     16  N   UNL     1       7.855   1.182   6.073  0.00  0.00    +0.000 N 
ATOM     17  H   UNL     1       7.341   0.994   5.213  0.00  0.00    +0.000 HD
BRANCH  16  21
ATOM     18  C   UNL     1      11.805   2.526   5.481  0.00  0.00    +0.000 A 
ATOM     19  C   UNL     1      11.517   1.708   6.575  0.00  0.00    +0.000 A 
ATOM     20  C   UNL     1      10.213   1.238   6.773  0.00  0.00    +0.000 A 
ATOM     21  C   UNL     1       9.183   1.546   5.875  0.00  0.00    +0.000 A 
ATOM     22  C   UNL     1       9.486   2.389   4.798  0.00  0.00    +0.000 A 
ATOM     23  C   UNL     1      10.781   2.881   4.601  0.00  0.00    +0.000 A 
BRANCH  18  25
ATOM     24  N   UNL     1      14.218   2.321   5.711  0.00  0.00    +0.000 N 
ATOM     25  C   UNL     1      13.167   3.063   5.247  0.00  0.00    +0.000 C 
ATOM     26  O   UNL     1      13.356   4.105   4.633  0.00  0.00    +0.000 OA
ATOM     27  H   UNL     1      15.140   2.640   5.445  0.00  0.00    +0.000 HD
ATOM     28  H   UNL     1      14.115   1.353   5.980  0.00  0.00    +0.000 HD
ENDBRANCH  18  25
ENDBRANCH  16  21
ENDBRANCH   1  16
TORSDOF 7
