REMARK  Name = 
REMARK  10 active torsions:
REMARK  status: ('A' for Active; 'I' for Inactive)
REMARK    1  A    between atoms: N_1  and  C_2
REMARK    2  A    between atoms: C_2  and  C_3
REMARK    3  A    between atoms: C_3  and  N_4
REMARK    4  A    between atoms: N_4  and  C_5
REMARK    5  A    between atoms: C_5  and  C_6
REMARK    6  A    between atoms: C_9  and  C_10
REMARK    7  A    between atoms: C_10  and  C_11
REMARK    8  A    between atoms: C_14  and  C_15
REMARK    9  A    between atoms: C_15  and  N_16
REMARK   10  A    between atoms: C_17  and  C_19
REMARK                            x       y       z     vdW  Elec       q    Type
REMARK                         _______ _______ _______ _____ _____    ______ ____
ROOT
ATOM      1  C   UNL     1      11.345  -2.846   1.804  0.00  0.00    +0.000 A 
ATOM      2  C   UNL     1      11.188  -3.153   0.444  0.00  0.00    +0.000 A 
ATOM      3  C   UNL     1      11.693  -4.345  -0.077  0.00  0.00    +0.000 A 
ATOM      4  C   UNL     1      12.372  -5.249   0.749  0.00  0.00    +0.000 A 
ATOM      5  C   UNL     1      12.596  -4.906   2.089  0.00  0.00    +0.000 A 
ATOM      6  C   UNL     1      12.076  -3.722   2.616  0.00  0.00    +0.000 A 
ENDROOT
BRANCH   1   7
ATOM      7  C   UNL     1      10.652  -1.641   2.404  0.00  0.00    +0.000 C 
BRANCH   7  11
ATOM      8  C   UNL     1       6.717  -2.216   3.978  0.00  0.00    +0.000 A 
ATOM      9  C   UNL     1       7.123  -3.024   2.923  0.00  0.00    +0.000 A 
ATOM     10  C   UNL     1       8.404  -2.864   2.407  0.00  0.00    +0.000 A 
ATOM     11  C   UNL     1       9.268  -1.908   2.950  0.00  0.00    +0.000 A 
ATOM     12  C   UNL     1       8.767  -1.139   3.996  0.00  0.00    +0.000 A 
ATOM     13  N   UNL     1       7.527  -1.273   4.524  0.00  0.00    +0.000 NA
BRANCH   8  14
ATOM     14  C   UNL     1       5.350  -2.429   4.600  0.00  0.00    +0.000 C 
BRANCH  14  15
ATOM     15  N   UNL     1       5.153  -3.768   5.192  0.00  0.00    +0.000 NA
ATOM     16  H   UNL     1       4.247  -3.740   5.670  0.00  0.00    +0.000 HD
BRANCH  15  17
ATOM     17  C   UNL     1       6.148  -4.064   6.241  0.00  0.00    +0.000 C 
BRANCH  17  18
ATOM     18  C   UNL     1       6.027  -3.160   7.482  0.00  0.00    +0.000 C 
BRANCH  18  19
ATOM     19  N   UNL     1       4.662  -3.184   8.024  0.00  0.00    +0.000 NA
ATOM     20  H   UNL     1       4.624  -2.576   8.841  0.00  0.00    +0.000 HD
ATOM     21  H   UNL     1       4.461  -4.125   8.361  0.00  0.00    +0.000 HD
ENDBRANCH  18  19
ENDBRANCH  17  18
ENDBRANCH  15  17
ENDBRANCH  14  15
ENDBRANCH   8  14
ENDBRANCH   7  11
ENDBRANCH   1   7
BRANCH   4  22
ATOM     22  C   UNL     1      12.868  -6.563   0.209  0.00  0.00    +0.000 C 
BRANCH  22  23
ATOM     23  N   UNL     1      14.200  -6.439  -0.317  0.00  0.00    +0.000 N 
ATOM     24  C   UNL     1      14.816  -7.494  -0.939  0.00  0.00    +0.000 C 
ATOM     25  O   UNL     1      14.245  -8.566  -1.122  0.00  0.00    +0.000 OA
ATOM     26  H   UNL     1      14.755  -5.658   0.016  0.00  0.00    +0.000 HD
BRANCH  24  27
ATOM     27  C   UNL     1      16.178  -7.258  -1.432  0.00  0.00    +0.000 A 
ATOM     28  C   UNL     1      16.687  -8.057  -2.446  0.00  0.00    +0.000 A 
ATOM     29  S   UNL     1      18.258  -7.616  -2.942  0.00  0.00    +0.000 S 
ATOM     30  C   UNL     1      18.334  -6.375  -1.783  0.00  0.00    +0.000 A 
ATOM     31  N   UNL     1      19.447  -5.605  -1.654  0.00  0.00    +0.000 NA
ATOM     32  C   UNL     1      19.383  -4.722  -0.715  0.00  0.00    +0.000 A 
ATOM     33  N   UNL     1      18.303  -4.541   0.111  0.00  0.00    +0.000 N 
ATOM     34  C   UNL     1      17.146  -5.275   0.003  0.00  0.00    +0.000 A 
ATOM     35  O   UNL     1      16.186  -5.059   0.734  0.00  0.00    +0.000 OA
ATOM     36  C   UNL     1      17.170  -6.287  -1.036  0.00  0.00    +0.000 A 
ATOM     37  H   UNL     1      18.314  -3.828   0.826  0.00  0.00    +0.000 HD
ENDBRANCH  24  27
ENDBRANCH  22  23
ENDBRANCH   4  22
TORSDOF 10
