REMARK  Name = 
REMARK  8 active torsions:
REMARK  status: ('A' for Active; 'I' for Inactive)
REMARK    1  A    between atoms: C_1  and  S_2
REMARK    2  A    between atoms: S_2  and  C_3
REMARK    3  A    between atoms: C_5  and  C_6
REMARK    4  A    between atoms: C_11  and  N_12
REMARK    5  A    between atoms: N_12  and  C_13
REMARK    6  A    between atoms: C_13  and  C_14
REMARK    7  A    between atoms: C_17  and  O_18
REMARK    8  A    between atoms: O_18  and  C_19
REMARK                            x       y       z     vdW  Elec       q    Type
REMARK                         _______ _______ _______ _____ _____    ______ ____
ROOT
ATOM      1  N   UNL     1       3.642  -1.327  -2.127  0.00  0.00    +0.000 N 
ATOM      2  H   UNL     1       3.042  -1.633  -2.887  0.00  0.00    +0.000 HD
ENDROOT
BRANCH   1   8
ATOM      3  C   UNL     1       5.450   0.433  -1.989  0.00  0.00    +0.000 A 
ATOM      4  C   UNL     1       6.037   1.496  -2.705  0.00  0.00    +0.000 A 
ATOM      5  C   UNL     1       5.574   1.866  -3.968  0.00  0.00    +0.000 A 
ATOM      6  C   UNL     1       4.526   1.135  -4.481  0.00  0.00    +0.000 A 
ATOM      7  N   UNL     1       3.945   0.098  -3.833  0.00  0.00    +0.000 NA
ATOM      8  C   UNL     1       4.397  -0.266  -2.601  0.00  0.00    +0.000 A 
BRANCH   5   9
ATOM      9  C   UNL     1       6.223   2.993  -4.679  0.00  0.00    +0.000 C 
ATOM     10  N   UNL     1       5.757   3.369  -5.907  0.00  0.00    +0.000 N 
ATOM     11  O   UNL     1       7.167   3.592  -4.177  0.00  0.00    +0.000 OA
ATOM     12  H   UNL     1       4.985   2.957  -6.408  0.00  0.00    +0.000 HD
ATOM     13  H   UNL     1       6.237   4.143  -6.350  0.00  0.00    +0.000 HD
ENDBRANCH   5   9
BRANCH   3  15
ATOM     14  C   UNL     1       5.464   1.348   0.623  0.00  0.00    +0.000 C 
ATOM     15  S   UNL     1       6.218   0.079  -0.417  0.00  0.00    +0.000 S 
ENDBRANCH   3  15
ENDBRANCH   1   8
BRANCH   1  16
ATOM     16  C   UNL     1       3.734  -2.187  -0.955  0.00  0.00    +0.000 C 
ATOM     17  C   UNL     1       2.390  -2.389  -0.241  0.00  0.00    +0.000 C 
ATOM     18  C   UNL     1       3.501  -1.690   0.458  0.00  0.00    +0.000 C 
BRANCH  16  19
ATOM     19  C   UNL     1       4.597  -3.436  -1.146  0.00  0.00    +0.000 A 
ATOM     20  C   UNL     1       5.963  -3.439  -0.809  0.00  0.00    +0.000 A 
ATOM     21  C   UNL     1       6.764  -4.570  -0.916  0.00  0.00    +0.000 A 
ATOM     22  C   UNL     1       6.209  -5.777  -1.302  0.00  0.00    +0.000 A 
ATOM     23  C   UNL     1       4.872  -5.804  -1.704  0.00  0.00    +0.000 A 
ATOM     24  C   UNL     1       4.079  -4.649  -1.635  0.00  0.00    +0.000 A 
BRANCH  22  25
ATOM     25  O   UNL     1       6.859  -6.972  -1.352  0.00  0.00    +0.000 OA
BRANCH  25  26
ATOM     26  C   UNL     1       7.951  -7.197  -0.467  0.00  0.00    +0.000 C 
ATOM     27  F   UNL     1       8.053  -6.300   0.538  0.00  0.00    +0.000 F 
ATOM     28  F   UNL     1       7.798  -8.417   0.095  0.00  0.00    +0.000 F 
ATOM     29  F   UNL     1       9.105  -7.199  -1.168  0.00  0.00    +0.000 F 
ENDBRANCH  25  26
ENDBRANCH  22  25
ENDBRANCH  16  19
ENDBRANCH   1  16
TORSDOF 7
