REMARK  Name = 
REMARK  8 active torsions:
REMARK  status: ('A' for Active; 'I' for Inactive)
REMARK    1  A    between atoms: N_1  and  C_2
REMARK    2  A    between atoms: C_2  and  C_3
REMARK    3  A    between atoms: C_3  and  N_4
REMARK    4  A    between atoms: C_3  and  C_17
REMARK    5  A    between atoms: C_5  and  C_7
REMARK    6  A    between atoms: C_20  and  O_21
REMARK    7  A    between atoms: O_21  and  C_22
REMARK    8  A    between atoms: C_22  and  C_23
REMARK                            x       y       z     vdW  Elec       q    Type
REMARK                         _______ _______ _______ _____ _____    ______ ____
ROOT
ATOM      1  C   UNL     1       2.903  -1.380  -0.652  0.00  0.00    +0.000 C 
ENDROOT
BRANCH   1   2
ATOM      2  C   UNL     1       4.418  -1.284  -0.557  0.00  0.00    +0.000 A 
ATOM      3  C   UNL     1       5.072  -1.707   0.610  0.00  0.00    +0.000 A 
ATOM      4  C   UNL     1       6.467  -1.669   0.699  0.00  0.00    +0.000 A 
ATOM      5  C   UNL     1       7.227  -1.205  -0.374  0.00  0.00    +0.000 A 
ATOM      6  C   UNL     1       6.582  -0.702  -1.502  0.00  0.00    +0.000 A 
ATOM      7  C   UNL     1       5.190  -0.743  -1.593  0.00  0.00    +0.000 A 
BRANCH   5   8
ATOM      8  O   UNL     1       8.585  -1.291  -0.224  0.00  0.00    +0.000 OA
BRANCH   8   9
ATOM      9  C   UNL     1       9.321  -1.294  -1.454  0.00  0.00    +0.000 C 
BRANCH   9  10
ATOM     10  C   UNL     1      10.694  -1.885  -1.249  0.00  0.00    +0.000 A 
ATOM     11  C   UNL     1      10.830  -3.164  -0.713  0.00  0.00    +0.000 A 
ATOM     12  C   UNL     1      12.101  -3.716  -0.602  0.00  0.00    +0.000 A 
ATOM     13  C   UNL     1      13.201  -2.979  -1.026  0.00  0.00    +0.000 A 
ATOM     14  C   UNL     1      12.980  -1.717  -1.551  0.00  0.00    +0.000 A 
ATOM     15  N   UNL     1      11.758  -1.158  -1.678  0.00  0.00    +0.000 NA
ENDBRANCH   9  10
ENDBRANCH   8   9
ENDBRANCH   5   8
ENDBRANCH   1   2
BRANCH   1  16
ATOM     16  N   UNL     1       2.332  -0.108  -0.251  0.00  0.00    +0.000 N 
ATOM     17  C   UNL     1       1.078  -0.007   0.292  0.00  0.00    +0.000 C 
ATOM     18  O   UNL     1       0.396  -0.993   0.556  0.00  0.00    +0.000 OA
ATOM     19  H   UNL     1       2.789   0.722  -0.611  0.00  0.00    +0.000 HD
BRANCH  17  20
ATOM     20  C   UNL     1       0.612   1.349   0.588  0.00  0.00    +0.000 A 
ATOM     21  C   UNL     1      -0.317   1.560   1.598  0.00  0.00    +0.000 A 
ATOM     22  S   UNL     1      -0.733   3.200   1.809  0.00  0.00    +0.000 S 
ATOM     23  C   UNL     1       0.274   3.682   0.524  0.00  0.00    +0.000 A 
ATOM     24  N   UNL     1       0.354   4.981   0.144  0.00  0.00    +0.000 NA
ATOM     25  C   UNL     1       1.131   5.197  -0.869  0.00  0.00    +0.000 A 
ATOM     26  N   UNL     1       1.842   4.226  -1.524  0.00  0.00    +0.000 N 
ATOM     27  C   UNL     1       1.827   2.906  -1.148  0.00  0.00    +0.000 A 
ATOM     28  O   UNL     1       2.531   2.073  -1.714  0.00  0.00    +0.000 OA
ATOM     29  C   UNL     1       0.946   2.607  -0.036  0.00  0.00    +0.000 A 
ATOM     30  H   UNL     1       2.448   4.466  -2.297  0.00  0.00    +0.000 HD
ENDBRANCH  17  20
ENDBRANCH   1  16
BRANCH   1  31
ATOM     31  C   UNL     1       2.367  -1.816  -2.051  0.00  0.00    +0.000 C 
BRANCH  31  32
ATOM     32  N   UNL     1       2.802  -3.155  -2.470  0.00  0.00    +0.000 NA
ATOM     33  H   UNL     1       2.228  -3.464  -3.252  0.00  0.00    +0.000 HD
ATOM     34  H   UNL     1       2.632  -3.816  -1.712  0.00  0.00    +0.000 HD
ENDBRANCH  31  32
ENDBRANCH   1  31
TORSDOF 8
