REMARK  Name = 
REMARK  5 active torsions:
REMARK  status: ('A' for Active; 'I' for Inactive)
REMARK    1  A    between atoms: N_1  and  C_2
REMARK    2  A    between atoms: C_2  and  C_3
REMARK    3  A    between atoms: C_6  and  C_7
REMARK    4  A    between atoms: C_7  and  N_8
REMARK    5  A    between atoms: C_12  and  C_13
REMARK                            x       y       z     vdW  Elec       q    Type
REMARK                         _______ _______ _______ _____ _____    ______ ____
ROOT
ATOM      1  C   UNL     1       3.619   4.559   3.504  0.00  0.00    +0.000 C 
ENDROOT
BRANCH   1   2
ATOM      2  N   UNL     1       3.600   5.820   2.794  0.00  0.00    +0.000 N 
ATOM      3  C   UNL     1       3.817   7.001   3.478  0.00  0.00    +0.000 A 
ATOM      4  C   UNL     1       4.645   7.094   4.592  0.00  0.00    +0.000 A 
ATOM      5  C   UNL     1       4.871   8.335   5.184  0.00  0.00    +0.000 A 
ATOM      6  C   UNL     1       4.292   9.473   4.638  0.00  0.00    +0.000 A 
ATOM      7  C   UNL     1       3.483   9.295   3.525  0.00  0.00    +0.000 A 
ATOM      8  N   UNL     1       3.230   8.092   2.952  0.00  0.00    +0.000 NA
ATOM      9  H   UNL     1       2.825   5.957   2.149  0.00  0.00    +0.000 HD
BRANCH   6  10
ATOM     10  C   UNL     1       4.540  10.838   5.199  0.00  0.00    +0.000 C 
ATOM     11  F   UNL     1       5.346  10.829   6.301  0.00  0.00    +0.000 F 
ENDBRANCH   6  10
ENDBRANCH   1   2
BRANCH   1  15
ATOM     12  C   UNL     1       2.761   1.261   0.825  0.00  0.00    +0.000 A 
ATOM     13  C   UNL     1       3.877   2.082   0.608  0.00  0.00    +0.000 A 
ATOM     14  C   UNL     1       4.155   3.148   1.469  0.00  0.00    +0.000 A 
ATOM     15  C   UNL     1       3.319   3.417   2.562  0.00  0.00    +0.000 A 
ATOM     16  C   UNL     1       2.216   2.584   2.789  0.00  0.00    +0.000 A 
ATOM     17  C   UNL     1       1.940   1.517   1.930  0.00  0.00    +0.000 A 
BRANCH  12  18
ATOM     18  C   UNL     1       2.426   0.150  -0.138  0.00  0.00    +0.000 C 
BRANCH  18  19
ATOM     19  N   UNL     1       3.516  -0.810  -0.265  0.00  0.00    +0.000 NA
ATOM     20  H   UNL     1       3.193  -1.608  -0.808  0.00  0.00    +0.000 HD
ATOM     21  H   UNL     1       3.750  -1.164   0.661  0.00  0.00    +0.000 HD
ENDBRANCH  18  19
ENDBRANCH  12  18
ENDBRANCH   1  15
TORSDOF 5
