REMARK  Name = 
REMARK  6 active torsions:
REMARK  status: ('A' for Active; 'I' for Inactive)
REMARK    1  A    between atoms: C_1  and  O_2
REMARK    2  A    between atoms: O_2  and  C_3
REMARK    3  A    between atoms: C_6  and  C_7
REMARK    4  A    between atoms: N_13  and  C_14
REMARK    5  A    between atoms: C_14  and  C_15
REMARK    6  A    between atoms: C_20  and  C_21
REMARK                            x       y       z     vdW  Elec       q    Type
REMARK                         _______ _______ _______ _____ _____    ______ ____
ROOT
ATOM      1  C   UNL     1       3.137   1.295   0.563  0.00  0.00    +0.000 A 
ATOM      2  N   UNL     1       2.846   2.094   1.616  0.00  0.00    +0.000 NA
ATOM      3  C   UNL     1       3.560   3.220   1.815  0.00  0.00    +0.000 A 
ATOM      4  C   UNL     1       4.611   3.641   1.015  0.00  0.00    +0.000 A 
ATOM      5  C   UNL     1       4.931   2.828  -0.093  0.00  0.00    +0.000 A 
ATOM      6  C   UNL     1       5.865   2.916  -1.167  0.00  0.00    +0.000 A 
ATOM      7  C   UNL     1       5.699   1.819  -1.973  0.00  0.00    +0.000 A 
ATOM      8  N   UNL     1       4.671   1.056  -1.460  0.00  0.00    +0.000 N 
ATOM      9  C   UNL     1       4.181   1.651  -0.304  0.00  0.00    +0.000 A 
ENDROOT
BRANCH   4  10
ATOM     10  C   UNL     1       5.266   4.914   1.363  0.00  0.00    +0.000 C 
ATOM     11  N   UNL     1       6.579   5.082   1.029  0.00  0.00    +0.000 N 
ATOM     12  O   UNL     1       4.668   5.784   1.985  0.00  0.00    +0.000 OA
ATOM     13  H   UNL     1       7.164   4.308   0.754  0.00  0.00    +0.000 HD
ATOM     14  H   UNL     1       7.031   5.916   1.384  0.00  0.00    +0.000 HD
ENDBRANCH   4  10
BRANCH   1  16
ATOM     15  C   UNL     1       1.167   0.182   1.106  0.00  0.00    +0.000 C 
ATOM     16  O   UNL     1       2.391   0.150   0.371  0.00  0.00    +0.000 OA
ENDBRANCH   1  16
BRANCH   8  17
ATOM     17  C   UNL     1       4.100  -0.082  -2.188  0.00  0.00    +0.000 C 
BRANCH  17  18
ATOM     18  C   UNL     1       4.808  -1.407  -1.978  0.00  0.00    +0.000 A 
ATOM     19  N   UNL     1       5.795  -1.468  -1.045  0.00  0.00    +0.000 NA
ATOM     20  C   UNL     1       6.427  -2.646  -0.857  0.00  0.00    +0.000 A 
ATOM     21  C   UNL     1       6.133  -3.797  -1.561  0.00  0.00    +0.000 A 
ATOM     22  C   UNL     1       5.129  -3.737  -2.518  0.00  0.00    +0.000 A 
ATOM     23  C   UNL     1       4.446  -2.535  -2.742  0.00  0.00    +0.000 A 
ATOM     24  C   UNL     1       3.373  -2.491  -3.792  0.00  0.00    +0.000 C 
ENDBRANCH  17  18
ENDBRANCH   8  17
TORSDOF 4
