REMARK  Name = 
REMARK  5 active torsions:
REMARK  status: ('A' for Active; 'I' for Inactive)
REMARK    1  A    between atoms: C_7  and  C_8
REMARK    2  A    between atoms: N_10  and  C_11
REMARK    3  A    between atoms: C_11  and  C_12
REMARK    4  A    between atoms: C_15  and  O_16
REMARK    5  A    between atoms: O_16  and  C_17
REMARK                            x       y       z     vdW  Elec       q    Type
REMARK                         _______ _______ _______ _____ _____    ______ ____
ROOT
ATOM      1  C   UNL     1       7.776   0.868   0.055  0.00  0.00    +0.000 C 
ATOM      2  O   UNL     1       8.938   0.466   0.065  0.00  0.00    +0.000 OA
ATOM      3  N   UNL     1       7.490   2.209   0.048  0.00  0.00    +0.000 N 
ATOM      4  H   UNL     1       6.528   2.537   0.048  0.00  0.00    +0.000 HD
ENDROOT
BRANCH   1  11
ATOM      5  N   UNL     1       1.115  -0.048  -0.169  0.00  0.00    +0.000 N 
ATOM      6  C   UNL     1       2.467  -0.052  -0.081  0.00  0.00    +0.000 A 
ATOM      7  N   UNL     1       3.130  -1.166  -0.050  0.00  0.00    +0.000 NA
ATOM      8  C   UNL     1       4.484  -1.036   0.006  0.00  0.00    +0.000 A 
ATOM      9  S   UNL     1       5.490  -2.407   0.030  0.00  0.00    +0.000 S 
ATOM     10  C   UNL     1       6.895  -1.444   0.050  0.00  0.00    +0.000 A 
ATOM     11  C   UNL     1       6.642  -0.077   0.049  0.00  0.00    +0.000 A 
ATOM     12  C   UNL     1       5.210   0.141   0.034  0.00  0.00    +0.000 A 
ATOM     13  C   UNL     1       4.428   1.361   0.024  0.00  0.00    +0.000 A 
ATOM     14  O   UNL     1       4.907   2.490   0.057  0.00  0.00    +0.000 OA
ATOM     15  N   UNL     1       3.068   1.175  -0.029  0.00  0.00    +0.000 N 
ATOM     16  H   UNL     1       0.689  -0.948   0.029  0.00  0.00    +0.000 HD
ATOM     17  H   UNL     1       0.599   0.744   0.188  0.00  0.00    +0.000 HD
ATOM     18  H   UNL     1       2.516   2.014  -0.073  0.00  0.00    +0.000 HD
ENDBRANCH   1  11
BRANCH   3  19
ATOM     19  C   UNL     1       8.536   3.201   0.047  0.00  0.00    +0.000 C 
BRANCH  19  20
ATOM     20  C   UNL     1       7.976   4.601   0.063  0.00  0.00    +0.000 A 
ATOM     21  C   UNL     1       7.666   5.228   1.277  0.00  0.00    +0.000 A 
ATOM     22  C   UNL     1       7.137   6.523   1.298  0.00  0.00    +0.000 A 
ATOM     23  C   UNL     1       6.952   7.225   0.105  0.00  0.00    +0.000 A 
ATOM     24  C   UNL     1       7.210   6.588  -1.110  0.00  0.00    +0.000 A 
ATOM     25  C   UNL     1       7.714   5.284  -1.133  0.00  0.00    +0.000 A 
BRANCH  23  26
ATOM     26  O   UNL     1       6.449   8.504   0.020  0.00  0.00    +0.000 OA
BRANCH  26  27
ATOM     27  C   UNL     1       6.741   9.421   0.988  0.00  0.00    +0.000 A 
ATOM     28  C   UNL     1       7.895   9.494   1.740  0.00  0.00    +0.000 A 
ATOM     29  N   UNL     1       8.110  10.415   2.706  0.00  0.00    +0.000 NA
ATOM     30  C   UNL     1       7.132  11.317   2.877  0.00  0.00    +0.000 A 
ATOM     31  N   UNL     1       5.997  11.392   2.166  0.00  0.00    +0.000 NA
ATOM     32  C   UNL     1       5.836  10.436   1.224  0.00  0.00    +0.000 A 
ENDBRANCH  26  27
ENDBRANCH  23  26
ENDBRANCH  19  20
ENDBRANCH   3  19
TORSDOF 5
