REMARK  Name = 
REMARK  5 active torsions:
REMARK  status: ('A' for Active; 'I' for Inactive)
REMARK    1  A    between atoms: C_1  and  N_2
REMARK    2  A    between atoms: C_3  and  C_5
REMARK    3  A    between atoms: N_9  and  C_10
REMARK    4  A    between atoms: C_10  and  C_11
REMARK    5  A    between atoms: C_10  and  C_12
REMARK                            x       y       z     vdW  Elec       q    Type
REMARK                         _______ _______ _______ _____ _____    ______ ____
ROOT
ATOM      1  C   UNL     1       4.627  -0.335   0.834  0.00  0.00    +0.000 A 
ATOM      2  C   UNL     1       5.235  -1.503   0.383  0.00  0.00    +0.000 A 
ATOM      3  C   UNL     1       6.625  -1.614   0.444  0.00  0.00    +0.000 A 
ATOM      4  C   UNL     1       7.392  -0.544   0.905  0.00  0.00    +0.000 A 
ATOM      5  N   UNL     1       8.780  -0.685   0.883  0.00  0.00    +0.000 N 
ATOM      6  N   UNL     1       6.815   0.596   1.329  0.00  0.00    +0.000 NA
ATOM      7  C   UNL     1       5.456   0.678   1.293  0.00  0.00    +0.000 A 
ATOM      8  H   UNL     1       9.081  -1.410   1.523  0.00  0.00    +0.000 HD
ENDROOT
BRANCH   1  11
ATOM      9  C   UNL     1       0.928  -1.136   0.786  0.00  0.00    +0.000 C 
ATOM     10  N   UNL     1       2.365  -1.241   0.822  0.00  0.00    +0.000 N 
ATOM     11  C   UNL     1       3.161  -0.113   0.800  0.00  0.00    +0.000 C 
ATOM     12  O   UNL     1       2.715   1.027   0.773  0.00  0.00    +0.000 OA
ATOM     13  H   UNL     1       2.771  -2.149   0.998  0.00  0.00    +0.000 HD
ENDBRANCH   1  11
BRANCH   5  14
ATOM     14  C   UNL     1       9.588   0.532   0.930  0.00  0.00    +0.000 C 
ATOM     15  C   UNL     1       9.824   1.034   2.354  0.00  0.00    +0.000 C 
BRANCH  14  16
ATOM     16  C   UNL     1      10.918   0.246   0.236  0.00  0.00    +0.000 A 
ATOM     17  C   UNL     1      11.825  -0.714   0.722  0.00  0.00    +0.000 A 
ATOM     18  C   UNL     1      13.050  -0.931   0.088  0.00  0.00    +0.000 A 
ATOM     19  C   UNL     1      13.389  -0.193  -1.051  0.00  0.00    +0.000 A 
ATOM     20  C   UNL     1      12.493   0.746  -1.550  0.00  0.00    +0.000 A 
ATOM     21 CL   UNL     1      12.905   1.656  -2.951  0.00  0.00    +0.000 Cl
ATOM     22  C   UNL     1      11.265   0.965  -0.920  0.00  0.00    +0.000 A 
ENDBRANCH  14  16
ENDBRANCH   5  14
TORSDOF 3
