REMARK  Name = 
REMARK  7 active torsions:
REMARK  status: ('A' for Active; 'I' for Inactive)
REMARK    1  A    between atoms: C_1  and  O_2
REMARK    2  A    between atoms: O_2  and  C_3
REMARK    3  A    between atoms: C_7  and  C_8
REMARK    4  A    between atoms: C_12  and  C_13
REMARK    5  A    between atoms: C_13  and  N_14
REMARK    6  A    between atoms: N_14  and  C_15
REMARK    7  A    between atoms: C_18  and  C_19
REMARK                            x       y       z     vdW  Elec       q    Type
REMARK                         _______ _______ _______ _____ _____    ______ ____
ROOT
ATOM      1  C   UNL     1       2.989   2.633   8.116  0.00  0.00    +0.000 C 
ATOM      2  C   UNL     1       1.695   2.999   8.812  0.00  0.00    +0.000 C 
ATOM      3  C   UNL     1       2.176   3.859   7.693  0.00  0.00    +0.000 C 
ENDROOT
BRANCH   1   8
ATOM      4  C   UNL     1       3.264   0.539   4.873  0.00  0.00    +0.000 A 
ATOM      5  C   UNL     1       2.948  -0.737   5.365  0.00  0.00    +0.000 A 
ATOM      6  C   UNL     1       2.683  -0.936   6.724  0.00  0.00    +0.000 A 
ATOM      7  C   UNL     1       2.699   0.140   7.608  0.00  0.00    +0.000 A 
ATOM      8  C   UNL     1       2.992   1.438   7.168  0.00  0.00    +0.000 A 
ATOM      9  C   UNL     1       3.294   1.598   5.801  0.00  0.00    +0.000 A 
BRANCH   4  14
ATOM     10  C   UNL     1       3.403   2.166   1.436  0.00  0.00    +0.000 A 
ATOM     11  C   UNL     1       4.047   1.146   0.751  0.00  0.00    +0.000 A 
ATOM     12  N   UNL     1       4.443  -0.019   1.312  0.00  0.00    +0.000 NA
ATOM     13  C   UNL     1       4.179  -0.171   2.632  0.00  0.00    +0.000 A 
ATOM     14  C   UNL     1       3.532   0.772   3.436  0.00  0.00    +0.000 A 
ATOM     15  C   UNL     1       3.144   1.962   2.791  0.00  0.00    +0.000 A 
BRANCH  10  17
ATOM     16  C   UNL     1       2.474   4.352   1.410  0.00  0.00    +0.000 C 
ATOM     17  O   UNL     1       3.075   3.272   0.706  0.00  0.00    +0.000 OA
ENDBRANCH  10  17
ENDBRANCH   4  14
ENDBRANCH   1   8
BRANCH   1  18
ATOM     18  N   UNL     1       4.315   2.980   8.650  0.00  0.00    +0.000 N 
ATOM     19  H   UNL     1       4.991   3.278   7.956  0.00  0.00    +0.000 HD
BRANCH  18  20
ATOM     20  C   UNL     1       4.925   2.459   9.805  0.00  0.00    +0.000 A 
ATOM     21  C   UNL     1       4.286   1.648  10.745  0.00  0.00    +0.000 A 
ATOM     22  C   UNL     1       4.936   1.281  11.936  0.00  0.00    +0.000 A 
ATOM     23  C   UNL     1       6.231   1.737  12.211  0.00  0.00    +0.000 A 
ATOM     24  C   UNL     1       6.875   2.557  11.285  0.00  0.00    +0.000 A 
ATOM     25  C   UNL     1       6.222   2.911  10.101  0.00  0.00    +0.000 A 
BRANCH  23  26
ATOM     26  C   UNL     1       6.858   1.397  13.515  0.00  0.00    +0.000 C 
ATOM     27  N   UNL     1       8.223   1.457  13.599  0.00  0.00    +0.000 N 
ATOM     28  O   UNL     1       6.187   1.062  14.485  0.00  0.00    +0.000 OA
ATOM     29  H   UNL     1       8.822   1.511  12.790  0.00  0.00    +0.000 HD
ATOM     30  H   UNL     1       8.637   1.168  14.476  0.00  0.00    +0.000 HD
ENDBRANCH  23  26
ENDBRANCH  18  20
ENDBRANCH   1  18
TORSDOF 6
