REMARK  Name = 
REMARK  8 active torsions:
REMARK  status: ('A' for Active; 'I' for Inactive)
REMARK    1  A    between atoms: C_1  and  O_2
REMARK    2  A    between atoms: O_2  and  C_3
REMARK    3  A    between atoms: C_10  and  C_11
REMARK    4  A    between atoms: N_13  and  C_14
REMARK    5  A    between atoms: C_14  and  C_15
REMARK    6  A    between atoms: C_18  and  N_19
REMARK    7  A    between atoms: N_19  and  C_20
REMARK    8  A    between atoms: C_20  and  C_21
REMARK                            x       y       z     vdW  Elec       q    Type
REMARK                         _______ _______ _______ _____ _____    ______ ____
ROOT
ATOM      1  C   UNL     1       2.865   1.592  -3.007  0.00  0.00    +0.000 C 
ENDROOT
BRANCH   1   2
ATOM      2  C   UNL     1       1.739   0.605  -3.172  0.00  0.00    +0.000 A 
ATOM      3  C   UNL     1       2.019  -0.762  -3.252  0.00  0.00    +0.000 A 
ATOM      4  C   UNL     1       1.007  -1.682  -3.539  0.00  0.00    +0.000 A 
ATOM      5  C   UNL     1      -0.311  -1.277  -3.755  0.00  0.00    +0.000 A 
ATOM      6  C   UNL     1      -0.586   0.097  -3.652  0.00  0.00    +0.000 A 
ATOM      7  C   UNL     1       0.419   1.026  -3.360  0.00  0.00    +0.000 A 
BRANCH   5   8
ATOM      8  N   UNL     1      -1.307  -2.122  -4.245  0.00  0.00    +0.000 N 
ATOM      9  H   UNL     1      -2.237  -1.745  -4.097  0.00  0.00    +0.000 HD
BRANCH   8  10
ATOM     10  C   UNL     1      -1.246  -3.574  -4.074  0.00  0.00    +0.000 C 
BRANCH  10  11
ATOM     11  C   UNL     1      -1.947  -4.302  -5.249  0.00  0.00    +0.000 C 
ATOM     12  C   UNL     1      -3.404  -3.889  -5.462  0.00  0.00    +0.000 C 
ATOM     13  C   UNL     1      -4.246  -4.313  -4.266  0.00  0.00    +0.000 C 
ATOM     14  C   UNL     1      -4.107  -5.815  -4.054  0.00  0.00    +0.000 C 
ATOM     15  C   UNL     1      -2.649  -6.268  -4.035  0.00  0.00    +0.000 C 
ATOM     16  O   UNL     1      -1.885  -5.733  -5.115  0.00  0.00    +0.000 OA
ENDBRANCH  10  11
ENDBRANCH   8  10
ENDBRANCH   5   8
ENDBRANCH   1   2
BRANCH   1  19
ATOM     17  C   UNL     1       4.720   2.284  -4.497  0.00  0.00    +0.000 C 
ATOM     18  O   UNL     1       5.522   2.316  -3.569  0.00  0.00    +0.000 OA
ATOM     19  N   UNL     1       3.416   1.926  -4.299  0.00  0.00    +0.000 N 
ATOM     20  H   UNL     1       2.761   1.991  -5.063  0.00  0.00    +0.000 HD
BRANCH  17  28
ATOM     21  C   UNL     1       3.037   2.378  -7.504  0.00  0.00    +0.000 A 
ATOM     22  N   UNL     1       2.635   2.500  -8.786  0.00  0.00    +0.000 NA
ATOM     23  C   UNL     1       3.539   2.873  -9.694  0.00  0.00    +0.000 A 
ATOM     24  N   UNL     1       4.822   3.148  -9.482  0.00  0.00    +0.000 NA
ATOM     25  C   UNL     1       5.181   3.022  -8.193  0.00  0.00    +0.000 A 
ATOM     26  S   UNL     1       6.784   3.340  -7.734  0.00  0.00    +0.000 S 
ATOM     27  C   UNL     1       6.442   2.989  -6.108  0.00  0.00    +0.000 A 
ATOM     28  C   UNL     1       5.121   2.624  -5.874  0.00  0.00    +0.000 A 
ATOM     29  C   UNL     1       4.365   2.648  -7.128  0.00  0.00    +0.000 A 
BRANCH  21  31
ATOM     30  C   UNL     1       0.976   1.342  -7.103  0.00  0.00    +0.000 C 
ATOM     31  O   UNL     1       2.091   2.042  -6.558  0.00  0.00    +0.000 OA
ENDBRANCH  21  31
ENDBRANCH  17  28
ENDBRANCH   1  19
TORSDOF 7
