REMARK  Name = 
REMARK  4 active torsions:
REMARK  status: ('A' for Active; 'I' for Inactive)
REMARK    1  A    between atoms: C_2  and  C_4
REMARK    2  A    between atoms: N_8  and  C_9
REMARK    3  A    between atoms: C_9  and  C_10
REMARK    4  A    between atoms: C_14  and  N_15
REMARK                            x       y       z     vdW  Elec       q    Type
REMARK                         _______ _______ _______ _____ _____    ______ ____
ROOT
ATOM      1  C   UNL     1       1.737  -3.721  -8.228  0.00  0.00    +0.000 A 
ATOM      2  C   UNL     1       1.790  -4.683  -7.227  0.00  0.00    +0.000 A 
ATOM      3  C   UNL     1       2.797  -4.607  -6.264  0.00  0.00    +0.000 A 
ATOM      4  C   UNL     1       3.736  -3.584  -6.321  0.00  0.00    +0.000 A 
ATOM      5  N   UNL     1       4.698  -3.378  -5.374  0.00  0.00    +0.000 N 
ATOM      6  N   UNL     1       3.715  -2.671  -7.314  0.00  0.00    +0.000 NA
ATOM      7  C   UNL     1       2.730  -2.757  -8.246  0.00  0.00    +0.000 A 
ATOM      8  H   UNL     1       5.360  -2.662  -5.643  0.00  0.00    +0.000 HD
ENDROOT
BRANCH   1  10
ATOM      9  N   UNL     1      -0.531  -4.246  -8.918  0.00  0.00    +0.000 N 
ATOM     10  C   UNL     1       0.676  -3.690  -9.253  0.00  0.00    +0.000 C 
ATOM     11  O   UNL     1       0.846  -3.156 -10.340  0.00  0.00    +0.000 OA
ATOM     12  H   UNL     1      -1.280  -4.116  -9.584  0.00  0.00    +0.000 HD
ATOM     13  H   UNL     1      -0.784  -4.456  -7.963  0.00  0.00    +0.000 HD
ENDBRANCH   1  10
BRANCH   5  14
ATOM     14  C   UNL     1       5.015  -4.239  -4.262  0.00  0.00    +0.000 C 
BRANCH  14  15
ATOM     15  C   UNL     1       5.934  -5.365  -4.656  0.00  0.00    +0.000 A 
ATOM     16  C   UNL     1       7.221  -5.097  -5.133  0.00  0.00    +0.000 A 
ATOM     17  C   UNL     1       8.073  -6.146  -5.458  0.00  0.00    +0.000 A 
ATOM     18  C   UNL     1       7.645  -7.468  -5.308  0.00  0.00    +0.000 A 
ATOM     19  C   UNL     1       6.365  -7.786  -4.834  0.00  0.00    +0.000 A 
ATOM     20  C   UNL     1       5.526  -6.706  -4.518  0.00  0.00    +0.000 A 
BRANCH  19  21
ATOM     21  N   UNL     1       5.982  -9.097  -4.643  0.00  0.00    +0.000 N 
ATOM     22  C   UNL     1       4.971  -9.506  -3.660  0.00  0.00    +0.000 C 
ATOM     23  C   UNL     1       5.464 -10.773  -2.935  0.00  0.00    +0.000 C 
ATOM     24  O   UNL     1       5.797 -11.828  -3.854  0.00  0.00    +0.000 OA
ATOM     25  C   UNL     1       6.823 -11.392  -4.765  0.00  0.00    +0.000 C 
ATOM     26  C   UNL     1       6.365 -10.170  -5.575  0.00  0.00    +0.000 C 
ENDBRANCH  19  21
ENDBRANCH  14  15
ENDBRANCH   5  14
TORSDOF 4
