REMARK  Name = 
REMARK  7 active torsions:
REMARK  status: ('A' for Active; 'I' for Inactive)
REMARK    1  A    between atoms: C_1  and  C_2
REMARK    2  A    between atoms: C_2  and  N_3
REMARK    3  A    between atoms: C_2  and  C_11
REMARK    4  A    between atoms: C_4  and  C_6
REMARK    5  A    between atoms: C_14  and  C_15
REMARK    6  A    between atoms: C_15  and  N_16
REMARK    7  A    between atoms: C_17  and  C_19
REMARK                            x       y       z     vdW  Elec       q    Type
REMARK                         _______ _______ _______ _____ _____    ______ ____
ROOT
ATOM      1  C   UNL     1       3.039   0.085   1.342  0.00  0.00    +0.000 A 
ATOM      2  C   UNL     1       3.192   1.323   1.983  0.00  0.00    +0.000 A 
ATOM      3  C   UNL     1       3.609   1.394   3.317  0.00  0.00    +0.000 A 
ATOM      4  C   UNL     1       3.887   0.228   4.040  0.00  0.00    +0.000 A 
ATOM      5  C   UNL     1       3.700  -1.011   3.415  0.00  0.00    +0.000 A 
ATOM      6  C   UNL     1       3.293  -1.082   2.080  0.00  0.00    +0.000 A 
ENDROOT
BRANCH   1   8
ATOM      7  C   UNL     1       3.694  -0.585  -1.000  0.00  0.00    +0.000 C 
ATOM      8  C   UNL     1       2.608   0.033  -0.115  0.00  0.00    +0.000 C 
BRANCH   8   9
ATOM      9  N   UNL     1       1.351  -0.686  -0.247  0.00  0.00    +0.000 N 
ATOM     10  C   UNL     1       0.436  -0.393  -1.228  0.00  0.00    +0.000 C 
ATOM     11  O   UNL     1       0.612   0.494  -2.057  0.00  0.00    +0.000 OA
ATOM     12  H   UNL     1       1.155  -1.426   0.409  0.00  0.00    +0.000 HD
BRANCH  10  13
ATOM     13  C   UNL     1      -0.764  -1.188  -1.210  0.00  0.00    +0.000 A 
ATOM     14  C   UNL     1      -1.185  -2.271  -0.461  0.00  0.00    +0.000 A 
ATOM     15  C   UNL     1      -2.479  -2.564  -0.933  0.00  0.00    +0.000 A 
ATOM     16  N   UNL     1      -2.859  -1.743  -1.911  0.00  0.00    +0.000 NA
ATOM     17  N   UNL     1      -1.802  -0.928  -2.067  0.00  0.00    +0.000 N 
ATOM     18  H   UNL     1      -1.840  -0.197  -2.772  0.00  0.00    +0.000 HD
ENDBRANCH  10  13
ENDBRANCH   8   9
ENDBRANCH   1   8
BRANCH   4  19
ATOM     19  C   UNL     1       4.353   0.298   5.472  0.00  0.00    +0.000 C 
BRANCH  19  20
ATOM     20  N   UNL     1       3.241   0.304   6.387  0.00  0.00    +0.000 N 
ATOM     21  C   UNL     1       3.437   0.444   7.738  0.00  0.00    +0.000 C 
ATOM     22  O   UNL     1       4.553   0.630   8.218  0.00  0.00    +0.000 OA
ATOM     23  H   UNL     1       2.361  -0.056   6.044  0.00  0.00    +0.000 HD
BRANCH  21  24
ATOM     24  C   UNL     1       2.239   0.404   8.586  0.00  0.00    +0.000 A 
ATOM     25  C   UNL     1       2.267   0.995   9.842  0.00  0.00    +0.000 A 
ATOM     26  S   UNL     1       0.788   0.884  10.685  0.00  0.00    +0.000 S 
ATOM     27  C   UNL     1       0.071   0.002   9.420  0.00  0.00    +0.000 A 
ATOM     28  N   UNL     1      -1.211  -0.441   9.518  0.00  0.00    +0.000 NA
ATOM     29  C   UNL     1      -1.622  -1.116   8.497  0.00  0.00    +0.000 A 
ATOM     30  N   UNL     1      -0.868  -1.384   7.384  0.00  0.00    +0.000 N 
ATOM     31  C   UNL     1       0.422  -0.935   7.230  0.00  0.00    +0.000 A 
ATOM     32  O   UNL     1       1.054  -1.160   6.202  0.00  0.00    +0.000 OA
ATOM     33  C   UNL     1       0.939  -0.183   8.358  0.00  0.00    +0.000 A 
ATOM     34  H   UNL     1      -1.253  -1.909   6.613  0.00  0.00    +0.000 HD
ENDBRANCH  21  24
ENDBRANCH  19  20
ENDBRANCH   4  19
TORSDOF 6
