REMARK  Name = 
REMARK  7 active torsions:
REMARK  status: ('A' for Active; 'I' for Inactive)
REMARK    1  A    between atoms: C_1  and  C_2
REMARK    2  A    between atoms: C_2  and  C_3
REMARK    3  A    between atoms: C_2  and  C_15
REMARK    4  A    between atoms: C_3  and  N_4
REMARK    5  A    between atoms: N_4  and  C_5
REMARK    6  A    between atoms: C_8  and  C_9
REMARK    7  A    between atoms: C_19  and  C_20
REMARK                            x       y       z     vdW  Elec       q    Type
REMARK                         _______ _______ _______ _____ _____    ______ ____
ROOT
ATOM      1  N   UNL     1       2.770   2.358  -0.873  0.00  0.00    +0.000 N 
ATOM      2  H   UNL     1       1.784   2.364  -1.131  0.00  0.00    +0.000 HD
ENDROOT
BRANCH   1   3
ATOM      3  C   UNL     1       3.305   3.659  -0.881  0.00  0.00    +0.000 A 
ATOM      4  C   UNL     1       3.011   4.487  -1.976  0.00  0.00    +0.000 A 
ATOM      5  C   UNL     1       3.567   5.774  -2.095  0.00  0.00    +0.000 A 
ATOM      6  C   UNL     1       4.441   6.255  -1.113  0.00  0.00    +0.000 A 
ATOM      7  C   UNL     1       4.749   5.439  -0.025  0.00  0.00    +0.000 A 
ATOM      8  C   UNL     1       4.203   4.163   0.074  0.00  0.00    +0.000 A 
ATOM      9  F   UNL     1       4.554   3.438   1.147  0.00  0.00    +0.000 F 
BRANCH   6  10
ATOM     10  C   UNL     1       5.086   7.597  -1.148  0.00  0.00    +0.000 C 
ATOM     11  N   UNL     1       4.863   8.411  -2.220  0.00  0.00    +0.000 N 
ATOM     12  O   UNL     1       5.814   7.977  -0.238  0.00  0.00    +0.000 OA
ATOM     13  H   UNL     1       4.315   8.173  -3.030  0.00  0.00    +0.000 HD
ATOM     14  H   UNL     1       5.341   9.302  -2.210  0.00  0.00    +0.000 HD
ENDBRANCH   6  10
ENDBRANCH   1   3
BRANCH   1  15
ATOM     15  C   UNL     1       3.047   1.507   0.281  0.00  0.00    +0.000 C 
BRANCH  15  17
ATOM     16  C   UNL     1       2.730  -0.756  -0.909  0.00  0.00    +0.000 C 
ATOM     17  C   UNL     1       2.280   0.230   0.120  0.00  0.00    +0.000 C 
BRANCH  17  18
ATOM     18  C   UNL     1       0.914   0.187   0.653  0.00  0.00    +0.000 A 
ATOM     19  C   UNL     1       0.650   0.468   1.999  0.00  0.00    +0.000 A 
ATOM     20  C   UNL     1      -0.663   0.560   2.461  0.00  0.00    +0.000 A 
ATOM     21  C   UNL     1      -1.727   0.394   1.572  0.00  0.00    +0.000 A 
ATOM     22  C   UNL     1      -1.481   0.101   0.223  0.00  0.00    +0.000 A 
ATOM     23  C   UNL     1      -0.156  -0.034  -0.216  0.00  0.00    +0.000 A 
BRANCH  22  24
ATOM     24  C   UNL     1      -2.592  -0.020  -0.787  0.00  0.00    +0.000 C 
ATOM     25  F   UNL     1      -3.826   0.247  -0.280  0.00  0.00    +0.000 F 
ATOM     26  F   UNL     1      -2.425   0.838  -1.834  0.00  0.00    +0.000 F 
ATOM     27  F   UNL     1      -2.667  -1.264  -1.335  0.00  0.00    +0.000 F 
ENDBRANCH  22  24
ENDBRANCH  17  18
ENDBRANCH  15  17
ENDBRANCH   1  15
TORSDOF 6
