REMARK  Name = 
REMARK  6 active torsions:
REMARK  status: ('A' for Active; 'I' for Inactive)
REMARK    1  A    between atoms: C_1  and  C_2
REMARK    2  A    between atoms: C_2  and  C_3
REMARK    3  A    between atoms: C_2  and  N_4
REMARK    4  A    between atoms: C_2  and  C_14
REMARK    5  A    between atoms: N_4  and  C_5
REMARK    6  A    between atoms: C_8  and  C_9
REMARK                            x       y       z     vdW  Elec       q    Type
REMARK                         _______ _______ _______ _____ _____    ______ ____
ROOT
ATOM      1  N   UNL     1       2.826   0.324   1.329  0.00  0.00    +0.000 N 
ATOM      2  H   UNL     1       3.783   0.092   1.582  0.00  0.00    +0.000 HD
ENDROOT
BRANCH   1   3
ATOM      3  C   UNL     1       2.187   1.135   2.246  0.00  0.00    +0.000 A 
ATOM      4  C   UNL     1       2.269   0.789   3.603  0.00  0.00    +0.000 A 
ATOM      5  C   UNL     1       1.575   1.506   4.589  0.00  0.00    +0.000 A 
ATOM      6  C   UNL     1       0.797   2.606   4.234  0.00  0.00    +0.000 A 
ATOM      7  C   UNL     1       0.704   2.970   2.891  0.00  0.00    +0.000 A 
ATOM      8  C   UNL     1       1.391   2.234   1.915  0.00  0.00    +0.000 A 
BRANCH   6   9
ATOM      9  C   UNL     1       0.061   3.338   5.301  0.00  0.00    +0.000 C 
ATOM     10  N   UNL     1      -0.252   4.650   5.055  0.00  0.00    +0.000 N 
ATOM     11  O   UNL     1      -0.229   2.810   6.364  0.00  0.00    +0.000 OA
ATOM     12  H   UNL     1       0.173   5.181   4.309  0.00  0.00    +0.000 HD
ATOM     13  H   UNL     1      -0.661   5.161   5.826  0.00  0.00    +0.000 HD
ENDBRANCH   6   9
ENDBRANCH   1   3
BRANCH   1  15
ATOM     14  C   UNL     1       0.992  -0.013  -0.338  0.00  0.00    +0.000 C 
ATOM     15  C   UNL     1       2.514   0.085  -0.091  0.00  0.00    +0.000 C 
ATOM     16  C   UNL     1       3.105   1.227  -0.937  0.00  0.00    +0.000 C 
BRANCH  15  17
ATOM     17  C   UNL     1       3.121  -1.298  -0.449  0.00  0.00    +0.000 A 
ATOM     18  C   UNL     1       4.058  -1.481  -1.482  0.00  0.00    +0.000 A 
ATOM     19  C   UNL     1       4.531  -2.755  -1.816  0.00  0.00    +0.000 A 
ATOM     20  C   UNL     1       4.080  -3.875  -1.125  0.00  0.00    +0.000 A 
ATOM     21  C   UNL     1       3.166  -3.722  -0.088  0.00  0.00    +0.000 A 
ATOM     22  C   UNL     1       2.698  -2.448   0.250  0.00  0.00    +0.000 A 
ENDBRANCH  15  17
ENDBRANCH   1  15
TORSDOF 4
