REMARK  Name = 
REMARK  6 active torsions:
REMARK  status: ('A' for Active; 'I' for Inactive)
REMARK    1  A    between atoms: N_1  and  C_2
REMARK    2  A    between atoms: C_2  and  C_3
REMARK    3  A    between atoms: C_2  and  C_18
REMARK    4  A    between atoms: C_3  and  C_4
REMARK    5  A    between atoms: C_7  and  S_8
REMARK    6  A    between atoms: S_8  and  N_11
REMARK                            x       y       z     vdW  Elec       q    Type
REMARK                         _______ _______ _______ _____ _____    ______ ____
ROOT
ATOM      1  C   UNL     1      -0.098  -0.003   1.337  0.00  0.00    +0.000 C 
ENDROOT
BRANCH   1   2
ATOM      2  C   UNL     1       0.584   0.454   2.611  0.00  0.00    +0.000 A 
ATOM      3  C   UNL     1       0.155   1.554   3.339  0.00  0.00    +0.000 A 
ATOM      4  S   UNL     1       1.085   1.848   4.739  0.00  0.00    +0.000 S 
ATOM      5  C   UNL     1       2.089   0.509   4.425  0.00  0.00    +0.000 A 
ATOM      6  N   UNL     1       3.108   0.182   5.262  0.00  0.00    +0.000 NA
ATOM      7  C   UNL     1       3.780  -0.864   4.903  0.00  0.00    +0.000 A 
ATOM      8  N   UNL     1       3.521  -1.610   3.785  0.00  0.00    +0.000 N 
ATOM      9  C   UNL     1       2.473  -1.352   2.934  0.00  0.00    +0.000 A 
ATOM     10  O   UNL     1       2.210  -2.095   1.996  0.00  0.00    +0.000 OA
ATOM     11  C   UNL     1       1.711  -0.161   3.274  0.00  0.00    +0.000 A 
ATOM     12  H   UNL     1       4.071  -2.432   3.575  0.00  0.00    +0.000 HD
ENDBRANCH   1   2
BRANCH   1  13
ATOM     13  N   UNL     1      -0.631  -1.344   1.582  0.00  0.00    +0.000 NA
ATOM     14  H   UNL     1      -1.109  -1.367   2.481  0.00  0.00    +0.000 HD
ATOM     15  H   UNL     1       0.152  -2.003   1.646  0.00  0.00    +0.000 HD
ENDBRANCH   1  13
BRANCH   1  16
ATOM     16  C   UNL     1       0.814   0.094   0.085  0.00  0.00    +0.000 C 
BRANCH  16  17
ATOM     17  C   UNL     1       0.236  -0.309  -1.257  0.00  0.00    +0.000 A 
ATOM     18  C   UNL     1       1.054  -0.263  -2.397  0.00  0.00    +0.000 A 
ATOM     19  C   UNL     1       0.567  -0.691  -3.631  0.00  0.00    +0.000 A 
ATOM     20  C   UNL     1      -0.732  -1.167  -3.677  0.00  0.00    +0.000 A 
ATOM     21  N   UNL     1      -1.565  -1.211  -2.612  0.00  0.00    +0.000 NA
ATOM     22  C   UNL     1      -1.065  -0.771  -1.436  0.00  0.00    +0.000 A 
BRANCH  20  23
ATOM     23  S   UNL     1      -1.352  -1.880  -5.206  0.00  0.00    +0.000 S 
ATOM     24  O   UNL     1      -1.402  -0.803  -6.177  0.00  0.00    +0.000 OA
ATOM     25  O   UNL     1      -0.548  -3.061  -5.457  0.00  0.00    +0.000 OA
BRANCH  23  26
ATOM     26  N   UNL     1      -2.945  -2.407  -4.943  0.00  0.00    +0.000 NA
ATOM     27  C   UNL     1      -4.028  -1.420  -4.806  0.00  0.00    +0.000 C 
ATOM     28  C   UNL     1      -4.496  -1.539  -3.369  0.00  0.00    +0.000 C 
ATOM     29  C   UNL     1      -4.232  -2.990  -3.000  0.00  0.00    +0.000 C 
ATOM     30  C   UNL     1      -3.177  -3.501  -3.980  0.00  0.00    +0.000 C 
ENDBRANCH  23  26
ENDBRANCH  20  23
ENDBRANCH  16  17
ENDBRANCH   1  16
TORSDOF 6
