REMARK  Name = 
REMARK  5 active torsions:
REMARK  status: ('A' for Active; 'I' for Inactive)
REMARK    1  A    between atoms: C_1  and  O_2
REMARK    2  A    between atoms: O_2  and  C_3
REMARK    3  A    between atoms: C_6  and  C_7
REMARK    4  A    between atoms: C_7  and  N_8
REMARK    5  A    between atoms: C_13  and  C_14
REMARK                            x       y       z     vdW  Elec       q    Type
REMARK                         _______ _______ _______ _____ _____    ______ ____
ROOT
ATOM      1  N   UNL     1       5.328   0.796   6.069  0.00  0.00    +0.000 N 
ATOM      2  C   UNL     1       5.064   2.102   6.402  0.00  0.00    +0.000 A 
ATOM      3  C   UNL     1       4.728   2.137   7.735  0.00  0.00    +0.000 A 
ATOM      4  C   UNL     1       5.309   0.975   8.290  0.00  0.00    +0.000 A 
ATOM      5  C   UNL     1       5.757   0.640   9.580  0.00  0.00    +0.000 A 
ATOM      6  C   UNL     1       6.353  -0.605   9.794  0.00  0.00    +0.000 A 
ATOM      7  C   UNL     1       6.304  -1.580   8.785  0.00  0.00    +0.000 A 
ATOM      8  C   UNL     1       5.851  -1.264   7.488  0.00  0.00    +0.000 A 
ATOM      9  C   UNL     1       5.493   0.069   7.247  0.00  0.00    +0.000 A 
ENDROOT
BRANCH   6  10
ATOM     10  C   UNL     1       7.109  -0.783  11.073  0.00  0.00    +0.000 C 
ATOM     11  N   UNL     1       7.673  -2.005  11.344  0.00  0.00    +0.000 N 
ATOM     12  O   UNL     1       7.274   0.145  11.854  0.00  0.00    +0.000 OA
ATOM     13  H   UNL     1       7.585  -2.814  10.757  0.00  0.00    +0.000 HD
ATOM     14  H   UNL     1       8.244  -2.065  12.171  0.00  0.00    +0.000 HD
ENDBRANCH   6  10
BRANCH   1  15
ATOM     15  C   UNL     1       5.745   0.373   4.740  0.00  0.00    +0.000 C 
BRANCH  15  19
ATOM     16  C   UNL     1       2.660  -1.275   2.187  0.00  0.00    +0.000 A 
ATOM     17  C   UNL     1       2.556   0.048   2.639  0.00  0.00    +0.000 A 
ATOM     18  C   UNL     1       3.524   0.586   3.500  0.00  0.00    +0.000 A 
ATOM     19  C   UNL     1       4.621  -0.195   3.902  0.00  0.00    +0.000 A 
ATOM     20  C   UNL     1       4.722  -1.518   3.439  0.00  0.00    +0.000 A 
ATOM     21  C   UNL     1       3.748  -2.044   2.588  0.00  0.00    +0.000 A 
BRANCH  16  23
ATOM     22  C   UNL     1       0.567  -1.261   1.050  0.00  0.00    +0.000 C 
ATOM     23  O   UNL     1       1.792  -1.916   1.349  0.00  0.00    +0.000 OA
ENDBRANCH  16  23
ENDBRANCH  15  19
ENDBRANCH   1  15
TORSDOF 4
