REMARK  Name = 
REMARK  7 active torsions:
REMARK  status: ('A' for Active; 'I' for Inactive)
REMARK    1  A    between atoms: C_1  and  C_2
REMARK    2  A    between atoms: C_5  and  C_6
REMARK    3  A    between atoms: N_8  and  C_9
REMARK    4  A    between atoms: C_9  and  C_10
REMARK    5  A    between atoms: C_13  and  C_14
REMARK    6  A    between atoms: C_14  and  N_15
REMARK    7  A    between atoms: C_16  and  C_18
REMARK                            x       y       z     vdW  Elec       q    Type
REMARK                         _______ _______ _______ _____ _____    ______ ____
ROOT
ATOM      1  C   UNL     1      -6.301  -0.821   0.012  0.00  0.00    +0.000 A 
ATOM      2  C   UNL     1      -7.555  -1.437   0.122  0.00  0.00    +0.000 A 
ATOM      3  C   UNL     1      -8.728  -0.673   0.163  0.00  0.00    +0.000 A 
ATOM      4  C   UNL     1      -8.674   0.725   0.073  0.00  0.00    +0.000 A 
ATOM      5  C   UNL     1      -7.420   1.340  -0.035  0.00  0.00    +0.000 A 
ATOM      6  C   UNL     1      -6.248   0.577  -0.077  0.00  0.00    +0.000 A 
ENDROOT
BRANCH   1   7
ATOM      7  C   UNL     1      -5.038  -1.644  -0.024  0.00  0.00    +0.000 C 
BRANCH   7  10
ATOM      8  C   UNL     1      -3.614  -2.852  -1.622  0.00  0.00    +0.000 C 
ATOM      9  O   UNL     1      -2.898  -3.290  -0.729  0.00  0.00    +0.000 OA
ATOM     10  N   UNL     1      -4.691  -2.034  -1.371  0.00  0.00    +0.000 N 
ATOM     11  H   UNL     1      -5.227  -1.647  -2.133  0.00  0.00    +0.000 HD
BRANCH   8  16
ATOM     12  C   UNL     1      -1.450  -4.855  -5.610  0.00  0.00    +0.000 C 
ATOM     13  C   UNL     1      -2.412  -4.060  -4.810  0.00  0.00    +0.000 A 
ATOM     14  N   UNL     1      -3.435  -3.375  -5.273  0.00  0.00    +0.000 NA
ATOM     15  C   UNL     1      -4.038  -2.821  -4.174  0.00  0.00    +0.000 A 
ATOM     16  C   UNL     1      -3.379  -3.163  -3.010  0.00  0.00    +0.000 A 
ATOM     17  N   UNL     1      -2.336  -3.953  -3.444  0.00  0.00    +0.000 N 
ATOM     18  H   UNL     1      -1.645  -4.381  -2.842  0.00  0.00    +0.000 HD
ENDBRANCH   8  16
ENDBRANCH   7  10
ENDBRANCH   1   7
BRANCH   4  19
ATOM     19  C   UNL     1      -9.930   1.558   0.121  0.00  0.00    +0.000 C 
BRANCH  19  20
ATOM     20  N   UNL     1     -10.264   1.937   1.471  0.00  0.00    +0.000 N 
ATOM     21  C   UNL     1     -11.409   2.645   1.747  0.00  0.00    +0.000 C 
ATOM     22  O   UNL     1     -12.215   2.942   0.869  0.00  0.00    +0.000 OA
ATOM     23  H   UNL     1      -9.517   1.913   2.157  0.00  0.00    +0.000 HD
BRANCH  21  24
ATOM     24  C   UNL     1     -11.656   2.980   3.156  0.00  0.00    +0.000 A 
ATOM     25  C   UNL     1     -12.951   3.237   3.585  0.00  0.00    +0.000 A 
ATOM     26  S   UNL     1     -13.069   3.551   5.258  0.00  0.00    +0.000 S 
ATOM     27  C   UNL     1     -11.385   3.410   5.458  0.00  0.00    +0.000 A 
ATOM     28  N   UNL     1     -10.808   3.592   6.676  0.00  0.00    +0.000 NA
ATOM     29  C   UNL     1      -9.521   3.492   6.676  0.00  0.00    +0.000 A 
ATOM     30  N   UNL     1      -8.759   3.221   5.569  0.00  0.00    +0.000 N 
ATOM     31  C   UNL     1      -9.300   2.998   4.325  0.00  0.00    +0.000 A 
ATOM     32  O   UNL     1      -8.594   2.715   3.364  0.00  0.00    +0.000 OA
ATOM     33  C   UNL     1     -10.745   3.111   4.268  0.00  0.00    +0.000 A 
ATOM     34  H   UNL     1      -7.755   3.149   5.637  0.00  0.00    +0.000 HD
ENDBRANCH  21  24
ENDBRANCH  19  20
ENDBRANCH   4  19
TORSDOF 6
