REMARK  Name = 
REMARK  8 active torsions:
REMARK  status: ('A' for Active; 'I' for Inactive)
REMARK    1  A    between atoms: C_1  and  N_2
REMARK    2  A    between atoms: N_2  and  C_3
REMARK    3  A    between atoms: C_3  and  C_4
REMARK    4  A    between atoms: C_4  and  C_5
REMARK    5  A    between atoms: C_8  and  C_9
REMARK    6  A    between atoms: C_9  and  O_10
REMARK    7  A    between atoms: O_10  and  C_11
REMARK    8  A    between atoms: C_15  and  C_16
REMARK                            x       y       z     vdW  Elec       q    Type
REMARK                         _______ _______ _______ _____ _____    ______ ____
ROOT
ATOM      1  C   UNL     1       6.034  -4.761  -5.211  0.00  0.00    +0.000 C 
ENDROOT
BRANCH   1   5
ATOM      2  C   UNL     1       4.903  -1.977  -2.103  0.00  0.00    +0.000 A 
ATOM      3  C   UNL     1       5.762  -1.579  -3.136  0.00  0.00    +0.000 A 
ATOM      4  C   UNL     1       6.149  -2.483  -4.127  0.00  0.00    +0.000 A 
ATOM      5  C   UNL     1       5.687  -3.804  -4.099  0.00  0.00    +0.000 A 
ATOM      6  C   UNL     1       4.885  -4.220  -3.030  0.00  0.00    +0.000 A 
ATOM      7  C   UNL     1       4.491  -3.313  -2.043  0.00  0.00    +0.000 A 
BRANCH   2   8
ATOM      8  C   UNL     1       4.416  -0.974  -1.081  0.00  0.00    +0.000 C 
BRANCH   8   9
ATOM      9  C   UNL     1       3.576   0.138  -1.731  0.00  0.00    +0.000 C 
BRANCH   9  11
ATOM     10  C   UNL     1       2.320   2.153  -1.364  0.00  0.00    +0.000 C 
ATOM     11  N   UNL     1       3.088   1.089  -0.728  0.00  0.00    +0.000 NA
ATOM     12  H   UNL     1       2.493   0.601  -0.059  0.00  0.00    +0.000 HD
ENDBRANCH   9  11
ENDBRANCH   8   9
ENDBRANCH   2   8
ENDBRANCH   1   5
BRANCH   1  13
ATOM     13  O   UNL     1       7.248  -5.438  -4.898  0.00  0.00    +0.000 OA
BRANCH  13  14
ATOM     14  C   UNL     1       7.721  -6.302  -5.852  0.00  0.00    +0.000 A 
ATOM     15  C   UNL     1       7.056  -6.665  -7.025  0.00  0.00    +0.000 A 
ATOM     16  C   UNL     1       7.651  -7.552  -7.922  0.00  0.00    +0.000 A 
ATOM     17  C   UNL     1       8.918  -8.071  -7.654  0.00  0.00    +0.000 A 
ATOM     18  C   UNL     1       9.600  -7.712  -6.484  0.00  0.00    +0.000 A 
ATOM     19  C   UNL     1       8.986  -6.836  -5.580  0.00  0.00    +0.000 A 
BRANCH  18  20
ATOM     20  C   UNL     1      10.965  -8.277  -6.282  0.00  0.00    +0.000 C 
ATOM     21  N   UNL     1      11.663  -7.925  -5.159  0.00  0.00    +0.000 N 
ATOM     22  O   UNL     1      11.472  -9.034  -7.101  0.00  0.00    +0.000 OA
ATOM     23  H   UNL     1      11.340  -7.294  -4.444  0.00  0.00    +0.000 HD
ATOM     24  H   UNL     1      12.597  -8.303  -5.071  0.00  0.00    +0.000 HD
ENDBRANCH  18  20
ENDBRANCH  13  14
ENDBRANCH   1  13
TORSDOF 7
