REMARK  Name = 
REMARK  5 active torsions:
REMARK  status: ('A' for Active; 'I' for Inactive)
REMARK    1  A    between atoms: C_2  and  C_4
REMARK    2  A    between atoms: C_7  and  O_8
REMARK    3  A    between atoms: O_8  and  C_9
REMARK    4  A    between atoms: C_9  and  C_10
REMARK    5  A    between atoms: C_14  and  C_15
REMARK                            x       y       z     vdW  Elec       q    Type
REMARK                         _______ _______ _______ _____ _____    ______ ____
ROOT
ATOM      1  C   UNL     1       4.980  -0.377  -5.940  0.00  0.00    +0.000 C 
ENDROOT
BRANCH   1   2
ATOM      2  C   UNL     1       5.922  -0.796  -7.037  0.00  0.00    +0.000 A 
ATOM      3  C   UNL     1       6.028  -2.135  -7.391  0.00  0.00    +0.000 A 
ATOM      4  N   UNL     1       6.818  -2.591  -8.384  0.00  0.00    +0.000 NA
ATOM      5  C   UNL     1       7.540  -1.664  -9.060  0.00  0.00    +0.000 A 
ATOM      6  C   UNL     1       7.512  -0.287  -8.823  0.00  0.00    +0.000 A 
ATOM      7  C   UNL     1       6.658   0.128  -7.789  0.00  0.00    +0.000 A 
BRANCH   6   8
ATOM      8  C   UNL     1       8.332   0.671  -9.594  0.00  0.00    +0.000 A 
ATOM      9  C   UNL     1       8.632   0.462 -10.955  0.00  0.00    +0.000 A 
ATOM     10  C   UNL     1       9.423   1.363 -11.678  0.00  0.00    +0.000 A 
ATOM     11  C   UNL     1       9.922   2.503 -11.058  0.00  0.00    +0.000 A 
ATOM     12  C   UNL     1       9.628   2.730  -9.722  0.00  0.00    +0.000 A 
ATOM     13  F   UNL     1      10.099   3.829  -9.119  0.00  0.00    +0.000 F 
ATOM     14  C   UNL     1       8.851   1.832  -8.994  0.00  0.00    +0.000 A 
ENDBRANCH   6   8
ENDBRANCH   1   2
BRANCH   1  15
ATOM     15  O   UNL     1       5.478   0.785  -5.267  0.00  0.00    +0.000 OA
BRANCH  15  19
ATOM     16  C   UNL     1       2.963   2.112  -2.290  0.00  0.00    +0.000 A 
ATOM     17  C   UNL     1       4.143   2.810  -2.559  0.00  0.00    +0.000 A 
ATOM     18  C   UNL     1       4.990   2.350  -3.569  0.00  0.00    +0.000 A 
ATOM     19  C   UNL     1       4.624   1.211  -4.271  0.00  0.00    +0.000 A 
ATOM     20  N   UNL     1       3.494   0.513  -4.026  0.00  0.00    +0.000 NA
ATOM     21  C   UNL     1       2.694   0.971  -3.035  0.00  0.00    +0.000 A 
BRANCH  16  23
ATOM     22  N   UNL     1       1.932   3.829  -0.915  0.00  0.00    +0.000 N 
ATOM     23  C   UNL     1       1.995   2.505  -1.246  0.00  0.00    +0.000 C 
ATOM     24  O   UNL     1       1.248   1.686  -0.729  0.00  0.00    +0.000 OA
ATOM     25  H   UNL     1       1.182   4.093  -0.288  0.00  0.00    +0.000 HD
ATOM     26  H   UNL     1       2.335   4.555  -1.489  0.00  0.00    +0.000 HD
ENDBRANCH  16  23
ENDBRANCH  15  19
ENDBRANCH   1  15
TORSDOF 5
