REMARK  Name = 
REMARK  7 active torsions:
REMARK  status: ('A' for Active; 'I' for Inactive)
REMARK    1  A    between atoms: C_1  and  N_2
REMARK    2  A    between atoms: N_2  and  C_3
REMARK    3  A    between atoms: C_3  and  C_4
REMARK    4  A    between atoms: C_7  and  C_8
REMARK    5  A    between atoms: C_8  and  O_9
REMARK    6  A    between atoms: O_9  and  C_10
REMARK    7  A    between atoms: C_18  and  C_20
REMARK                            x       y       z     vdW  Elec       q    Type
REMARK                         _______ _______ _______ _____ _____    ______ ____
ROOT
ATOM      1  C   UNL     1       1.133  -0.663  -0.068  0.00  0.00    +0.000 C 
ATOM      2  N   UNL     1       2.459  -0.071   0.080  0.00  0.00    +0.000 N 
ATOM      3  C   UNL     1       2.942   0.638  -1.033  0.00  0.00    +0.000 C 
ATOM      4  O   UNL     1       2.283   0.732  -2.066  0.00  0.00    +0.000 OA
ENDROOT
BRANCH   3   5
ATOM      5  C   UNL     1       4.279   1.243  -0.975  0.00  0.00    +0.000 A 
ATOM      6  C   UNL     1       5.409   0.606  -0.486  0.00  0.00    +0.000 A 
ATOM      7  S   UNL     1       6.832   1.538  -0.627  0.00  0.00    +0.000 S 
ATOM      8  C   UNL     1       6.008   2.762  -1.474  0.00  0.00    +0.000 A 
ATOM      9  N   UNL     1       6.676   3.826  -1.989  0.00  0.00    +0.000 NA
ATOM     10  C   UNL     1       5.931   4.639  -2.663  0.00  0.00    +0.000 A 
ATOM     11  N   UNL     1       4.577   4.504  -2.833  0.00  0.00    +0.000 N 
ATOM     12  C   UNL     1       3.839   3.518  -2.213  0.00  0.00    +0.000 A 
ATOM     13  O   UNL     1       2.614   3.570  -2.184  0.00  0.00    +0.000 OA
ATOM     14  C   UNL     1       4.651   2.512  -1.552  0.00  0.00    +0.000 A 
ATOM     15  H   UNL     1       4.045   5.214  -3.314  0.00  0.00    +0.000 HD
ENDBRANCH   3   5
BRANCH   2  16
ATOM     16  C   UNL     1       3.098  -0.028   1.400  0.00  0.00    +0.000 C 
BRANCH  16  17
ATOM     17  C   UNL     1       2.257  -0.435   2.581  0.00  0.00    +0.000 A 
ATOM     18  C   UNL     1       2.290  -1.757   3.057  0.00  0.00    +0.000 A 
ATOM     19  C   UNL     1       1.472  -2.144   4.117  0.00  0.00    +0.000 A 
ATOM     20  C   UNL     1       0.606  -1.219   4.710  0.00  0.00    +0.000 A 
ATOM     21  C   UNL     1       0.606   0.108   4.263  0.00  0.00    +0.000 A 
ATOM     22  C   UNL     1       1.418   0.496   3.199  0.00  0.00    +0.000 A 
BRANCH  20  23
ATOM     23  C   UNL     1      -0.344  -1.647   5.797  0.00  0.00    +0.000 C 
BRANCH  23  24
ATOM     24  O   UNL     1       0.282  -1.501   7.069  0.00  0.00    +0.000 OA
BRANCH  24  25
ATOM     25  C   UNL     1      -0.596  -1.787   8.093  0.00  0.00    +0.000 A 
ATOM     26  C   UNL     1      -0.134  -1.705   9.398  0.00  0.00    +0.000 A 
ATOM     27  N   UNL     1      -0.928  -1.953  10.470  0.00  0.00    +0.000 NA
ATOM     28  C   UNL     1      -2.205  -2.285  10.173  0.00  0.00    +0.000 A 
ATOM     29  C   UNL     1      -2.668  -2.368   8.869  0.00  0.00    +0.000 A 
ATOM     30  N   UNL     1      -1.874  -2.126   7.806  0.00  0.00    +0.000 NA
ENDBRANCH  24  25
ENDBRANCH  23  24
ENDBRANCH  20  23
ENDBRANCH  16  17
ENDBRANCH   2  16
TORSDOF 6
