REMARK  Name = 
REMARK  8 active torsions:
REMARK  status: ('A' for Active; 'I' for Inactive)
REMARK    1  A    between atoms: C_2  and  C_20
REMARK    2  A    between atoms: N_3  and  C_4
REMARK    3  A    between atoms: C_4  and  C_5
REMARK    4  A    between atoms: C_8  and  C_9
REMARK    5  A    between atoms: C_9  and  O_10
REMARK    6  A    between atoms: C_9  and  C_11
REMARK    7  A    between atoms: C_11  and  N_12
REMARK    8  A    between atoms: N_12  and  C_13
REMARK                            x       y       z     vdW  Elec       q    Type
REMARK                         _______ _______ _______ _____ _____    ______ ____
ROOT
ATOM      1  C   UNL     1      10.134   2.297   5.415  0.00  0.00    +0.000 A 
ATOM      2  C   UNL     1       9.196   1.279   5.236  0.00  0.00    +0.000 A 
ATOM      3  C   UNL     1       7.846   1.519   5.500  0.00  0.00    +0.000 A 
ATOM      4  C   UNL     1       7.461   2.786   5.929  0.00  0.00    +0.000 A 
ATOM      5  N   UNL     1       8.347   3.814   6.030  0.00  0.00    +0.000 NA
ATOM      6  C   UNL     1       9.649   3.549   5.771  0.00  0.00    +0.000 A 
ENDROOT
BRANCH   1   7
ATOM      7  C   UNL     1      11.604   2.054   5.239  0.00  0.00    +0.000 C 
BRANCH   7  10
ATOM      8  O   UNL     1      11.923   0.041   3.303  0.00  0.00    +0.000 OA
ATOM      9  C   UNL     1      12.111   1.210   2.980  0.00  0.00    +0.000 C 
ATOM     10  N   UNL     1      12.022   2.243   3.877  0.00  0.00    +0.000 N 
ATOM     11  H   UNL     1      12.047   3.199   3.539  0.00  0.00    +0.000 HD
BRANCH   9  12
ATOM     12  C   UNL     1      12.487   1.578   1.610  0.00  0.00    +0.000 A 
ATOM     13  C   UNL     1      13.074   0.635   0.779  0.00  0.00    +0.000 A 
ATOM     14  S   UNL     1      13.419   1.223  -0.784  0.00  0.00    +0.000 S 
ATOM     15  C   UNL     1      12.760   2.748  -0.415  0.00  0.00    +0.000 A 
ATOM     16  N   UNL     1      12.693   3.727  -1.355  0.00  0.00    +0.000 NA
ATOM     17  C   UNL     1      12.132   4.818  -0.952  0.00  0.00    +0.000 A 
ATOM     18  N   UNL     1      11.652   5.028   0.314  0.00  0.00    +0.000 N 
ATOM     19  C   UNL     1      11.776   4.099   1.320  0.00  0.00    +0.000 A 
ATOM     20  O   UNL     1      11.483   4.374   2.480  0.00  0.00    +0.000 OA
ATOM     21  C   UNL     1      12.330   2.825   0.898  0.00  0.00    +0.000 A 
ATOM     22  H   UNL     1      11.263   5.918   0.576  0.00  0.00    +0.000 HD
ENDBRANCH   9  12
ENDBRANCH   7  10
ENDBRANCH   1   7
BRANCH   4  23
ATOM     23  C   UNL     1       6.027   3.071   6.364  0.00  0.00    +0.000 C 
BRANCH  23  24
ATOM     24  O   UNL     1       5.492   4.110   5.540  0.00  0.00    +0.000 OA
ATOM     25  H   UNL     1       6.157   4.824   5.572  0.00  0.00    +0.000 HD
ENDBRANCH  23  24
BRANCH  23  26
ATOM     26  C   UNL     1       6.044   3.510   7.858  0.00  0.00    +0.000 C 
BRANCH  26  27
ATOM     27  N   UNL     1       4.742   3.902   8.445  0.00  0.00    +0.000 NA
ATOM     28  H   UNL     1       4.080   3.138   8.341  0.00  0.00    +0.000 HD
BRANCH  27  29
ATOM     29  C   UNL     1       4.893   4.263   9.873  0.00  0.00    +0.000 C 
ATOM     30  C   UNL     1       3.553   4.583  10.515  0.00  0.00    +0.000 C 
ATOM     31  C   UNL     1       3.357   6.044  10.177  0.00  0.00    +0.000 C 
ATOM     32  O   UNL     1       4.657   6.642  10.221  0.00  0.00    +0.000 OA
ATOM     33  C   UNL     1       5.632   5.589  10.122  0.00  0.00    +0.000 C 
ENDBRANCH  27  29
ENDBRANCH  26  27
ENDBRANCH  23  26
ENDBRANCH   4  23
TORSDOF 8
