REMARK  Name = 
REMARK  7 active torsions:
REMARK  status: ('A' for Active; 'I' for Inactive)
REMARK    1  A    between atoms: C_2  and  C_20
REMARK    2  A    between atoms: N_3  and  C_4
REMARK    3  A    between atoms: C_4  and  C_5
REMARK    4  A    between atoms: C_8  and  C_9
REMARK    5  A    between atoms: C_9  and  N_10
REMARK    6  A    between atoms: N_10  and  C_11
REMARK    7  A    between atoms: C_11  and  C_12
REMARK                            x       y       z     vdW  Elec       q    Type
REMARK                         _______ _______ _______ _____ _____    ______ ____
ROOT
ATOM      1  C   UNL     1       3.268   2.342  -2.833  0.00  0.00    +0.000 A 
ATOM      2  C   UNL     1       3.096   3.722  -2.944  0.00  0.00    +0.000 A 
ATOM      3  C   UNL     1       3.903   4.438  -3.816  0.00  0.00    +0.000 A 
ATOM      4  C   UNL     1       4.882   3.779  -4.559  0.00  0.00    +0.000 A 
ATOM      5  C   UNL     1       4.979   2.399  -4.388  0.00  0.00    +0.000 A 
ATOM      6  N   UNL     1       4.206   1.671  -3.546  0.00  0.00    +0.000 NA
ENDROOT
BRANCH   1   7
ATOM      7  C   UNL     1       2.343   1.552  -1.940  0.00  0.00    +0.000 C 
BRANCH   7  10
ATOM      8  O   UNL     1      -0.062   2.952  -2.150  0.00  0.00    +0.000 OA
ATOM      9  C   UNL     1       0.043   1.859  -2.721  0.00  0.00    +0.000 C 
ATOM     10  N   UNL     1       1.168   1.090  -2.639  0.00  0.00    +0.000 N 
ATOM     11  H   UNL     1       1.345   0.390  -3.357  0.00  0.00    +0.000 HD
BRANCH   9  12
ATOM     12  C   UNL     1      -1.065   1.288  -3.471  0.00  0.00    +0.000 A 
ATOM     13  C   UNL     1      -2.387   1.561  -3.154  0.00  0.00    +0.000 A 
ATOM     14  S   UNL     1      -3.497   0.756  -4.177  0.00  0.00    +0.000 S 
ATOM     15  C   UNL     1      -2.239   0.047  -5.079  0.00  0.00    +0.000 A 
ATOM     16  N   UNL     1      -2.498  -0.779  -6.130  0.00  0.00    +0.000 NA
ATOM     17  C   UNL     1      -1.443  -1.229  -6.723  0.00  0.00    +0.000 A 
ATOM     18  N   UNL     1      -0.154  -0.929  -6.378  0.00  0.00    +0.000 N 
ATOM     19  C   UNL     1       0.156  -0.138  -5.307  0.00  0.00    +0.000 A 
ATOM     20  O   UNL     1       1.324   0.033  -4.972  0.00  0.00    +0.000 OA
ATOM     21  C   UNL     1      -0.995   0.409  -4.605  0.00  0.00    +0.000 A 
ATOM     22  H   UNL     1       0.631  -1.333  -6.862  0.00  0.00    +0.000 HD
ENDBRANCH   9  12
ENDBRANCH   7  10
ENDBRANCH   1   7
BRANCH   4  23
ATOM     23  C   UNL     1       5.754   4.497  -5.551  0.00  0.00    +0.000 C 
BRANCH  23  24
ATOM     24  N   UNL     1       6.591   5.550  -4.946  0.00  0.00    +0.000 NA
ATOM     25  H   UNL     1       7.204   5.114  -4.258  0.00  0.00    +0.000 HD
BRANCH  24  26
ATOM     26  C   UNL     1       7.408   6.166  -5.997  0.00  0.00    +0.000 C 
BRANCH  26  27
ATOM     27  C   UNL     1       8.335   7.331  -5.611  0.00  0.00    +0.000 C 
ATOM     28  C   UNL     1       7.582   8.515  -4.999  0.00  0.00    +0.000 C 
ATOM     29  C   UNL     1       8.511   9.724  -5.013  0.00  0.00    +0.000 C 
ATOM     30  C   UNL     1       9.830   9.425  -4.297  0.00  0.00    +0.000 C 
ATOM     31  N   UNL     1      10.468   8.188  -4.759  0.00  0.00    +0.000 NA
ATOM     32  C   UNL     1       9.553   7.031  -4.720  0.00  0.00    +0.000 C 
ATOM     33  H   UNL     1      11.296   8.004  -4.194  0.00  0.00    +0.000 HD
ENDBRANCH  26  27
ENDBRANCH  24  26
ENDBRANCH  23  24
ENDBRANCH   4  23
TORSDOF 7
