REMARK  Name = 
REMARK  5 active torsions:
REMARK  status: ('A' for Active; 'I' for Inactive)
REMARK    1  A    between atoms: N_1  and  C_2
REMARK    2  A    between atoms: C_2  and  C_3
REMARK    3  A    between atoms: C_6  and  S_7
REMARK    4  A    between atoms: S_7  and  C_8
REMARK    5  A    between atoms: C_8  and  C_9
REMARK                            x       y       z     vdW  Elec       q    Type
REMARK                         _______ _______ _______ _____ _____    ______ ____
ROOT
ATOM      1  C   UNL     1       2.906  -0.504   1.239  0.00  0.00    +0.000 A 
ATOM      2  C   UNL     1       3.254   0.377   2.274  0.00  0.00    +0.000 A 
ATOM      3  C   UNL     1       3.564  -0.101   3.557  0.00  0.00    +0.000 A 
ATOM      4  C   UNL     1       3.524  -1.469   3.833  0.00  0.00    +0.000 A 
ATOM      5  C   UNL     1       3.200  -2.350   2.793  0.00  0.00    +0.000 A 
ATOM      6  C   UNL     1       2.891  -1.876   1.514  0.00  0.00    +0.000 A 
ENDROOT
BRANCH   1   7
ATOM      7  C   UNL     1       2.521   0.006  -0.128  0.00  0.00    +0.000 C 
BRANCH   7   8
ATOM      8  N   UNL     1       3.578   0.805  -0.737  0.00  0.00    +0.000 NA
ATOM      9  H   UNL     1       3.317   1.020  -1.698  0.00  0.00    +0.000 HD
ATOM     10  H   UNL     1       4.425   0.241  -0.792  0.00  0.00    +0.000 HD
ENDBRANCH   7   8
ENDBRANCH   1   7
BRANCH   4  11
ATOM     11  S   UNL     1       3.955  -2.194   5.412  0.00  0.00    +0.000 S 
BRANCH  11  12
ATOM     12  C   UNL     1       3.285  -0.993   6.619  0.00  0.00    +0.000 C 
BRANCH  12  13
ATOM     13  C   UNL     1       3.449  -1.463   8.048  0.00  0.00    +0.000 A 
ATOM     14  C   UNL     1       2.789  -2.593   8.524  0.00  0.00    +0.000 A 
ATOM     15  N   UNL     1       2.893  -3.033   9.805  0.00  0.00    +0.000 NA
ATOM     16  C   UNL     1       3.698  -2.295  10.604  0.00  0.00    +0.000 A 
ATOM     17  C   UNL     1       4.356  -1.168  10.146  0.00  0.00    +0.000 A 
ATOM     18  N   UNL     1       4.243  -0.724   8.872  0.00  0.00    +0.000 NA
ENDBRANCH  12  13
ENDBRANCH  11  12
ENDBRANCH   4  11
TORSDOF 5
