REMARK  Name = 
REMARK  5 active torsions:
REMARK  status: ('A' for Active; 'I' for Inactive)
REMARK    1  A    between atoms: C_2  and  C_4
REMARK    2  A    between atoms: C_7  and  N_8
REMARK    3  A    between atoms: N_8  and  C_9
REMARK    4  A    between atoms: C_9  and  C_10
REMARK    5  A    between atoms: C_13  and  C_14
REMARK                            x       y       z     vdW  Elec       q    Type
REMARK                         _______ _______ _______ _____ _____    ______ ____
ROOT
ATOM      1  C   UNL     1       5.025  -4.459  -4.016  0.00  0.00    +0.000 C 
ENDROOT
BRANCH   1   2
ATOM      2  C   UNL     1       5.893  -5.631  -4.396  0.00  0.00    +0.000 A 
ATOM      3  C   UNL     1       7.208  -5.435  -4.825  0.00  0.00    +0.000 A 
ATOM      4  C   UNL     1       8.007  -6.525  -5.188  0.00  0.00    +0.000 A 
ATOM      5  C   UNL     1       7.514  -7.842  -5.158  0.00  0.00    +0.000 A 
ATOM      6  C   UNL     1       6.186  -8.019  -4.731  0.00  0.00    +0.000 A 
ATOM      7  C   UNL     1       5.386  -6.934  -4.357  0.00  0.00    +0.000 A 
BRANCH   5   8
ATOM      8  C   UNL     1       8.345  -8.993  -5.587  0.00  0.00    +0.000 A 
ATOM      9  C   UNL     1       8.213 -10.263  -4.992  0.00  0.00    +0.000 A 
ATOM     10  C   UNL     1       8.963 -11.363  -5.428  0.00  0.00    +0.000 A 
ATOM     11  C   UNL     1       9.878 -11.210  -6.463  0.00  0.00    +0.000 A 
ATOM     12  C   UNL     1      10.035  -9.963  -7.048  0.00  0.00    +0.000 A 
ATOM     13  F   UNL     1      10.919  -9.807  -8.043  0.00  0.00    +0.000 F 
ATOM     14  C   UNL     1       9.283  -8.868  -6.627  0.00  0.00    +0.000 A 
ENDBRANCH   5   8
ENDBRANCH   1   2
BRANCH   1  15
ATOM     15  N   UNL     1       4.239  -4.039  -5.162  0.00  0.00    +0.000 N 
ATOM     16  H   UNL     1       4.730  -4.097  -6.051  0.00  0.00    +0.000 HD
BRANCH  15  20
ATOM     17  C   UNL     1       1.425  -0.902  -4.969  0.00  0.00    +0.000 A 
ATOM     18  C   UNL     1       2.149  -1.248  -3.826  0.00  0.00    +0.000 A 
ATOM     19  C   UNL     1       3.099  -2.275  -3.882  0.00  0.00    +0.000 A 
ATOM     20  C   UNL     1       3.369  -2.955  -5.076  0.00  0.00    +0.000 A 
ATOM     21  C   UNL     1       2.616  -2.610  -6.206  0.00  0.00    +0.000 A 
ATOM     22  C   UNL     1       1.649  -1.598  -6.158  0.00  0.00    +0.000 A 
BRANCH  17  24
ATOM     23  N   UNL     1       0.556   1.166  -4.032  0.00  0.00    +0.000 N 
ATOM     24  C   UNL     1       0.391   0.163  -4.944  0.00  0.00    +0.000 C 
ATOM     25  O   UNL     1      -0.549   0.169  -5.726  0.00  0.00    +0.000 OA
ATOM     26  H   UNL     1      -0.093   1.940  -4.095  0.00  0.00    +0.000 HD
ATOM     27  H   UNL     1       1.434   1.329  -3.558  0.00  0.00    +0.000 HD
ENDBRANCH  17  24
ENDBRANCH  15  20
ENDBRANCH   1  15
TORSDOF 5
