REMARK  Name = 
REMARK  4 active torsions:
REMARK  status: ('A' for Active; 'I' for Inactive)
REMARK    1  A    between atoms: C_2  and  C_3
REMARK    2  A    between atoms: C_7  and  C_8
REMARK    3  A    between atoms: C_8  and  N_9
REMARK    4  A    between atoms: C_14  and  C_15
REMARK                            x       y       z     vdW  Elec       q    Type
REMARK                         _______ _______ _______ _____ _____    ______ ____
ROOT
ATOM      1  N   UNL     1       3.875   2.293  -0.028  0.00  0.00    +0.000 N 
ATOM      2  C   UNL     1       4.644   2.737   1.023  0.00  0.00    +0.000 A 
ATOM      3  C   UNL     1       5.941   2.337   0.804  0.00  0.00    +0.000 A 
ATOM      4  C   UNL     1       5.971   1.612  -0.417  0.00  0.00    +0.000 A 
ATOM      5  C   UNL     1       6.984   0.947  -1.123  0.00  0.00    +0.000 A 
ATOM      6  C   UNL     1       6.608   0.322  -2.305  0.00  0.00    +0.000 A 
ATOM      7  N   UNL     1       5.346   0.328  -2.818  0.00  0.00    +0.000 NA
ATOM      8  C   UNL     1       4.372   0.973  -2.136  0.00  0.00    +0.000 A 
ATOM      9  C   UNL     1       4.671   1.608  -0.931  0.00  0.00    +0.000 A 
ENDROOT
BRANCH   6  10
ATOM     10  C   UNL     1       7.644  -0.438  -3.083  0.00  0.00    +0.000 C 
ATOM     11  N   UNL     1       7.213  -1.042  -4.234  0.00  0.00    +0.000 N 
ATOM     12  O   UNL     1       8.809  -0.530  -2.719  0.00  0.00    +0.000 OA
ATOM     13  H   UNL     1       6.242  -0.968  -4.517  0.00  0.00    +0.000 HD
ATOM     14  H   UNL     1       7.870  -1.577  -4.785  0.00  0.00    +0.000 HD
ENDBRANCH   6  10
BRANCH   1  15
ATOM     15  C   UNL     1       2.418   2.408  -0.077  0.00  0.00    +0.000 C 
BRANCH  15  20
ATOM     16  C   UNL     1       1.393   6.065  -0.486  0.00  0.00    +0.000 A 
ATOM     17  C   UNL     1       1.184   6.148  -1.865  0.00  0.00    +0.000 A 
ATOM     18  C   UNL     1       1.336   5.012  -2.659  0.00  0.00    +0.000 A 
ATOM     19  C   UNL     1       1.713   3.796  -2.081  0.00  0.00    +0.000 A 
ATOM     20  C   UNL     1       1.963   3.704  -0.704  0.00  0.00    +0.000 A 
ATOM     21  C   UNL     1       1.785   4.849   0.090  0.00  0.00    +0.000 A 
BRANCH  16  23
ATOM     22  N   UNL     1       1.031   8.147   1.017  0.00  0.00    +0.000 NA
ATOM     23  C   UNL     1       1.198   7.219   0.340  0.00  0.00    +0.000 C 
ENDBRANCH  16  23
ENDBRANCH  15  20
ENDBRANCH   1  15
TORSDOF 4
