REMARK  Name = 
REMARK  7 active torsions:
REMARK  status: ('A' for Active; 'I' for Inactive)
REMARK    1  A    between atoms: C_1  and  C_2
REMARK    2  A    between atoms: C_2  and  N_3
REMARK    3  A    between atoms: C_2  and  C_11
REMARK    4  A    between atoms: C_4  and  C_6
REMARK    5  A    between atoms: C_14  and  C_15
REMARK    6  A    between atoms: C_15  and  N_16
REMARK    7  A    between atoms: C_17  and  C_19
REMARK                            x       y       z     vdW  Elec       q    Type
REMARK                         _______ _______ _______ _____ _____    ______ ____
ROOT
ATOM      1  C   UNL     1       2.808   0.373  -4.986  0.00  0.00    +0.000 A 
ATOM      2  C   UNL     1       3.173   0.883  -6.243  0.00  0.00    +0.000 A 
ATOM      3  C   UNL     1       3.442   2.244  -6.422  0.00  0.00    +0.000 A 
ATOM      4  C   UNL     1       3.359   3.134  -5.346  0.00  0.00    +0.000 A 
ATOM      5  C   UNL     1       2.957   2.639  -4.097  0.00  0.00    +0.000 A 
ATOM      6  C   UNL     1       2.691   1.275  -3.917  0.00  0.00    +0.000 A 
ENDROOT
BRANCH   1   8
ATOM      7  C   UNL     1       3.533  -1.761  -3.823  0.00  0.00    +0.000 C 
ATOM      8  C   UNL     1       2.572  -1.119  -4.827  0.00  0.00    +0.000 C 
BRANCH   8   9
ATOM      9  N   UNL     1       1.191  -1.409  -4.477  0.00  0.00    +0.000 N 
ATOM     10  C   UNL     1       0.582  -2.578  -4.904  0.00  0.00    +0.000 C 
ATOM     11  O   UNL     1       1.148  -3.391  -5.630  0.00  0.00    +0.000 OA
ATOM     12  H   UNL     1       0.697  -0.791  -3.847  0.00  0.00    +0.000 HD
BRANCH  10  13
ATOM     13  C   UNL     1      -0.856  -2.760  -4.379  0.00  0.00    +0.000 C 
ATOM     14  C   UNL     1      -1.536  -4.002  -4.933  0.00  0.00    +0.000 C 
ATOM     15  C   UNL     1      -1.019  -5.118  -4.045  0.00  0.00    +0.000 C 
ATOM     16  C   UNL     1      -0.723  -4.444  -2.713  0.00  0.00    +0.000 C 
ATOM     17  N   UNL     1      -0.853  -2.995  -2.918  0.00  0.00    +0.000 NA
ATOM     18  H   UNL     1      -0.073  -2.515  -2.474  0.00  0.00    +0.000 HD
ENDBRANCH  10  13
ENDBRANCH   8   9
ENDBRANCH   1   8
BRANCH   4  19
ATOM     19  C   UNL     1       3.667   4.598  -5.533  0.00  0.00    +0.000 C 
BRANCH  19  20
ATOM     20  N   UNL     1       2.489   5.341  -5.907  0.00  0.00    +0.000 N 
ATOM     21  C   UNL     1       2.559   6.671  -6.229  0.00  0.00    +0.000 C 
ATOM     22  O   UNL     1       3.626   7.278  -6.262  0.00  0.00    +0.000 OA
ATOM     23  H   UNL     1       1.592   4.928  -5.674  0.00  0.00    +0.000 HD
BRANCH  21  24
ATOM     24  C   UNL     1       1.295   7.327  -6.593  0.00  0.00    +0.000 A 
ATOM     25  C   UNL     1       1.317   8.477  -7.371  0.00  0.00    +0.000 A 
ATOM     26  S   UNL     1      -0.233   9.083  -7.742  0.00  0.00    +0.000 S 
ATOM     27  C   UNL     1      -0.988   7.862  -6.831  0.00  0.00    +0.000 A 
ATOM     28  N   UNL     1      -2.342   7.817  -6.711  0.00  0.00    +0.000 NA
ATOM     29  C   UNL     1      -2.781   6.856  -5.968  0.00  0.00    +0.000 A 
ATOM     30  N   UNL     1      -1.987   5.933  -5.339  0.00  0.00    +0.000 N 
ATOM     31  C   UNL     1      -0.617   5.921  -5.455  0.00  0.00    +0.000 A 
ATOM     32  O   UNL     1       0.060   5.053  -4.911  0.00  0.00    +0.000 OA
ATOM     33  C   UNL     1      -0.071   6.990  -6.269  0.00  0.00    +0.000 A 
ATOM     34  H   UNL     1      -2.393   5.201  -4.775  0.00  0.00    +0.000 HD
ENDBRANCH  21  24
ENDBRANCH  19  20
ENDBRANCH   4  19
TORSDOF 6
