REMARK  Name = 
REMARK  9 active torsions:
REMARK  status: ('A' for Active; 'I' for Inactive)
REMARK    1  A    between atoms: C_1  and  C_2
REMARK    2  A    between atoms: C_2  and  C_3
REMARK    3  A    between atoms: C_3  and  N_4
REMARK    4  A    between atoms: C_5  and  C_7
REMARK    5  A    between atoms: N_11  and  C_12
REMARK    6  A    between atoms: C_12  and  C_13
REMARK    7  A    between atoms: C_13  and  C_14
REMARK    8  A    between atoms: C_13  and  C_15
REMARK    9  A    between atoms: C_13  and  C_16
REMARK                            x       y       z     vdW  Elec       q    Type
REMARK                         _______ _______ _______ _____ _____    ______ ____
ROOT
ATOM      1  C   UNL     1       6.656  -1.951   1.339  0.00  0.00    +0.000 A 
ATOM      2  C   UNL     1       7.168  -3.148   1.824  0.00  0.00    +0.000 A 
ATOM      3  C   UNL     1       8.552  -3.287   1.958  0.00  0.00    +0.000 A 
ATOM      4  C   UNL     1       9.397  -2.221   1.641  0.00  0.00    +0.000 A 
ATOM      5  N   UNL     1      10.768  -2.389   1.872  0.00  0.00    +0.000 N 
ATOM      6  N   UNL     1       8.913  -1.063   1.155  0.00  0.00    +0.000 NA
ATOM      7  C   UNL     1       7.562  -0.957   0.990  0.00  0.00    +0.000 A 
ATOM      8  H   UNL     1      11.118  -3.148   1.297  0.00  0.00    +0.000 HD
ENDROOT
BRANCH   1  10
ATOM      9  N   UNL     1       4.352  -2.341   2.020  0.00  0.00    +0.000 N 
ATOM     10  C   UNL     1       5.208  -1.701   1.150  0.00  0.00    +0.000 C 
ATOM     11  O   UNL     1       4.835  -0.941   0.267  0.00  0.00    +0.000 OA
ATOM     12  H   UNL     1       4.717  -2.886   2.790  0.00  0.00    +0.000 HD
BRANCH   9  13
ATOM     13  C   UNL     1       2.910  -2.213   1.906  0.00  0.00    +0.000 C 
BRANCH  13  15
ATOM     14  C   UNL     1       2.526  -4.674   1.421  0.00  0.00    +0.000 C 
ATOM     15  C   UNL     1       2.311  -3.242   0.952  0.00  0.00    +0.000 C 
ENDBRANCH  13  15
ENDBRANCH   9  13
ENDBRANCH   1  10
BRANCH   5  16
ATOM     16  C   UNL     1      11.592  -1.172   1.863  0.00  0.00    +0.000 C 
BRANCH  16  17
ATOM     17  C   UNL     1      13.129  -1.487   1.909  0.00  0.00    +0.000 C 
ATOM     18  C   UNL     1      13.403  -2.517   3.034  0.00  0.00    +0.000 C 
ATOM     19  C   UNL     1      13.578  -2.126   0.573  0.00  0.00    +0.000 C 
BRANCH  17  20
ATOM     20  C   UNL     1      13.930  -0.177   2.119  0.00  0.00    +0.000 A 
ATOM     21  C   UNL     1      14.770   0.026   3.225  0.00  0.00    +0.000 A 
ATOM     22  C   UNL     1      15.466   1.220   3.354  0.00  0.00    +0.000 A 
ATOM     23  N   UNL     1      15.399   2.231   2.467  0.00  0.00    +0.000 NA
ATOM     24  C   UNL     1      14.595   2.032   1.405  0.00  0.00    +0.000 A 
ATOM     25  C   UNL     1      13.856   0.873   1.190  0.00  0.00    +0.000 A 
ENDBRANCH  17  20
ENDBRANCH  16  17
ENDBRANCH   5  16
TORSDOF 6
