REMARK  Name = 
REMARK  6 active torsions:
REMARK  status: ('A' for Active; 'I' for Inactive)
REMARK    1  A    between atoms: C_1  and  C_2
REMARK    2  A    between atoms: C_5  and  C_6
REMARK    3  A    between atoms: C_6  and  C_7
REMARK    4  A    between atoms: C_6  and  N_8
REMARK    5  A    between atoms: N_8  and  C_9
REMARK    6  A    between atoms: C_12  and  C_13
REMARK                            x       y       z     vdW  Elec       q    Type
REMARK                         _______ _______ _______ _____ _____    ______ ____
ROOT
ATOM      1  N   UNL     1      -3.752   1.537   0.129  0.00  0.00    +0.000 N 
ATOM      2  H   UNL     1      -3.057   2.196  -0.224  0.00  0.00    +0.000 HD
ENDROOT
BRANCH   1   3
ATOM      3  C   UNL     1      -5.020   1.881  -0.363  0.00  0.00    +0.000 A 
ATOM      4  C   UNL     1      -6.087   0.987  -0.483  0.00  0.00    +0.000 A 
ATOM      5  C   UNL     1      -7.357   1.411  -0.900  0.00  0.00    +0.000 A 
ATOM      6  C   UNL     1      -7.599   2.756  -1.185  0.00  0.00    +0.000 A 
ATOM      7  C   UNL     1      -6.555   3.672  -1.049  0.00  0.00    +0.000 A 
ATOM      8  C   UNL     1      -5.290   3.237  -0.625  0.00  0.00    +0.000 A 
BRANCH   6   9
ATOM      9  C   UNL     1      -8.964   3.144  -1.632  0.00  0.00    +0.000 C 
ATOM     10  N   UNL     1      -9.352   4.440  -1.432  0.00  0.00    +0.000 N 
ATOM     11  O   UNL     1      -9.737   2.332  -2.125  0.00  0.00    +0.000 OA
ATOM     12  H   UNL     1      -8.860   5.065  -0.812  0.00  0.00    +0.000 HD
ATOM     13  H   UNL     1     -10.322   4.647  -1.635  0.00  0.00    +0.000 HD
ENDBRANCH   6   9
ENDBRANCH   1   3
BRANCH   1  14
ATOM     14  C   UNL     1      -3.243   0.153   0.018  0.00  0.00    +0.000 C 
ATOM     15  C   UNL     1      -3.671  -0.702   1.217  0.00  0.00    +0.000 C 
BRANCH  14  20
ATOM     16  C   UNL     1       2.529  -0.174  -0.380  0.00  0.00    +0.000 C 
ATOM     17  C   UNL     1       1.048  -0.017  -0.243  0.00  0.00    +0.000 A 
ATOM     18  C   UNL     1       0.464   0.520   0.903  0.00  0.00    +0.000 A 
ATOM     19  C   UNL     1      -0.925   0.615   0.992  0.00  0.00    +0.000 A 
ATOM     20  C   UNL     1      -1.710   0.154  -0.067  0.00  0.00    +0.000 A 
ATOM     21  N   UNL     1      -1.156  -0.353  -1.198  0.00  0.00    +0.000 NA
ATOM     22  C   UNL     1       0.194  -0.427  -1.259  0.00  0.00    +0.000 A 
ENDBRANCH  14  20
ENDBRANCH   1  14
TORSDOF 4
