REMARK  Name = 
REMARK  4 active torsions:
REMARK  status: ('A' for Active; 'I' for Inactive)
REMARK    1  A    between atoms: C_2  and  C_4
REMARK    2  A    between atoms: N_8  and  C_9
REMARK    3  A    between atoms: C_9  and  C_10
REMARK    4  A    between atoms: C_14  and  C_15
REMARK                            x       y       z     vdW  Elec       q    Type
REMARK                         _______ _______ _______ _____ _____    ______ ____
ROOT
ATOM      1  C   UNL     1       5.461  -4.166   3.898  0.00  0.00    +0.000 C 
ATOM      2  C   UNL     1       5.325  -5.544   3.270  0.00  0.00    +0.000 C 
ATOM      3  C   UNL     1       4.155  -4.939   3.967  0.00  0.00    +0.000 C 
ENDROOT
BRANCH   1   8
ATOM      4  C   UNL     1       3.931   0.751   3.093  0.00  0.00    +0.000 A 
ATOM      5  C   UNL     1       3.205  -0.314   3.622  0.00  0.00    +0.000 A 
ATOM      6  C   UNL     1       3.776  -1.590   3.643  0.00  0.00    +0.000 A 
ATOM      7  C   UNL     1       5.051  -1.782   3.123  0.00  0.00    +0.000 A 
ATOM      8  N   UNL     1       5.635  -3.042   2.963  0.00  0.00    +0.000 N 
ATOM      9  N   UNL     1       5.771  -0.753   2.626  0.00  0.00    +0.000 NA
ATOM     10  C   UNL     1       5.203   0.481   2.615  0.00  0.00    +0.000 A 
ATOM     11  H   UNL     1       6.584  -2.862   2.643  0.00  0.00    +0.000 HD
BRANCH   4  13
ATOM     12  N   UNL     1       2.355   2.475   3.781  0.00  0.00    +0.000 N 
ATOM     13  C   UNL     1       3.384   2.118   2.957  0.00  0.00    +0.000 C 
ATOM     14  O   UNL     1       3.850   2.913   2.149  0.00  0.00    +0.000 OA
ATOM     15  H   UNL     1       2.038   3.433   3.717  0.00  0.00    +0.000 HD
ATOM     16  H   UNL     1       2.104   1.951   4.606  0.00  0.00    +0.000 HD
ENDBRANCH   4  13
ENDBRANCH   1   8
BRANCH   1  17
ATOM     17  C   UNL     1       6.346  -4.064   5.135  0.00  0.00    +0.000 A 
ATOM     18  C   UNL     1       7.742  -4.182   5.046  0.00  0.00    +0.000 A 
ATOM     19  C   UNL     1       8.557  -3.994   6.161  0.00  0.00    +0.000 A 
ATOM     20  C   UNL     1       7.993  -3.669   7.395  0.00  0.00    +0.000 A 
ATOM     21  C   UNL     1       6.604  -3.521   7.534  0.00  0.00    +0.000 A 
ATOM     22  C   UNL     1       5.809  -3.747   6.392  0.00  0.00    +0.000 A 
BRANCH  21  23
ATOM     23  C   UNL     1       5.981  -3.019   8.777  0.00  0.00    +0.000 A 
ATOM     24  C   UNL     1       6.594  -2.002   9.528  0.00  0.00    +0.000 A 
ATOM     25  C   UNL     1       5.930  -1.395  10.595  0.00  0.00    +0.000 A 
ATOM     26 CL   UNL     1       6.696  -0.120  11.457  0.00  0.00    +0.000 Cl
ATOM     27  C   UNL     1       4.643  -1.789  10.949  0.00  0.00    +0.000 A 
ATOM     28  C   UNL     1       4.037  -2.819  10.241  0.00  0.00    +0.000 A 
ATOM     29 CL   UNL     1       2.430  -3.292  10.634  0.00  0.00    +0.000 Cl
ATOM     30  C   UNL     1       4.700  -3.443   9.181  0.00  0.00    +0.000 A 
ENDBRANCH  21  23
ENDBRANCH   1  17
TORSDOF 4
