REMARK  Name = 
REMARK  7 active torsions:
REMARK  status: ('A' for Active; 'I' for Inactive)
REMARK    1  A    between atoms: C_1  and  C_2
REMARK    2  A    between atoms: C_2  and  N_3
REMARK    3  A    between atoms: C_2  and  C_16
REMARK    4  A    between atoms: C_4  and  C_6
REMARK    5  A    between atoms: C_19  and  C_20
REMARK    6  A    between atoms: C_20  and  N_21
REMARK    7  A    between atoms: C_22  and  C_24
REMARK                            x       y       z     vdW  Elec       q    Type
REMARK                         _______ _______ _______ _____ _____    ______ ____
ROOT
ATOM      1  C   UNL     1       3.685  -0.845  -0.326  0.00  0.00    +0.000 C 
ATOM      2  C   UNL     1       2.443   0.013  -0.084  0.00  0.00    +0.000 C 
ENDROOT
BRANCH   2   3
ATOM      3  C   UNL     1       2.869   1.314   0.583  0.00  0.00    +0.000 A 
ATOM      4  C   UNL     1       2.651   2.530  -0.070  0.00  0.00    +0.000 A 
ATOM      5  C   UNL     1       2.903   3.749   0.569  0.00  0.00    +0.000 A 
ATOM      6  C   UNL     1       3.414   3.791   1.877  0.00  0.00    +0.000 A 
ATOM      7  C   UNL     1       3.672   2.569   2.513  0.00  0.00    +0.000 A 
ATOM      8  C   UNL     1       3.425   1.346   1.871  0.00  0.00    +0.000 A 
BRANCH   6   9
ATOM      9  C   UNL     1       3.707   5.098   2.588  0.00  0.00    +0.000 C 
BRANCH   9  10
ATOM     10  N   UNL     1       2.593   5.618   3.354  0.00  0.00    +0.000 N 
ATOM     11  C   UNL     1       2.678   6.792   4.077  0.00  0.00    +0.000 C 
ATOM     12  O   UNL     1       3.682   7.473   4.147  0.00  0.00    +0.000 OA
ATOM     13  H   UNL     1       1.678   5.220   3.215  0.00  0.00    +0.000 HD
BRANCH  11  14
ATOM     14  C   UNL     1       1.441   7.135   4.749  0.00  0.00    +0.000 A 
ATOM     15  C   UNL     1       0.202   6.526   4.810  0.00  0.00    +0.000 A 
ATOM     16  C   UNL     1      -0.569   7.330   5.664  0.00  0.00    +0.000 A 
ATOM     17  N   UNL     1       0.105   8.395   6.096  0.00  0.00    +0.000 NA
ATOM     18  N   UNL     1       1.323   8.250   5.539  0.00  0.00    +0.000 N 
ATOM     19  H   UNL     1       2.039   8.941   5.739  0.00  0.00    +0.000 HD
ENDBRANCH  11  14
ENDBRANCH   9  10
ENDBRANCH   6   9
ENDBRANCH   2   3
BRANCH   2  20
ATOM     20  N   UNL     1       1.463  -0.675   0.744  0.00  0.00    +0.000 N 
ATOM     21  C   UNL     1       0.891  -1.869   0.379  0.00  0.00    +0.000 C 
ATOM     22  O   UNL     1       1.163  -2.450  -0.668  0.00  0.00    +0.000 OA
ATOM     23  H   UNL     1       0.966  -0.107   1.424  0.00  0.00    +0.000 HD
BRANCH  21  24
ATOM     24  C   UNL     1      -0.030  -2.468   1.343  0.00  0.00    +0.000 A 
ATOM     25  C   UNL     1      -0.170  -3.846   1.429  0.00  0.00    +0.000 A 
ATOM     26  S   UNL     1      -1.330  -4.334   2.583  0.00  0.00    +0.000 S 
ATOM     27  C   UNL     1      -1.691  -2.720   2.986  0.00  0.00    +0.000 A 
ATOM     28  N   UNL     1      -2.651  -2.414   3.898  0.00  0.00    +0.000 NA
ATOM     29  C   UNL     1      -2.829  -1.148   4.078  0.00  0.00    +0.000 A 
ATOM     30  N   UNL     1      -2.129  -0.157   3.439  0.00  0.00    +0.000 N 
ATOM     31  C   UNL     1      -1.129  -0.420   2.544  0.00  0.00    +0.000 A 
ATOM     32  O   UNL     1      -0.460   0.488   2.043  0.00  0.00    +0.000 OA
ATOM     33  C   UNL     1      -0.911  -1.824   2.278  0.00  0.00    +0.000 A 
ATOM     34  H   UNL     1      -2.297   0.814   3.647  0.00  0.00    +0.000 HD
ENDBRANCH  21  24
ENDBRANCH   2  20
TORSDOF 6
