REMARK  Name = 
REMARK  8 active torsions:
REMARK  status: ('A' for Active; 'I' for Inactive)
REMARK    1  A    between atoms: N_1  and  C_2
REMARK    2  A    between atoms: C_2  and  C_3
REMARK    3  A    between atoms: C_3  and  N_4
REMARK    4  A    between atoms: C_3  and  C_17
REMARK    5  A    between atoms: C_5  and  C_7
REMARK    6  A    between atoms: C_20  and  O_21
REMARK    7  A    between atoms: O_21  and  C_22
REMARK    8  A    between atoms: C_22  and  C_23
REMARK                            x       y       z     vdW  Elec       q    Type
REMARK                         _______ _______ _______ _____ _____    ______ ____
ROOT
ATOM      1  C   UNL     1       3.061  -1.324   0.556  0.00  0.00    +0.000 C 
ENDROOT
BRANCH   1   2
ATOM      2  C   UNL     1       4.572  -1.511   0.635  0.00  0.00    +0.000 A 
ATOM      3  C   UNL     1       5.251  -1.296   1.844  0.00  0.00    +0.000 A 
ATOM      4  C   UNL     1       6.590  -1.682   1.982  0.00  0.00    +0.000 A 
ATOM      5  C   UNL     1       7.256  -2.282   0.915  0.00  0.00    +0.000 A 
ATOM      6  C   UNL     1       6.644  -2.326  -0.335  0.00  0.00    +0.000 A 
ATOM      7  C   UNL     1       5.316  -1.935  -0.475  0.00  0.00    +0.000 A 
BRANCH   5   8
ATOM      8  O   UNL     1       8.484  -2.831   1.183  0.00  0.00    +0.000 OA
BRANCH   8   9
ATOM      9  C   UNL     1       8.802  -3.950   0.338  0.00  0.00    +0.000 C 
BRANCH   9  10
ATOM     10  C   UNL     1       9.815  -4.857   0.991  0.00  0.00    +0.000 A 
ATOM     11  C   UNL     1       9.530  -5.458   2.216  0.00  0.00    +0.000 A 
ATOM     12  C   UNL     1      10.461  -6.331   2.768  0.00  0.00    +0.000 A 
ATOM     13  C   UNL     1      11.644  -6.586   2.084  0.00  0.00    +0.000 A 
ATOM     14  C   UNL     1      11.844  -5.961   0.865  0.00  0.00    +0.000 A 
ATOM     15  N   UNL     1      10.958  -5.112   0.303  0.00  0.00    +0.000 NA
ENDBRANCH   9  10
ENDBRANCH   8   9
ENDBRANCH   5   8
ENDBRANCH   1   2
BRANCH   1  16
ATOM     16  N   UNL     1       2.765   0.029   0.131  0.00  0.00    +0.000 N 
ATOM     17  C   UNL     1       1.537   0.616   0.282  0.00  0.00    +0.000 C 
ATOM     18  O   UNL     1       0.618   0.057   0.871  0.00  0.00    +0.000 OA
ATOM     19  H   UNL     1       3.474   0.468  -0.443  0.00  0.00    +0.000 HD
BRANCH  17  20
ATOM     20  C   UNL     1       1.383   1.966  -0.287  0.00  0.00    +0.000 A 
ATOM     21  C   UNL     1       0.231   2.698  -0.025  0.00  0.00    +0.000 A 
ATOM     22  S   UNL     1       0.243   4.263  -0.705  0.00  0.00    +0.000 S 
ATOM     23  C   UNL     1       1.774   4.010  -1.403  0.00  0.00    +0.000 A 
ATOM     24  N   UNL     1       2.380   4.987  -2.131  0.00  0.00    +0.000 NA
ATOM     25  C   UNL     1       3.531   4.659  -2.614  0.00  0.00    +0.000 A 
ATOM     26  N   UNL     1       4.127   3.438  -2.444  0.00  0.00    +0.000 N 
ATOM     27  C   UNL     1       3.543   2.418  -1.737  0.00  0.00    +0.000 A 
ATOM     28  O   UNL     1       4.090   1.321  -1.654  0.00  0.00    +0.000 OA
ATOM     29  C   UNL     1       2.262   2.743  -1.137  0.00  0.00    +0.000 A 
ATOM     30  H   UNL     1       5.020   3.230  -2.865  0.00  0.00    +0.000 HD
ENDBRANCH  17  20
ENDBRANCH   1  16
BRANCH   1  31
ATOM     31  C   UNL     1       2.356  -2.383  -0.357  0.00  0.00    +0.000 C 
BRANCH  31  32
ATOM     32  N   UNL     1       2.537  -3.771   0.089  0.00  0.00    +0.000 NA
ATOM     33  H   UNL     1       1.910  -4.378  -0.436  0.00  0.00    +0.000 HD
ATOM     34  H   UNL     1       2.260  -3.847   1.067  0.00  0.00    +0.000 HD
ENDBRANCH  31  32
ENDBRANCH   1  31
TORSDOF 8
