REMARK  Name = 
REMARK  5 active torsions:
REMARK  status: ('A' for Active; 'I' for Inactive)
REMARK    1  A    between atoms: C_2  and  C_4
REMARK    2  A    between atoms: C_7  and  O_8
REMARK    3  A    between atoms: O_8  and  C_9
REMARK    4  A    between atoms: C_9  and  C_10
REMARK    5  A    between atoms: C_14  and  C_15
REMARK                            x       y       z     vdW  Elec       q    Type
REMARK                         _______ _______ _______ _____ _____    ______ ____
ROOT
ATOM      1  O   UNL     1       5.385  -2.565  -4.126  0.00  0.00    +0.000 OA
ENDROOT
BRANCH   1   5
ATOM      2  C   UNL     1       3.083  -0.735  -1.247  0.00  0.00    +0.000 A 
ATOM      3  C   UNL     1       3.234  -0.077  -2.466  0.00  0.00    +0.000 A 
ATOM      4  C   UNL     1       3.996  -0.669  -3.477  0.00  0.00    +0.000 A 
ATOM      5  C   UNL     1       4.581  -1.908  -3.240  0.00  0.00    +0.000 A 
ATOM      6  N   UNL     1       4.464  -2.547  -2.058  0.00  0.00    +0.000 NA
ATOM      7  C   UNL     1       3.727  -1.951  -1.086  0.00  0.00    +0.000 A 
BRANCH   2   9
ATOM      8  N   UNL     1       1.239   0.628  -0.464  0.00  0.00    +0.000 N 
ATOM      9  C   UNL     1       2.290  -0.181  -0.132  0.00  0.00    +0.000 C 
ATOM     10  O   UNL     1       2.537  -0.461   1.032  0.00  0.00    +0.000 OA
ATOM     11  H   UNL     1       0.633   0.911   0.296  0.00  0.00    +0.000 HD
ATOM     12  H   UNL     1       0.859   0.667  -1.399  0.00  0.00    +0.000 HD
ENDBRANCH   2   9
ENDBRANCH   1   5
BRANCH   1  13
ATOM     13  C   UNL     1       5.062  -2.395  -5.505  0.00  0.00    +0.000 C 
BRANCH  13  14
ATOM     14  C   UNL     1       6.004  -3.224  -6.344  0.00  0.00    +0.000 A 
ATOM     15  N   UNL     1       5.623  -4.493  -6.642  0.00  0.00    +0.000 NA
ATOM     16  N   UNL     1       6.432  -5.281  -7.397  0.00  0.00    +0.000 NA
ATOM     17  C   UNL     1       7.599  -4.769  -7.827  0.00  0.00    +0.000 A 
ATOM     18  C   UNL     1       7.941  -3.473  -7.516  0.00  0.00    +0.000 A 
ATOM     19  N   UNL     1       7.156  -2.657  -6.767  0.00  0.00    +0.000 NA
BRANCH  18  20
ATOM     20  C   UNL     1       9.227  -2.920  -8.029  0.00  0.00    +0.000 C 
ATOM     21  N   UNL     1       9.524  -1.619  -7.706  0.00  0.00    +0.000 N 
ATOM     22  O   UNL     1       9.982  -3.589  -8.719  0.00  0.00    +0.000 OA
ATOM     23  H   UNL     1       8.917  -1.056  -7.121  0.00  0.00    +0.000 HD
ATOM     24  H   UNL     1      10.398  -1.230  -8.037  0.00  0.00    +0.000 HD
ENDBRANCH  18  20
ENDBRANCH  13  14
ENDBRANCH   1  13
TORSDOF 5
