REMARK  Name = 
REMARK  10 active torsions:
REMARK  status: ('A' for Active; 'I' for Inactive)
REMARK    1  A    between atoms: C_1  and  O_2
REMARK    2  A    between atoms: O_2  and  C_3
REMARK    3  A    between atoms: C_3  and  C_4
REMARK    4  A    between atoms: C_4  and  N_5
REMARK    5  A    between atoms: C_4  and  C_27
REMARK    6  A    between atoms: N_5  and  C_6
REMARK    7  A    between atoms: C_6  and  C_7
REMARK    8  A    between atoms: C_10  and  C_11
REMARK    9  A    between atoms: C_11  and  N_12
REMARK   10  A    between atoms: C_13  and  C_15
REMARK                            x       y       z     vdW  Elec       q    Type
REMARK                         _______ _______ _______ _____ _____    ______ ____
ROOT
ATOM      1  C   UNL     1       4.931  -1.647  -2.344  0.00  0.00    +0.000 A 
ATOM      2  C   UNL     1       5.696  -1.035  -3.347  0.00  0.00    +0.000 A 
ATOM      3  C   UNL     1       6.079  -1.750  -4.488  0.00  0.00    +0.000 A 
ATOM      4  C   UNL     1       5.699  -3.090  -4.650  0.00  0.00    +0.000 A 
ATOM      5  C   UNL     1       5.000  -3.720  -3.613  0.00  0.00    +0.000 A 
ATOM      6  C   UNL     1       4.612  -3.005  -2.478  0.00  0.00    +0.000 A 
ENDROOT
BRANCH   1   7
ATOM      7  C   UNL     1       4.469  -0.882  -1.123  0.00  0.00    +0.000 C 
BRANCH   7   8
ATOM      8  N   UNL     1       3.558   0.211  -1.477  0.00  0.00    +0.000 NA
ATOM      9  H   UNL     1       4.092   0.906  -2.003  0.00  0.00    +0.000 HD
BRANCH   8  10
ATOM     10  C   UNL     1       3.018   0.916  -0.281  0.00  0.00    +0.000 C 
BRANCH  10  11
ATOM     11  C   UNL     1       2.135   0.027   0.599  0.00  0.00    +0.000 A 
ATOM     12  C   UNL     1       1.062  -0.672   0.046  0.00  0.00    +0.000 A 
ATOM     13  C   UNL     1       0.307  -1.511   0.863  0.00  0.00    +0.000 A 
ATOM     14  C   UNL     1       0.632  -1.626   2.209  0.00  0.00    +0.000 A 
ATOM     15  C   UNL     1       1.705  -0.898   2.685  0.00  0.00    +0.000 A 
ATOM     16  N   UNL     1       2.459  -0.085   1.915  0.00  0.00    +0.000 NA
ENDBRANCH  10  11
BRANCH  10  17
ATOM     17  C   UNL     1       4.114   1.624   0.562  0.00  0.00    +0.000 C 
BRANCH  17  19
ATOM     18  C   UNL     1       5.910   3.137   0.562  0.00  0.00    +0.000 C 
ATOM     19  O   UNL     1       4.919   2.501  -0.244  0.00  0.00    +0.000 OA
ENDBRANCH  17  19
ENDBRANCH  10  17
ENDBRANCH   8  10
ENDBRANCH   7   8
ENDBRANCH   1   7
BRANCH   4  20
ATOM     20  C   UNL     1       6.053  -3.864  -5.894  0.00  0.00    +0.000 C 
BRANCH  20  21
ATOM     21  N   UNL     1       7.324  -4.518  -5.741  0.00  0.00    +0.000 N 
ATOM     22  C   UNL     1       7.897  -5.257  -6.742  0.00  0.00    +0.000 C 
ATOM     23  O   UNL     1       7.389  -5.381  -7.852  0.00  0.00    +0.000 OA
ATOM     24  H   UNL     1       7.619  -4.681  -4.786  0.00  0.00    +0.000 HD
BRANCH  22  25
ATOM     25  C   UNL     1       9.212  -5.831  -6.419  0.00  0.00    +0.000 A 
ATOM     26  C   UNL     1      10.120  -6.113  -7.431  0.00  0.00    +0.000 A 
ATOM     27  S   UNL     1      11.627  -6.668  -6.853  0.00  0.00    +0.000 S 
ATOM     28  C   UNL     1      11.096  -6.609  -5.237  0.00  0.00    +0.000 A 
ATOM     29  N   UNL     1      11.912  -6.966  -4.210  0.00  0.00    +0.000 NA
ATOM     30  C   UNL     1      11.373  -6.887  -3.043  0.00  0.00    +0.000 A 
ATOM     31  N   UNL     1      10.085  -6.486  -2.809  0.00  0.00    +0.000 N 
ATOM     32  C   UNL     1       9.221  -6.108  -3.807  0.00  0.00    +0.000 A 
ATOM     33  O   UNL     1       8.082  -5.747  -3.552  0.00  0.00    +0.000 OA
ATOM     34  C   UNL     1       9.789  -6.165  -5.140  0.00  0.00    +0.000 A 
ATOM     35  H   UNL     1       9.722  -6.445  -1.863  0.00  0.00    +0.000 HD
ENDBRANCH  22  25
ENDBRANCH  20  21
ENDBRANCH   4  20
TORSDOF 9
