REMARK  Name = 
REMARK  7 active torsions:
REMARK  status: ('A' for Active; 'I' for Inactive)
REMARK    1  A    between atoms: N_1  and  C_2
REMARK    2  A    between atoms: C_2  and  C_3
REMARK    3  A    between atoms: C_6  and  O_7
REMARK    4  A    between atoms: O_7  and  C_8
REMARK    5  A    between atoms: C_8  and  C_9
REMARK    6  A    between atoms: C_9  and  C_10
REMARK    7  A    between atoms: C_14  and  C_15
REMARK                            x       y       z     vdW  Elec       q    Type
REMARK                         _______ _______ _______ _____ _____    ______ ____
ROOT
ATOM      1  C   UNL     1       3.981  -3.380   5.263  0.00  0.00    +0.000 C 
ENDROOT
BRANCH   1   2
ATOM      2  O   UNL     1       3.680  -3.803   3.927  0.00  0.00    +0.000 OA
BRANCH   2   6
ATOM      3  C   UNL     1       2.681  -0.931   1.040  0.00  0.00    +0.000 A 
ATOM      4  C   UNL     1       3.101  -0.509   2.307  0.00  0.00    +0.000 A 
ATOM      5  C   UNL     1       3.444  -1.436   3.296  0.00  0.00    +0.000 A 
ATOM      6  C   UNL     1       3.370  -2.805   3.038  0.00  0.00    +0.000 A 
ATOM      7  C   UNL     1       2.957  -3.233   1.774  0.00  0.00    +0.000 A 
ATOM      8  C   UNL     1       2.613  -2.305   0.783  0.00  0.00    +0.000 A 
BRANCH   3   9
ATOM      9  C   UNL     1       2.276   0.080  -0.003  0.00  0.00    +0.000 C 
BRANCH   9  10
ATOM     10  N   UNL     1       3.350   1.026  -0.287  0.00  0.00    +0.000 NA
ATOM     11  H   UNL     1       3.072   1.623  -1.063  0.00  0.00    +0.000 HD
ATOM     12  H   UNL     1       4.169   0.508  -0.600  0.00  0.00    +0.000 HD
ENDBRANCH   9  10
ENDBRANCH   3   9
ENDBRANCH   2   6
ENDBRANCH   1   2
BRANCH   1  13
ATOM     13  C   UNL     1       4.293  -4.586   6.145  0.00  0.00    +0.000 C 
BRANCH  13  14
ATOM     14  C   UNL     1       3.092  -5.463   6.388  0.00  0.00    +0.000 A 
ATOM     15  C   UNL     1       2.848  -6.558   5.579  0.00  0.00    +0.000 A 
ATOM     16  C   UNL     1       1.749  -7.326   5.892  0.00  0.00    +0.000 A 
ATOM     17  N   UNL     1       0.923  -7.060   6.917  0.00  0.00    +0.000 NA
ATOM     18  C   UNL     1       1.239  -5.959   7.642  0.00  0.00    +0.000 A 
ATOM     19  N   UNL     1       2.292  -5.143   7.426  0.00  0.00    +0.000 NA
BRANCH  18  20
ATOM     20  C   UNL     1       0.325  -5.641   8.802  0.00  0.00    +0.000 C 
ATOM     21  N   UNL     1      -0.723  -6.516   8.991  0.00  0.00    +0.000 N 
ATOM     22  O   UNL     1       0.471  -4.682   9.552  0.00  0.00    +0.000 OA
ATOM     23  H   UNL     1      -0.840  -7.306   8.367  0.00  0.00    +0.000 HD
ATOM     24  H   UNL     1      -1.369  -6.355   9.750  0.00  0.00    +0.000 HD
ENDBRANCH  18  20
ENDBRANCH  13  14
ENDBRANCH   1  13
TORSDOF 7
