REMARK  Name = 
REMARK  5 active torsions:
REMARK  status: ('A' for Active; 'I' for Inactive)
REMARK    1  A    between atoms: C_2  and  C_3
REMARK    2  A    between atoms: C_6  and  N_7
REMARK    3  A    between atoms: N_7  and  C_8
REMARK    4  A    between atoms: C_8  and  C_9
REMARK    5  A    between atoms: C_13  and  C_14
REMARK                            x       y       z     vdW  Elec       q    Type
REMARK                         _______ _______ _______ _____ _____    ______ ____
ROOT
ATOM      1  C   UNL     1       8.727  -0.827  -0.831  0.00  0.00    +0.000 C 
ATOM      2  C   UNL     1       7.873  -1.090   0.409  0.00  0.00    +0.000 C 
ATOM      3  C   UNL     1       7.276  -0.388  -0.763  0.00  0.00    +0.000 C 
ENDROOT
BRANCH   1   4
ATOM      4  C   UNL     1       9.774   0.280  -0.719  0.00  0.00    +0.000 A 
ATOM      5  C   UNL     1       9.819   1.324  -1.654  0.00  0.00    +0.000 A 
ATOM      6  C   UNL     1      10.616   2.445  -1.445  0.00  0.00    +0.000 A 
ATOM      7  C   UNL     1      11.413   2.530  -0.304  0.00  0.00    +0.000 A 
ATOM      8  C   UNL     1      11.465   1.485   0.632  0.00  0.00    +0.000 A 
ATOM      9  C   UNL     1      10.645   0.365   0.389  0.00  0.00    +0.000 A 
BRANCH   8  10
ATOM     10  C   UNL     1      12.320   1.573   1.839  0.00  0.00    +0.000 A 
ATOM     11  C   UNL     1      12.526   2.790   2.505  0.00  0.00    +0.000 A 
ATOM     12  C   UNL     1      13.348   2.829   3.623  0.00  0.00    +0.000 A 
ATOM     13  N   UNL     1      13.968   1.750   4.136  0.00  0.00    +0.000 NA
ATOM     14  C   UNL     1      13.760   0.581   3.499  0.00  0.00    +0.000 A 
ATOM     15  C   UNL     1      12.964   0.446   2.370  0.00  0.00    +0.000 A 
ENDBRANCH   8  10
ENDBRANCH   1   4
BRANCH   1  16
ATOM     16  N   UNL     1       9.146  -2.027  -1.548  0.00  0.00    +0.000 N 
ATOM     17  H   UNL     1       9.701  -2.732  -1.076  0.00  0.00    +0.000 HD
BRANCH  16  21
ATOM     18  C   UNL     1       9.153  -2.915  -5.555  0.00  0.00    +0.000 A 
ATOM     19  C   UNL     1       9.752  -3.725  -4.606  0.00  0.00    +0.000 A 
ATOM     20  N   UNL     1       9.759  -3.417  -3.283  0.00  0.00    +0.000 NA
ATOM     21  C   UNL     1       9.147  -2.267  -2.914  0.00  0.00    +0.000 A 
ATOM     22  C   UNL     1       8.549  -1.463  -3.881  0.00  0.00    +0.000 A 
ATOM     23  N   UNL     1       8.539  -1.758  -5.214  0.00  0.00    +0.000 NA
BRANCH  18  25
ATOM     24  N   UNL     1       9.183  -3.647  -8.046  0.00  0.00    +0.000 NA
ATOM     25  C   UNL     1       9.157  -3.294  -6.940  0.00  0.00    +0.000 C 
ENDBRANCH  18  25
ENDBRANCH  16  21
ENDBRANCH   1  16
TORSDOF 5
