REMARK  Name = 
REMARK  9 active torsions:
REMARK  status: ('A' for Active; 'I' for Inactive)
REMARK    1  A    between atoms: C_1  and  O_2
REMARK    2  A    between atoms: O_2  and  C_3
REMARK    3  A    between atoms: C_10  and  C_11
REMARK    4  A    between atoms: N_13  and  C_14
REMARK    5  A    between atoms: C_14  and  C_15
REMARK    6  A    between atoms: C_18  and  C_19
REMARK    7  A    between atoms: C_19  and  N_20
REMARK    8  A    between atoms: N_20  and  C_21
REMARK    9  A    between atoms: C_21  and  C_22
REMARK                            x       y       z     vdW  Elec       q    Type
REMARK                         _______ _______ _______ _____ _____    ______ ____
ROOT
ATOM      1  C   UNL     1       2.811   2.842  -1.834  0.00  0.00    +0.000 C 
ENDROOT
BRANCH   1   2
ATOM      2  C   UNL     1       1.600   2.141  -2.395  0.00  0.00    +0.000 A 
ATOM      3  C   UNL     1       1.627   0.766  -2.663  0.00  0.00    +0.000 A 
ATOM      4  C   UNL     1       0.493   0.114  -3.160  0.00  0.00    +0.000 A 
ATOM      5  C   UNL     1      -0.694   0.821  -3.406  0.00  0.00    +0.000 A 
ATOM      6  C   UNL     1      -0.704   2.205  -3.184  0.00  0.00    +0.000 A 
ATOM      7  C   UNL     1       0.431   2.858  -2.688  0.00  0.00    +0.000 A 
BRANCH   5   8
ATOM      8  C   UNL     1      -1.930   0.105  -3.909  0.00  0.00    +0.000 C 
BRANCH   8   9
ATOM      9  N   UNL     1      -2.334  -0.959  -2.994  0.00  0.00    +0.000 NA
ATOM     10  H   UNL     1      -2.527  -0.565  -2.072  0.00  0.00    +0.000 HD
BRANCH   9  11
ATOM     11  C   UNL     1      -3.562  -1.633  -3.456  0.00  0.00    +0.000 C 
BRANCH  11  12
ATOM     12  C   UNL     1      -4.049  -2.710  -2.495  0.00  0.00    +0.000 A 
ATOM     13  N   UNL     1      -4.371  -2.328  -1.239  0.00  0.00    +0.000 NA
ATOM     14  C   UNL     1      -4.785  -3.302  -0.405  0.00  0.00    +0.000 A 
ATOM     15  C   UNL     1      -4.900  -4.621  -0.774  0.00  0.00    +0.000 A 
ATOM     16  C   UNL     1      -4.563  -4.905  -2.075  0.00  0.00    +0.000 A 
ATOM     17  N   UNL     1      -4.142  -3.976  -2.955  0.00  0.00    +0.000 NA
ENDBRANCH  11  12
ENDBRANCH   9  11
ENDBRANCH   8   9
ENDBRANCH   5   8
ENDBRANCH   1   2
BRANCH   1  20
ATOM     18  C   UNL     1       4.844   3.978  -2.647  0.00  0.00    +0.000 C 
ATOM     19  O   UNL     1       5.249   4.162  -1.502  0.00  0.00    +0.000 OA
ATOM     20  N   UNL     1       3.655   3.346  -2.887  0.00  0.00    +0.000 N 
ATOM     21  H   UNL     1       3.315   3.247  -3.835  0.00  0.00    +0.000 HD
BRANCH  18  29
ATOM     22  C   UNL     1       4.379   3.677  -6.043  0.00  0.00    +0.000 A 
ATOM     23  N   UNL     1       4.439   3.706  -7.390  0.00  0.00    +0.000 NA
ATOM     24  C   UNL     1       5.489   4.308  -7.956  0.00  0.00    +0.000 A 
ATOM     25  N   UNL     1       6.507   4.898  -7.334  0.00  0.00    +0.000 NA
ATOM     26  C   UNL     1       6.401   4.853  -5.996  0.00  0.00    +0.000 A 
ATOM     27  S   UNL     1       7.613   5.557  -5.037  0.00  0.00    +0.000 S 
ATOM     28  C   UNL     1       6.809   5.112  -3.605  0.00  0.00    +0.000 A 
ATOM     29  C   UNL     1       5.617   4.427  -3.819  0.00  0.00    +0.000 A 
ATOM     30  C   UNL     1       5.378   4.274  -5.253  0.00  0.00    +0.000 A 
BRANCH  22  32
ATOM     31  C   UNL     1       2.662   2.103  -6.286  0.00  0.00    +0.000 C 
ATOM     32  O   UNL     1       3.280   3.085  -5.459  0.00  0.00    +0.000 OA
ENDBRANCH  22  32
ENDBRANCH  18  29
ENDBRANCH   1  20
TORSDOF 8
