REMARK  Name = 
REMARK  8 active torsions:
REMARK  status: ('A' for Active; 'I' for Inactive)
REMARK    1  A    between atoms: C_1  and  C_2
REMARK    2  A    between atoms: C_2  and  C_3
REMARK    3  A    between atoms: C_7  and  C_8
REMARK    4  A    between atoms: C_8  and  C_9
REMARK    5  A    between atoms: C_9  and  N_10
REMARK    6  A    between atoms: N_10  and  C_11
REMARK    7  A    between atoms: C_14  and  C_15
REMARK    8  A    between atoms: C_23  and  O_24
REMARK                            x       y       z     vdW  Elec       q    Type
REMARK                         _______ _______ _______ _____ _____    ______ ____
ROOT
ATOM      1  C   UNL     1       2.892   0.439   1.443  0.00  0.00    +0.000 A 
ATOM      2  C   UNL     1       2.624   1.708   1.976  0.00  0.00    +0.000 A 
ATOM      3  C   UNL     1       2.931   2.013   3.306  0.00  0.00    +0.000 A 
ATOM      4  C   UNL     1       3.496   1.050   4.142  0.00  0.00    +0.000 A 
ATOM      5  C   UNL     1       3.776  -0.228   3.649  0.00  0.00    +0.000 A 
ATOM      6  C   UNL     1       3.504  -0.489   2.294  0.00  0.00    +0.000 A 
ENDROOT
BRANCH   1   8
ATOM      7  C   UNL     1       0.873   0.138   0.051  0.00  0.00    +0.000 C 
ATOM      8  C   UNL     1       2.420   0.045   0.028  0.00  0.00    +0.000 C 
ATOM      9  C   UNL     1       3.017   1.016  -1.025  0.00  0.00    +0.000 C 
ATOM     10  C   UNL     1       2.655   0.649  -2.465  0.00  0.00    +0.000 C 
ATOM     11  C   UNL     1       3.030  -0.791  -2.807  0.00  0.00    +0.000 C 
ATOM     12  C   UNL     1       2.450  -1.783  -1.807  0.00  0.00    +0.000 C 
ATOM     13  C   UNL     1       2.824  -1.408  -0.377  0.00  0.00    +0.000 C 
BRANCH  11  14
ATOM     14  O   UNL     1       2.563  -1.109  -4.113  0.00  0.00    +0.000 OA
ATOM     15  H   UNL     1       1.590  -1.093  -4.098  0.00  0.00    +0.000 HD
ENDBRANCH  11  14
ENDBRANCH   1   8
BRANCH   5  16
ATOM     16  C   UNL     1       4.294  -1.316   4.578  0.00  0.00    +0.000 C 
BRANCH  16  17
ATOM     17  C   UNL     1       4.541  -2.652   3.863  0.00  0.00    +0.000 C 
BRANCH  17  18
ATOM     18  N   UNL     1       5.003  -3.717   4.752  0.00  0.00    +0.000 N 
ATOM     19  H   UNL     1       4.408  -3.821   5.573  0.00  0.00    +0.000 HD
BRANCH  18  20
ATOM     20  C   UNL     1       5.231  -4.955   4.112  0.00  0.00    +0.000 A 
ATOM     21  C   UNL     1       5.685  -5.059   2.791  0.00  0.00    +0.000 A 
ATOM     22  C   UNL     1       5.984  -6.298   2.229  0.00  0.00    +0.000 A 
ATOM     23  C   UNL     1       5.852  -7.422   3.025  0.00  0.00    +0.000 A 
ATOM     24  N   UNL     1       5.438  -7.388   4.321  0.00  0.00    +0.000 NA
ATOM     25  C   UNL     1       5.155  -6.157   4.824  0.00  0.00    +0.000 A 
BRANCH  23  26
ATOM     26  C   UNL     1       6.212  -8.760   2.456  0.00  0.00    +0.000 C 
ATOM     27  N   UNL     1       6.057  -9.814   3.311  0.00  0.00    +0.000 N 
ATOM     28  O   UNL     1       6.619  -8.907   1.314  0.00  0.00    +0.000 OA
ATOM     29  H   UNL     1       5.764  -9.646   4.264  0.00  0.00    +0.000 HD
ATOM     30  H   UNL     1       6.341 -10.737   3.011  0.00  0.00    +0.000 HD
ENDBRANCH  23  26
ENDBRANCH  18  20
ENDBRANCH  17  18
ENDBRANCH  16  17
ENDBRANCH   5  16
TORSDOF 7
