REMARK  Name = 
REMARK  7 active torsions:
REMARK  status: ('A' for Active; 'I' for Inactive)
REMARK    1  A    between atoms: N_1  and  C_2
REMARK    2  A    between atoms: C_2  and  C_3
REMARK    3  A    between atoms: C_3  and  C_4
REMARK    4  A    between atoms: C_7  and  O_8
REMARK    5  A    between atoms: O_8  and  C_9
REMARK    6  A    between atoms: C_9  and  C_10
REMARK    7  A    between atoms: C_14  and  N_15
REMARK                            x       y       z     vdW  Elec       q    Type
REMARK                         _______ _______ _______ _____ _____    ______ ____
ROOT
ATOM      1  C   UNL     1       4.473   1.211   0.595  0.00  0.00    +0.000 A 
ATOM      2  C   UNL     1       5.176   0.159  -0.002  0.00  0.00    +0.000 A 
ATOM      3  C   UNL     1       6.574   0.186  -0.083  0.00  0.00    +0.000 A 
ATOM      4  C   UNL     1       7.288   1.266   0.436  0.00  0.00    +0.000 A 
ATOM      5  C   UNL     1       6.593   2.300   1.065  0.00  0.00    +0.000 A 
ATOM      6  C   UNL     1       5.196   2.279   1.140  0.00  0.00    +0.000 A 
ENDROOT
BRANCH   1   7
ATOM      7  C   UNL     1       2.964   1.192   0.661  0.00  0.00    +0.000 C 
BRANCH   7   8
ATOM      8  C   UNL     1       2.439   0.537   1.942  0.00  0.00    +0.000 C 
BRANCH   8   9
ATOM      9  N   UNL     1       0.975   0.553   1.978  0.00  0.00    +0.000 NA
ATOM     10  H   UNL     1       0.655   0.103   2.835  0.00  0.00    +0.000 HD
ATOM     11  H   UNL     1       0.607  -0.006   1.209  0.00  0.00    +0.000 HD
ENDBRANCH   8   9
ENDBRANCH   7   8
ENDBRANCH   1   7
BRANCH   4  12
ATOM     12  O   UNL     1       8.653   1.394   0.430  0.00  0.00    +0.000 OA
BRANCH  12  13
ATOM     13  C   UNL     1       9.328   0.753  -0.659  0.00  0.00    +0.000 C 
BRANCH  13  14
ATOM     14  C   UNL     1      10.824   0.983  -0.575  0.00  0.00    +0.000 A 
ATOM     15  N   UNL     1      11.558   0.052   0.070  0.00  0.00    +0.000 NA
ATOM     16  C   UNL     1      12.890   0.234   0.065  0.00  0.00    +0.000 A 
ATOM     17  C   UNL     1      13.504   1.296  -0.548  0.00  0.00    +0.000 A 
ATOM     18  C   UNL     1      12.673   2.204  -1.163  0.00  0.00    +0.000 A 
ATOM     19  N   UNL     1      11.341   2.063  -1.198  0.00  0.00    +0.000 NA
BRANCH  18  20
ATOM     20  N   UNL     1      13.208   3.295  -1.846  0.00  0.00    +0.000 N 
ATOM     21  H   UNL     1      13.854   3.825  -1.273  0.00  0.00    +0.000 HD
ATOM     22  H   UNL     1      12.429   3.865  -2.169  0.00  0.00    +0.000 HD
ENDBRANCH  18  20
ENDBRANCH  13  14
ENDBRANCH  12  13
ENDBRANCH   4  12
TORSDOF 7
