REMARK  Name = 
REMARK  6 active torsions:
REMARK  status: ('A' for Active; 'I' for Inactive)
REMARK    1  A    between atoms: C_2  and  C_21
REMARK    2  A    between atoms: N_3  and  C_4
REMARK    3  A    between atoms: C_4  and  C_5
REMARK    4  A    between atoms: C_8  and  C_9
REMARK    5  A    between atoms: C_9  and  N_10
REMARK    6  A    between atoms: C_11  and  C_13
REMARK                            x       y       z     vdW  Elec       q    Type
REMARK                         _______ _______ _______ _____ _____    ______ ____
ROOT
ATOM      1  C   UNL     1       0.415  11.876  -8.716  0.00  0.00    +0.000 A 
ATOM      2  C   UNL     1       1.340  11.519  -7.739  0.00  0.00    +0.000 A 
ATOM      3  C   UNL     1       2.244  10.495  -8.009  0.00  0.00    +0.000 A 
ATOM      4  C   UNL     1       2.217   9.858  -9.252  0.00  0.00    +0.000 A 
ATOM      5  C   UNL     1       1.277  10.297 -10.176  0.00  0.00    +0.000 A 
ATOM      6  N   UNL     1       0.379  11.280  -9.935  0.00  0.00    +0.000 NA
ENDROOT
BRANCH   1   7
ATOM      7  C   UNL     1      -0.562  13.000  -8.465  0.00  0.00    +0.000 C 
BRANCH   7  10
ATOM      8  O   UNL     1       0.770  14.821  -6.792  0.00  0.00    +0.000 OA
ATOM      9  C   UNL     1       0.659  15.090  -7.986  0.00  0.00    +0.000 C 
ATOM     10  N   UNL     1      -0.014  14.280  -8.860  0.00  0.00    +0.000 N 
ATOM     11  H   UNL     1       0.137  14.390  -9.858  0.00  0.00    +0.000 HD
BRANCH   9  12
ATOM     12  C   UNL     1       1.195  16.340  -8.540  0.00  0.00    +0.000 A 
ATOM     13  C   UNL     1       1.387  17.435  -7.716  0.00  0.00    +0.000 A 
ATOM     14  S   UNL     1       1.986  18.809  -8.534  0.00  0.00    +0.000 S 
ATOM     15  C   UNL     1       2.053  17.967 -10.011  0.00  0.00    +0.000 A 
ATOM     16  N   UNL     1       2.511  18.568 -11.142  0.00  0.00    +0.000 NA
ATOM     17  C   UNL     1       2.535  17.803 -12.181  0.00  0.00    +0.000 A 
ATOM     18  N   UNL     1       2.139  16.490 -12.195  0.00  0.00    +0.000 N 
ATOM     19  C   UNL     1       1.628  15.857 -11.089  0.00  0.00    +0.000 A 
ATOM     20  O   UNL     1       1.207  14.708 -11.154  0.00  0.00    +0.000 OA
ATOM     21  C   UNL     1       1.603  16.665  -9.886  0.00  0.00    +0.000 A 
ATOM     22  H   UNL     1       2.161  15.950 -13.047  0.00  0.00    +0.000 HD
ENDBRANCH   9  12
ENDBRANCH   7  10
ENDBRANCH   1   7
BRANCH   4  23
ATOM     23  C   UNL     1       3.187   8.768  -9.600  0.00  0.00    +0.000 C 
BRANCH  23  24
ATOM     24  N   UNL     1       4.413   9.304 -10.149  0.00  0.00    +0.000 N 
ATOM     25  C   UNL     1       4.572   9.479 -11.506  0.00  0.00    +0.000 C 
ATOM     26  O   UNL     1       3.727   9.093 -12.313  0.00  0.00    +0.000 OA
ATOM     27  H   UNL     1       4.984   9.872  -9.541  0.00  0.00    +0.000 HD
BRANCH  25  28
ATOM     28  C   UNL     1       5.930  10.081 -11.956  0.00  0.00    +0.000 C 
ATOM     29  C   UNL     1       5.787  10.867 -13.263  0.00  0.00    +0.000 C 
ATOM     30  C   UNL     1       5.022  12.167 -13.036  0.00  0.00    +0.000 C 
ATOM     31  C   UNL     1       5.692  13.004 -11.953  0.00  0.00    +0.000 C 
ATOM     32  C   UNL     1       6.013  12.207 -10.687  0.00  0.00    +0.000 C 
ATOM     33  N   UNL     1       6.613  10.904 -10.938  0.00  0.00    +0.000 NA
ATOM     34  H   UNL     1       6.797  10.381 -10.087  0.00  0.00    +0.000 HD
ENDBRANCH  25  28
ENDBRANCH  23  24
ENDBRANCH   4  23
TORSDOF 6
