REMARK  Name = 
REMARK  8 active torsions:
REMARK  status: ('A' for Active; 'I' for Inactive)
REMARK    1  A    between atoms: C_1  and  O_2
REMARK    2  A    between atoms: O_2  and  C_3
REMARK    3  A    between atoms: C_5  and  C_6
REMARK    4  A    between atoms: C_6  and  N_7
REMARK    5  A    between atoms: C_8  and  C_10
REMARK    6  A    between atoms: C_17  and  C_18
REMARK    7  A    between atoms: C_18  and  N_19
REMARK    8  A    between atoms: C_20  and  C_22
REMARK                            x       y       z     vdW  Elec       q    Type
REMARK                         _______ _______ _______ _____ _____    ______ ____
ROOT
ATOM      1  C   UNL     1       3.021   0.145   1.251  0.00  0.00    +0.000 A 
ATOM      2  C   UNL     1       2.681  -0.634   2.368  0.00  0.00    +0.000 A 
ATOM      3  C   UNL     1       3.456  -0.606   3.539  0.00  0.00    +0.000 A 
ATOM      4  C   UNL     1       4.574   0.231   3.586  0.00  0.00    +0.000 A 
ATOM      5  C   UNL     1       4.920   1.010   2.481  0.00  0.00    +0.000 A 
ATOM      6  C   UNL     1       4.158   0.971   1.300  0.00  0.00    +0.000 A 
ENDROOT
BRANCH   1   8
ATOM      7  C   UNL     1       0.994  -0.369   0.109  0.00  0.00    +0.000 C 
ATOM      8  O   UNL     1       2.323   0.138   0.071  0.00  0.00    +0.000 OA
ENDBRANCH   1   8
BRANCH   3   9
ATOM      9  C   UNL     1       3.069  -1.443   4.731  0.00  0.00    +0.000 C 
BRANCH   9  10
ATOM     10  N   UNL     1       2.188  -0.725   5.618  0.00  0.00    +0.000 N 
ATOM     11  C   UNL     1       1.659  -1.334   6.733  0.00  0.00    +0.000 C 
ATOM     12  O   UNL     1       1.872  -2.512   7.008  0.00  0.00    +0.000 OA
ATOM     13  H   UNL     1       2.079   0.270   5.490  0.00  0.00    +0.000 HD
BRANCH  11  14
ATOM     14  C   UNL     1       0.820  -0.473   7.573  0.00  0.00    +0.000 A 
ATOM     15  C   UNL     1       0.403   0.882   7.385  0.00  0.00    +0.000 A 
ATOM     16  C   UNL     1      -0.396   1.239   8.451  0.00  0.00    +0.000 A 
ATOM     17  N   UNL     1      -0.482   0.163   9.292  0.00  0.00    +0.000 N 
ATOM     18  C   UNL     1       0.245  -0.874   8.770  0.00  0.00    +0.000 A 
ATOM     19  H   UNL     1      -1.007   0.131  10.159  0.00  0.00    +0.000 HD
ENDBRANCH  11  14
ENDBRANCH   9  10
ENDBRANCH   3   9
BRANCH   6  20
ATOM     20  C   UNL     1       4.540   1.890   0.161  0.00  0.00    +0.000 C 
BRANCH  20  21
ATOM     21  N   UNL     1       3.884   3.172   0.299  0.00  0.00    +0.000 N 
ATOM     22  C   UNL     1       4.368   4.328  -0.251  0.00  0.00    +0.000 C 
ATOM     23  O   UNL     1       5.418   4.365  -0.889  0.00  0.00    +0.000 OA
ATOM     24  H   UNL     1       3.028   3.185   0.839  0.00  0.00    +0.000 HD
BRANCH  22  25
ATOM     25  C   UNL     1       3.528   5.523  -0.089  0.00  0.00    +0.000 A 
ATOM     26  C   UNL     1       3.646   6.581  -0.981  0.00  0.00    +0.000 A 
ATOM     27  S   UNL     1       2.552   7.855  -0.682  0.00  0.00    +0.000 S 
ATOM     28  C   UNL     1       1.913   7.061   0.680  0.00  0.00    +0.000 A 
ATOM     29  N   UNL     1       0.916   7.624   1.415  0.00  0.00    +0.000 NA
ATOM     30  C   UNL     1       0.545   6.925   2.435  0.00  0.00    +0.000 A 
ATOM     31  N   UNL     1       1.086   5.718   2.791  0.00  0.00    +0.000 N 
ATOM     32  C   UNL     1       2.085   5.104   2.074  0.00  0.00    +0.000 A 
ATOM     33  O   UNL     1       2.521   4.010   2.413  0.00  0.00    +0.000 OA
ATOM     34  C   UNL     1       2.528   5.841   0.906  0.00  0.00    +0.000 A 
ATOM     35  H   UNL     1       0.754   5.220   3.604  0.00  0.00    +0.000 HD
ENDBRANCH  22  25
ENDBRANCH  20  21
ENDBRANCH   6  20
TORSDOF 7
