REMARK  Name = 
REMARK  7 active torsions:
REMARK  status: ('A' for Active; 'I' for Inactive)
REMARK    1  A    between atoms: C_2  and  C_20
REMARK    2  A    between atoms: N_3  and  C_4
REMARK    3  A    between atoms: C_4  and  C_5
REMARK    4  A    between atoms: C_8  and  C_9
REMARK    5  A    between atoms: C_9  and  N_10
REMARK    6  A    between atoms: N_10  and  C_11
REMARK    7  A    between atoms: C_11  and  C_12
REMARK                            x       y       z     vdW  Elec       q    Type
REMARK                         _______ _______ _______ _____ _____    ______ ____
ROOT
ATOM      1  C   UNL     1       3.185  -2.926   2.290  0.00  0.00    +0.000 A 
ATOM      2  C   UNL     1       3.027  -4.312   2.279  0.00  0.00    +0.000 A 
ATOM      3  C   UNL     1       3.909  -5.126   2.993  0.00  0.00    +0.000 A 
ATOM      4  C   UNL     1       4.987  -4.584   3.723  0.00  0.00    +0.000 A 
ATOM      5  C   UNL     1       5.194  -3.196   3.644  0.00  0.00    +0.000 A 
ATOM      6 CL   UNL     1       6.553  -2.388   4.350  0.00  0.00    +0.000 Cl
ATOM      7  C   UNL     1       4.288  -2.380   2.956  0.00  0.00    +0.000 A 
ENDROOT
BRANCH   1   8
ATOM      8  C   UNL     1       2.221  -2.030   1.565  0.00  0.00    +0.000 C 
BRANCH   8  11
ATOM      9  O   UNL     1       0.748  -0.633  -0.297  0.00  0.00    +0.000 OA
ATOM     10  C   UNL     1       1.842  -1.067  -0.639  0.00  0.00    +0.000 C 
ATOM     11  N   UNL     1       2.609  -1.846   0.193  0.00  0.00    +0.000 N 
ATOM     12  H   UNL     1       3.582  -2.011  -0.040  0.00  0.00    +0.000 HD
BRANCH  10  13
ATOM     13  C   UNL     1       2.386  -0.800  -1.974  0.00  0.00    +0.000 A 
ATOM     14  C   UNL     1       1.528  -0.502  -3.022  0.00  0.00    +0.000 A 
ATOM     15  S   UNL     1       2.330  -0.189  -4.492  0.00  0.00    +0.000 S 
ATOM     16  C   UNL     1       3.856  -0.404  -3.769  0.00  0.00    +0.000 A 
ATOM     17  N   UNL     1       5.000  -0.229  -4.483  0.00  0.00    +0.000 NA
ATOM     18  C   UNL     1       6.084  -0.385  -3.799  0.00  0.00    +0.000 A 
ATOM     19  N   UNL     1       6.128  -0.721  -2.471  0.00  0.00    +0.000 N 
ATOM     20  C   UNL     1       5.001  -0.949  -1.723  0.00  0.00    +0.000 A 
ATOM     21  O   UNL     1       5.072  -1.317  -0.552  0.00  0.00    +0.000 OA
ATOM     22  C   UNL     1       3.754  -0.748  -2.435  0.00  0.00    +0.000 A 
ATOM     23  H   UNL     1       7.012  -0.853  -2.001  0.00  0.00    +0.000 HD
ENDBRANCH  10  13
ENDBRANCH   8  11
ENDBRANCH   1   8
BRANCH   4  24
ATOM     24  C   UNL     1       5.863  -5.574   4.463  0.00  0.00    +0.000 C 
BRANCH  24  25
ATOM     25  N   UNL     1       6.524  -5.112   5.677  0.00  0.00    +0.000 NA
ATOM     26  H   UNL     1       7.113  -4.313   5.440  0.00  0.00    +0.000 HD
BRANCH  25  27
ATOM     27  C   UNL     1       5.605  -4.728   6.757  0.00  0.00    +0.000 C 
BRANCH  27  28
ATOM     28  C   UNL     1       6.423  -4.193   7.947  0.00  0.00    +0.000 C 
ATOM     29  C   UNL     1       7.336  -5.247   8.556  0.00  0.00    +0.000 C 
ATOM     30  C   UNL     1       7.697  -4.639   9.896  0.00  0.00    +0.000 C 
ATOM     31  C   UNL     1       6.504  -3.761  10.254  0.00  0.00    +0.000 C 
ATOM     32  N   UNL     1       5.605  -3.783   9.096  0.00  0.00    +0.000 NA
ATOM     33  H   UNL     1       5.202  -2.860   8.938  0.00  0.00    +0.000 HD
ENDBRANCH  27  28
ENDBRANCH  25  27
ENDBRANCH  24  25
ENDBRANCH   4  24
TORSDOF 7
