REMARK  Name = 
REMARK  8 active torsions:
REMARK  status: ('A' for Active; 'I' for Inactive)
REMARK    1  A    between atoms: N_1  and  C_2
REMARK    2  A    between atoms: C_2  and  C_3
REMARK    3  A    between atoms: C_3  and  N_4
REMARK    4  A    between atoms: C_3  and  C_17
REMARK    5  A    between atoms: C_5  and  C_7
REMARK    6  A    between atoms: C_20  and  C_21
REMARK    7  A    between atoms: C_21  and  N_22
REMARK    8  A    between atoms: C_23  and  C_25
REMARK                            x       y       z     vdW  Elec       q    Type
REMARK                         _______ _______ _______ _____ _____    ______ ____
ROOT
ATOM      1  C   UNL     1      13.150   3.062  -7.139  0.00  0.00    +0.000 C 
ENDROOT
BRANCH   1   2
ATOM      2  C   UNL     1      12.902   1.626  -6.664  0.00  0.00    +0.000 A 
ATOM      3  C   UNL     1      12.326   1.385  -5.408  0.00  0.00    +0.000 A 
ATOM      4  C   UNL     1      12.141   0.076  -4.940  0.00  0.00    +0.000 A 
ATOM      5  C   UNL     1      12.527  -1.023  -5.720  0.00  0.00    +0.000 A 
ATOM      6  C   UNL     1      13.055  -0.785  -6.995  0.00  0.00    +0.000 A 
ATOM      7  C   UNL     1      13.240   0.520  -7.461  0.00  0.00    +0.000 A 
BRANCH   5   8
ATOM      8  C   UNL     1      12.418  -2.433  -5.201  0.00  0.00    +0.000 C 
BRANCH   8   9
ATOM      9  N   UNL     1      11.157  -3.064  -5.516  0.00  0.00    +0.000 N 
ATOM     10  C   UNL     1      10.952  -4.380  -5.137  0.00  0.00    +0.000 C 
ATOM     11  O   UNL     1      11.795  -5.023  -4.518  0.00  0.00    +0.000 OA
ATOM     12  H   UNL     1      10.566  -2.659  -6.232  0.00  0.00    +0.000 HD
BRANCH  10  13
ATOM     13  C   UNL     1       9.577  -4.951  -5.552  0.00  0.00    +0.000 C 
ATOM     14  C   UNL     1       9.376  -6.391  -5.109  0.00  0.00    +0.000 C 
ATOM     15  C   UNL     1       8.965  -6.256  -3.654  0.00  0.00    +0.000 C 
ATOM     16  C   UNL     1       8.260  -4.910  -3.580  0.00  0.00    +0.000 C 
ATOM     17  N   UNL     1       8.485  -4.229  -4.863  0.00  0.00    +0.000 NA
ATOM     18  H   UNL     1       8.749  -3.258  -4.697  0.00  0.00    +0.000 HD
ENDBRANCH  10  13
ENDBRANCH   8   9
ENDBRANCH   5   8
ENDBRANCH   1   2
BRANCH   1  19
ATOM     19  N   UNL     1      12.343   3.300  -8.323  0.00  0.00    +0.000 N 
ATOM     20  C   UNL     1      12.200   4.533  -8.905  0.00  0.00    +0.000 C 
ATOM     21  O   UNL     1      12.837   5.524  -8.563  0.00  0.00    +0.000 OA
ATOM     22  H   UNL     1      11.609   2.620  -8.477  0.00  0.00    +0.000 HD
BRANCH  20  23
ATOM     23  C   UNL     1      11.259   4.578 -10.024  0.00  0.00    +0.000 A 
ATOM     24  C   UNL     1      11.452   5.452 -11.083  0.00  0.00    +0.000 A 
ATOM     25  S   UNL     1      10.241   5.327 -12.283  0.00  0.00    +0.000 S 
ATOM     26  C   UNL     1       9.400   4.142 -11.398  0.00  0.00    +0.000 A 
ATOM     27  N   UNL     1       8.229   3.617 -11.846  0.00  0.00    +0.000 NA
ATOM     28  C   UNL     1       7.689   2.753 -11.049  0.00  0.00    +0.000 A 
ATOM     29  N   UNL     1       8.220   2.355  -9.852  0.00  0.00    +0.000 N 
ATOM     30  C   UNL     1       9.420   2.820  -9.388  0.00  0.00    +0.000 A 
ATOM     31  O   UNL     1       9.910   2.368  -8.354  0.00  0.00    +0.000 OA
ATOM     32  C   UNL     1      10.051   3.819 -10.222  0.00  0.00    +0.000 A 
ATOM     33  H   UNL     1       7.769   1.655  -9.283  0.00  0.00    +0.000 HD
ENDBRANCH  20  23
ENDBRANCH   1  19
BRANCH   1  34
ATOM     34  C   UNL     1      14.657   3.333  -7.418  0.00  0.00    +0.000 C 
BRANCH  34  35
ATOM     35  N   UNL     1      15.542   3.098  -6.272  0.00  0.00    +0.000 NA
ATOM     36  H   UNL     1      16.496   2.998  -6.616  0.00  0.00    +0.000 HD
ATOM     37  H   UNL     1      15.301   2.212  -5.830  0.00  0.00    +0.000 HD
ENDBRANCH  34  35
ENDBRANCH   1  34
TORSDOF 8
