REMARK  Name = 
REMARK  8 active torsions:
REMARK  status: ('A' for Active; 'I' for Inactive)
REMARK    1  A    between atoms: C_1  and  C_2
REMARK    2  A    between atoms: C_2  and  C_3
REMARK    3  A    between atoms: C_3  and  N_4
REMARK    4  A    between atoms: C_3  and  C_17
REMARK    5  A    between atoms: C_5  and  C_7
REMARK    6  A    between atoms: N_21  and  C_22
REMARK    7  A    between atoms: C_22  and  C_23
REMARK    8  A    between atoms: C_23  and  N_24
REMARK                            x       y       z     vdW  Elec       q    Type
REMARK                         _______ _______ _______ _____ _____    ______ ____
ROOT
ATOM      1  C   UNL     1       3.040  -1.037   1.030  0.00  0.00    +0.000 C 
ENDROOT
BRANCH   1   2
ATOM      2  C   UNL     1       4.557  -0.954   1.054  0.00  0.00    +0.000 A 
ATOM      3  C   UNL     1       5.238   0.161   1.546  0.00  0.00    +0.000 A 
ATOM      4  C   UNL     1       6.631   0.183   1.543  0.00  0.00    +0.000 A 
ATOM      5  C   UNL     1       7.342  -0.907   1.052  0.00  0.00    +0.000 A 
ATOM      6  N   UNL     1       8.725  -0.786   0.972  0.00  0.00    +0.000 N 
ATOM      7  N   UNL     1       6.704  -1.999   0.588  0.00  0.00    +0.000 NA
ATOM      8  C   UNL     1       5.347  -2.011   0.614  0.00  0.00    +0.000 A 
ATOM      9  H   UNL     1       9.163  -0.492   1.836  0.00  0.00    +0.000 HD
BRANCH   6  10
ATOM     10  C   UNL     1       9.482  -1.754   0.185  0.00  0.00    +0.000 C 
BRANCH  10  11
ATOM     11  C   UNL     1       9.778  -1.115  -1.192  0.00  0.00    +0.000 C 
BRANCH  11  12
ATOM     12  N   UNL     1      10.620  -1.912  -2.102  0.00  0.00    +0.000 NA
ATOM     13  C   UNL     1      10.890  -1.160  -3.342  0.00  0.00    +0.000 C 
ATOM     14  C   UNL     1       9.910  -1.688  -4.369  0.00  0.00    +0.000 C 
ATOM     15  C   UNL     1       9.815  -3.153  -4.011  0.00  0.00    +0.000 C 
ATOM     16  C   UNL     1       9.965  -3.173  -2.497  0.00  0.00    +0.000 C 
ENDBRANCH  11  12
ENDBRANCH  10  11
ENDBRANCH   6  10
ENDBRANCH   1   2
BRANCH   1  17
ATOM     17  N   UNL     1       2.494   0.249   0.583  0.00  0.00    +0.000 N 
ATOM     18  C   UNL     1       1.148   0.480   0.394  0.00  0.00    +0.000 C 
ATOM     19  O   UNL     1       0.290  -0.370   0.587  0.00  0.00    +0.000 OA
ATOM     20  H   UNL     1       3.127   0.884   0.116  0.00  0.00    +0.000 HD
BRANCH  18  21
ATOM     21  C   UNL     1       0.817   1.855   0.008  0.00  0.00    +0.000 A 
ATOM     22  C   UNL     1       1.550   2.961   0.415  0.00  0.00    +0.000 A 
ATOM     23  S   UNL     1       0.867   4.447  -0.082  0.00  0.00    +0.000 S 
ATOM     24  C   UNL     1      -0.439   3.657  -0.836  0.00  0.00    +0.000 A 
ATOM     25  N   UNL     1      -1.431   4.365  -1.439  0.00  0.00    +0.000 NA
ATOM     26  C   UNL     1      -2.372   3.634  -1.944  0.00  0.00    +0.000 A 
ATOM     27  N   UNL     1      -2.393   2.264  -1.921  0.00  0.00    +0.000 N 
ATOM     28  C   UNL     1      -1.362   1.502  -1.414  0.00  0.00    +0.000 A 
ATOM     29  O   UNL     1      -1.324   0.292  -1.600  0.00  0.00    +0.000 OA
ATOM     30  C   UNL     1      -0.332   2.282  -0.749  0.00  0.00    +0.000 A 
ATOM     31  H   UNL     1      -3.121   1.741  -2.398  0.00  0.00    +0.000 HD
ENDBRANCH  18  21
ENDBRANCH   1  17
BRANCH   1  33
ATOM     32  C   UNL     1       2.948  -2.815   2.900  0.00  0.00    +0.000 C 
ATOM     33  C   UNL     1       2.489  -1.444   2.417  0.00  0.00    +0.000 C 
ENDBRANCH   1  33
TORSDOF 7
