REMARK  Name = 
REMARK  12 active torsions:
REMARK  status: ('A' for Active; 'I' for Inactive)
REMARK    1  A    between atoms: C_1  and  O_2
REMARK    2  A    between atoms: O_2  and  C_3
REMARK    3  A    between atoms: C_10  and  C_11
REMARK    4  A    between atoms: N_13  and  C_14
REMARK    5  A    between atoms: C_14  and  C_15
REMARK    6  A    between atoms: C_18  and  C_19
REMARK    7  A    between atoms: C_19  and  N_20
REMARK    8  A    between atoms: N_20  and  C_21
REMARK    9  A    between atoms: C_21  and  C_22
REMARK   10  A    between atoms: C_21  and  C_25
REMARK   11  A    between atoms: C_22  and  C_23
REMARK   12  A    between atoms: C_23  and  O_24
REMARK                            x       y       z     vdW  Elec       q    Type
REMARK                         _______ _______ _______ _____ _____    ______ ____
ROOT
ATOM      1  C   UNL     1      -7.730  -0.341   3.957  0.00  0.00    +0.000 A 
ATOM      2  C   UNL     1      -6.461   0.219   4.155  0.00  0.00    +0.000 A 
ATOM      3  C   UNL     1      -5.416  -0.550   4.685  0.00  0.00    +0.000 A 
ATOM      4  C   UNL     1      -5.617  -1.896   5.022  0.00  0.00    +0.000 A 
ATOM      5  C   UNL     1      -6.886  -2.451   4.826  0.00  0.00    +0.000 A 
ATOM      6  C   UNL     1      -7.930  -1.684   4.297  0.00  0.00    +0.000 A 
ENDROOT
BRANCH   1   7
ATOM      7  C   UNL     1      -8.847   0.462   3.337  0.00  0.00    +0.000 C 
BRANCH   7  10
ATOM      8  C   UNL     1      -9.779   0.932   1.104  0.00  0.00    +0.000 C 
ATOM      9  O   UNL     1     -10.639   1.667   1.583  0.00  0.00    +0.000 OA
ATOM     10  N   UNL     1      -8.858   0.307   1.899  0.00  0.00    +0.000 N 
ATOM     11  H   UNL     1      -8.172  -0.314   1.494  0.00  0.00    +0.000 HD
BRANCH   8  19
ATOM     12  C   UNL     1      -7.607  -0.839  -0.895  0.00  0.00    +0.000 A 
ATOM     13  N   UNL     1      -6.964  -1.496  -1.881  0.00  0.00    +0.000 NA
ATOM     14  C   UNL     1      -7.455  -1.402  -3.119  0.00  0.00    +0.000 A 
ATOM     15  N   UNL     1      -8.521  -0.711  -3.511  0.00  0.00    +0.000 NA
ATOM     16  C   UNL     1      -9.138  -0.082  -2.497  0.00  0.00    +0.000 A 
ATOM     17  S   UNL     1     -10.514   0.860  -2.810  0.00  0.00    +0.000 S 
ATOM     18  C   UNL     1     -10.678   1.254  -1.166  0.00  0.00    +0.000 A 
ATOM     19  C   UNL     1      -9.712   0.679  -0.348  0.00  0.00    +0.000 A 
ATOM     20  C   UNL     1      -8.774  -0.099  -1.153  0.00  0.00    +0.000 A 
BRANCH  12  22
ATOM     21  C   UNL     1      -5.718  -1.235   0.429  0.00  0.00    +0.000 C 
ATOM     22  O   UNL     1      -7.116  -0.950   0.386  0.00  0.00    +0.000 OA
ENDBRANCH  12  22
ENDBRANCH   8  19
ENDBRANCH   7  10
ENDBRANCH   1   7
BRANCH   4  23
ATOM     23  C   UNL     1      -4.479  -2.765   5.518  0.00  0.00    +0.000 C 
BRANCH  23  24
ATOM     24  N   UNL     1      -3.912  -2.278   6.785  0.00  0.00    +0.000 NA
ATOM     25  H   UNL     1      -4.678  -2.196   7.454  0.00  0.00    +0.000 HD
BRANCH  24  26
ATOM     26  C   UNL     1      -2.910  -3.237   7.331  0.00  0.00    +0.000 C 
BRANCH  26  27
ATOM     27  C   UNL     1      -1.700  -3.412   6.411  0.00  0.00    +0.000 A 
ATOM     28  C   UNL     1      -1.136  -2.319   5.747  0.00  0.00    +0.000 A 
ATOM     29  C   UNL     1      -0.246  -2.548   4.701  0.00  0.00    +0.000 A 
ATOM     30  C   UNL     1       0.101  -3.853   4.375  0.00  0.00    +0.000 A 
ATOM     31  C   UNL     1      -0.434  -4.877   5.136  0.00  0.00    +0.000 A 
ATOM     32  N   UNL     1      -1.324  -4.689   6.138  0.00  0.00    +0.000 NA
ENDBRANCH  26  27
BRANCH  26  33
ATOM     33  C   UNL     1      -2.537  -2.804   8.761  0.00  0.00    +0.000 C 
BRANCH  33  34
ATOM     34  C   UNL     1      -1.750  -3.858   9.536  0.00  0.00    +0.000 C 
BRANCH  34  35
ATOM     35  O   UNL     1      -1.599  -3.432  10.892  0.00  0.00    +0.000 OA
ATOM     36  H   UNL     1      -1.050  -2.629  10.888  0.00  0.00    +0.000 HD
ENDBRANCH  34  35
ENDBRANCH  33  34
ENDBRANCH  26  33
ENDBRANCH  24  26
ENDBRANCH  23  24
ENDBRANCH   4  23
TORSDOF 11
