REMARK  Name = 
REMARK  9 active torsions:
REMARK  status: ('A' for Active; 'I' for Inactive)
REMARK    1  A    between atoms: C_1  and  N_2
REMARK    2  A    between atoms: N_2  and  C_3
REMARK    3  A    between atoms: N_2  and  C_25
REMARK    4  A    between atoms: C_3  and  C_4
REMARK    5  A    between atoms: C_4  and  N_5
REMARK    6  A    between atoms: C_8  and  C_9
REMARK    7  A    between atoms: C_9  and  N_10
REMARK    8  A    between atoms: C_11  and  C_13
REMARK    9  A    between atoms: C_25  and  C_26
REMARK                            x       y       z     vdW  Elec       q    Type
REMARK                         _______ _______ _______ _____ _____    ______ ____
ROOT
ATOM      1  N   UNL     1       2.817  -0.690  -3.678  0.00  0.00    +0.000 NA
ATOM      2  C   UNL     1       2.398  -1.760  -4.596  0.00  0.00    +0.000 C 
ATOM      3  C   UNL     1       2.878  -1.501  -6.020  0.00  0.00    +0.000 C 
ATOM      4  C   UNL     1       2.375  -0.155  -6.549  0.00  0.00    +0.000 C 
ATOM      5  C   UNL     1       2.824   0.938  -5.572  0.00  0.00    +0.000 C 
ATOM      6  C   UNL     1       2.379   0.640  -4.135  0.00  0.00    +0.000 C 
ENDROOT
BRANCH   1   7
ATOM      7  C   UNL     1       2.310  -0.936  -2.306  0.00  0.00    +0.000 C 
BRANCH   7   8
ATOM      8  C   UNL     1       2.876  -2.232  -1.673  0.00  0.00    +0.000 C 
BRANCH   8  10
ATOM      9  C   UNL     1       2.824  -1.483   0.640  0.00  0.00    +0.000 C 
ATOM     10  N   UNL     1       2.415  -2.531  -0.300  0.00  0.00    +0.000 NA
BRANCH  10  11
ATOM     11  C   UNL     1       2.993  -3.842   0.101  0.00  0.00    +0.000 C 
BRANCH  11  12
ATOM     12  C   UNL     1       2.542  -4.329   1.464  0.00  0.00    +0.000 A 
ATOM     13  C   UNL     1       1.192  -4.571   1.710  0.00  0.00    +0.000 A 
ATOM     14  C   UNL     1       0.798  -4.922   2.997  0.00  0.00    +0.000 A 
ATOM     15  C   UNL     1       1.759  -5.032   3.996  0.00  0.00    +0.000 A 
ATOM     16  C   UNL     1       3.081  -4.795   3.663  0.00  0.00    +0.000 A 
ATOM     17  N   UNL     1       3.494  -4.448   2.426  0.00  0.00    +0.000 NA
ENDBRANCH  11  12
ENDBRANCH  10  11
ENDBRANCH   8  10
ENDBRANCH   7   8
ENDBRANCH   1   7
BRANCH   4  18
ATOM     18  C   UNL     1       0.850  -0.118  -6.745  0.00  0.00    +0.000 C 
BRANCH  18  19
ATOM     19  N   UNL     1       0.407  -1.153  -7.651  0.00  0.00    +0.000 N 
ATOM     20  C   UNL     1      -0.539  -2.091  -7.324  0.00  0.00    +0.000 C 
ATOM     21  O   UNL     1      -1.111  -2.110  -6.239  0.00  0.00    +0.000 OA
ATOM     22  H   UNL     1       0.927  -1.251  -8.515  0.00  0.00    +0.000 HD
BRANCH  20  23
ATOM     23  C   UNL     1      -0.880  -3.041  -8.387  0.00  0.00    +0.000 A 
ATOM     24  C   UNL     1      -2.123  -3.662  -8.390  0.00  0.00    +0.000 A 
ATOM     25  S   UNL     1      -2.381  -4.660  -9.747  0.00  0.00    +0.000 S 
ATOM     26  C   UNL     1      -0.818  -4.345 -10.346  0.00  0.00    +0.000 A 
ATOM     27  N   UNL     1      -0.389  -4.903 -11.509  0.00  0.00    +0.000 NA
ATOM     28  C   UNL     1       0.829  -4.613 -11.823  0.00  0.00    +0.000 A 
ATOM     29  N   UNL     1       1.659  -3.817 -11.077  0.00  0.00    +0.000 N 
ATOM     30  C   UNL     1       1.252  -3.189  -9.925  0.00  0.00    +0.000 A 
ATOM     31  O   UNL     1       1.994  -2.413  -9.333  0.00  0.00    +0.000 OA
ATOM     32  C   UNL     1      -0.110  -3.489  -9.522  0.00  0.00    +0.000 A 
ATOM     33  H   UNL     1       2.601  -3.619 -11.383  0.00  0.00    +0.000 HD
ENDBRANCH  20  23
ENDBRANCH  18  19
ENDBRANCH   4  18
TORSDOF 8
