REMARK  Name = 
REMARK  9 active torsions:
REMARK  status: ('A' for Active; 'I' for Inactive)
REMARK    1  A    between atoms: C_1  and  C_2
REMARK    2  A    between atoms: C_2  and  C_3
REMARK    3  A    between atoms: C_2  and  C_4
REMARK    4  A    between atoms: C_2  and  C_5
REMARK    5  A    between atoms: C_7  and  C_8
REMARK    6  A    between atoms: N_13  and  C_14
REMARK    7  A    between atoms: C_14  and  C_15
REMARK    8  A    between atoms: N_23  and  C_24
REMARK    9  A    between atoms: C_24  and  C_25
REMARK                            x       y       z     vdW  Elec       q    Type
REMARK                         _______ _______ _______ _____ _____    ______ ____
ROOT
ATOM      1  C   UNL     1       4.895   2.722  -4.962  0.00  0.00    +0.000 C 
ENDROOT
BRANCH   1   2
ATOM      2  C   UNL     1       5.608   2.192  -6.188  0.00  0.00    +0.000 A 
ATOM      3  C   UNL     1       4.907   1.612  -7.224  0.00  0.00    +0.000 A 
ATOM      4  C   UNL     1       5.657   1.222  -8.296  0.00  0.00    +0.000 A 
ATOM      5  N   UNL     1       6.989   1.386  -8.373  0.00  0.00    +0.000 NA
ATOM      6  C   UNL     1       7.615   1.928  -7.319  0.00  0.00    +0.000 A 
ATOM      7  N   UNL     1       8.973   2.117  -7.373  0.00  0.00    +0.000 N 
ATOM      8  C   UNL     1       9.704   1.883  -8.614  0.00  0.00    +0.000 C 
ATOM      9  C   UNL     1      10.803   0.822  -8.405  0.00  0.00    +0.000 C 
ATOM     10  N   UNL     1      11.712   1.087  -7.262  0.00  0.00    +0.000 NA
ATOM     11  C   UNL     1      10.872   1.236  -6.045  0.00  0.00    +0.000 C 
ATOM     12  C   UNL     1       9.736   2.287  -6.139  0.00  0.00    +0.000 C 
ATOM     13  N   UNL     1       6.955   2.322  -6.218  0.00  0.00    +0.000 NA
BRANCH  10  14
ATOM     14  C   UNL     1      12.563   2.293  -7.467  0.00  0.00    +0.000 C 
BRANCH  14  15
ATOM     15  C   UNL     1      13.540   2.354  -8.668  0.00  0.00    +0.000 C 
ATOM     16  F   UNL     1      13.555   1.229  -9.412  0.00  0.00    +0.000 F 
ATOM     17  F   UNL     1      13.204   3.377  -9.491  0.00  0.00    +0.000 F 
ATOM     18  F   UNL     1      14.807   2.579  -8.247  0.00  0.00    +0.000 F 
ENDBRANCH  14  15
ENDBRANCH  10  14
ENDBRANCH   1   2
BRANCH   1  24
ATOM     19  C   UNL     1       2.627  -1.108  -3.384  0.00  0.00    +0.000 A 
ATOM     20  C   UNL     1       1.412  -0.672  -3.864  0.00  0.00    +0.000 A 
ATOM     21  C   UNL     1       1.398   0.583  -4.422  0.00  0.00    +0.000 A 
ATOM     22  N   UNL     1       2.473   1.397  -4.502  0.00  0.00    +0.000 NA
ATOM     23  C   UNL     1       3.603   0.916  -3.979  0.00  0.00    +0.000 A 
ATOM     24  N   UNL     1       4.730   1.708  -3.939  0.00  0.00    +0.000 N 
ATOM     25  N   UNL     1       3.720  -0.310  -3.442  0.00  0.00    +0.000 NA
ATOM     26  H   UNL     1       5.543   1.127  -3.768  0.00  0.00    +0.000 HD
BRANCH  21  27
ATOM     27  C   UNL     1       0.121   1.091  -5.008  0.00  0.00    +0.000 C 
ATOM     28  N   UNL     1       0.175   2.337  -5.569  0.00  0.00    +0.000 N 
ATOM     29  O   UNL     1      -0.913   0.435  -4.998  0.00  0.00    +0.000 OA
ATOM     30  H   UNL     1       1.022   2.888  -5.503  0.00  0.00    +0.000 HD
ATOM     31  H   UNL     1      -0.672   2.742  -5.941  0.00  0.00    +0.000 HD
ENDBRANCH  21  27
BRANCH  19  33
ATOM     32  C   UNL     1       2.367  -3.559  -3.871  0.00  0.00    +0.000 C 
ATOM     33  C   UNL     1       2.760  -2.521  -2.799  0.00  0.00    +0.000 C 
ATOM     34  C   UNL     1       1.835  -2.674  -1.574  0.00  0.00    +0.000 C 
ATOM     35  C   UNL     1       4.200  -2.834  -2.346  0.00  0.00    +0.000 C 
ENDBRANCH  19  33
ENDBRANCH   1  24
TORSDOF 6
