REMARK  Name = 
REMARK  10 active torsions:
REMARK  status: ('A' for Active; 'I' for Inactive)
REMARK    1  A    between atoms: C_1  and  C_2
REMARK    2  A    between atoms: C_2  and  O_3
REMARK    3  A    between atoms: O_3  and  C_4
REMARK    4  A    between atoms: C_4  and  C_6
REMARK    5  A    between atoms: C_9  and  N_10
REMARK    6  A    between atoms: N_10  and  C_11
REMARK    7  A    between atoms: C_11  and  C_12
REMARK    8  A    between atoms: C_12  and  C_13
REMARK    9  A    between atoms: C_12  and  C_14
REMARK   10  A    between atoms: C_12  and  C_15
REMARK                            x       y       z     vdW  Elec       q    Type
REMARK                         _______ _______ _______ _____ _____    ______ ____
ROOT
ATOM      1  N   UNL     1       5.881  -4.348   5.476  0.00  0.00    +0.000 N 
ATOM      2  H   UNL     1       5.938  -3.675   6.235  0.00  0.00    +0.000 HD
ENDROOT
BRANCH   1   6
ATOM      3  C   UNL     1       5.046  -2.200   2.080  0.00  0.00    +0.000 A 
ATOM      4  C   UNL     1       4.059  -2.961   2.688  0.00  0.00    +0.000 A 
ATOM      5  N   UNL     1       4.286  -3.698   3.811  0.00  0.00    +0.000 NA
ATOM      6  C   UNL     1       5.536  -3.646   4.315  0.00  0.00    +0.000 A 
ATOM      7  C   UNL     1       6.506  -2.836   3.716  0.00  0.00    +0.000 A 
ATOM      8  N   UNL     1       6.298  -2.107   2.597  0.00  0.00    +0.000 NA
BRANCH   3   9
ATOM      9  C   UNL     1       4.779  -1.598   0.751  0.00  0.00    +0.000 C 
ATOM     10  O   UNL     1       3.705  -1.668   0.174  0.00  0.00    +0.000 OA
BRANCH   9  11
ATOM     11  O   UNL     1       5.939  -1.110   0.243  0.00  0.00    +0.000 OA
BRANCH  11  13
ATOM     12  C   UNL     1       6.439  -2.360  -1.732  0.00  0.00    +0.000 C 
ATOM     13  C   UNL     1       6.009  -1.010  -1.184  0.00  0.00    +0.000 C 
ENDBRANCH  11  13
ENDBRANCH   9  11
ENDBRANCH   3   9
ENDBRANCH   1   6
BRANCH   1  14
ATOM     14  C   UNL     1       5.046  -5.507   5.798  0.00  0.00    +0.000 C 
BRANCH  14  15
ATOM     15  C   UNL     1       5.572  -6.244   7.079  0.00  0.00    +0.000 C 
ATOM     16  C   UNL     1       7.081  -6.550   6.906  0.00  0.00    +0.000 C 
ATOM     17  C   UNL     1       5.433  -5.319   8.313  0.00  0.00    +0.000 C 
BRANCH  15  18
ATOM     18  C   UNL     1       4.731  -7.515   7.321  0.00  0.00    +0.000 A 
ATOM     19  C   UNL     1       5.294  -8.800   7.366  0.00  0.00    +0.000 A 
ATOM     20  C   UNL     1       4.478  -9.899   7.601  0.00  0.00    +0.000 A 
ATOM     21  N   UNL     1       3.147  -9.820   7.791  0.00  0.00    +0.000 NA
ATOM     22  C   UNL     1       2.610  -8.585   7.748  0.00  0.00    +0.000 A 
ATOM     23  C   UNL     1       3.344  -7.426   7.523  0.00  0.00    +0.000 A 
ENDBRANCH  15  18
ENDBRANCH  14  15
ENDBRANCH   1  14
TORSDOF 7
