REMARK  Name = 
REMARK  4 active torsions:
REMARK  status: ('A' for Active; 'I' for Inactive)
REMARK    1  A    between atoms: C_2  and  C_4
REMARK    2  A    between atoms: C_7  and  C_8
REMARK    3  A    between atoms: C_8  and  N_9
REMARK    4  A    between atoms: C_14  and  C_15
REMARK                            x       y       z     vdW  Elec       q    Type
REMARK                         _______ _______ _______ _____ _____    ______ ____
ROOT
ATOM      1  C   UNL     1       5.402   1.598   4.644  0.00  0.00    +0.000 C 
ENDROOT
BRANCH   1   2
ATOM      2  N   UNL     1       4.686   1.254   5.850  0.00  0.00    +0.000 N 
ATOM      3  C   UNL     1       5.315   1.607   7.030  0.00  0.00    +0.000 A 
ATOM      4  N   UNL     1       5.104   0.793   8.069  0.00  0.00    +0.000 NA
ATOM      5  C   UNL     1       5.657   1.138   9.245  0.00  0.00    +0.000 A 
ATOM      6  C   UNL     1       6.421   2.265   9.422  0.00  0.00    +0.000 A 
ATOM      7  C   UNL     1       6.604   3.052   8.300  0.00  0.00    +0.000 A 
ATOM      8  N   UNL     1       6.060   2.718   7.098  0.00  0.00    +0.000 NA
ATOM      9  H   UNL     1       4.417   0.280   5.935  0.00  0.00    +0.000 HD
BRANCH   7  10
ATOM     10  C   UNL     1       7.424   4.327   8.396  0.00  0.00    +0.000 C 
ATOM     11  F   UNL     1       7.880   4.578   9.661  0.00  0.00    +0.000 F 
ATOM     12  F   UNL     1       8.537   4.307   7.609  0.00  0.00    +0.000 F 
ATOM     13  F   UNL     1       6.726   5.442   8.037  0.00  0.00    +0.000 F 
ENDBRANCH   7  10
ENDBRANCH   1   2
BRANCH   1  17
ATOM     14  C   UNL     1       3.099   0.333   1.202  0.00  0.00    +0.000 A 
ATOM     15  C   UNL     1       2.920   1.614   1.737  0.00  0.00    +0.000 A 
ATOM     16  C   UNL     1       3.663   2.016   2.851  0.00  0.00    +0.000 A 
ATOM     17  C   UNL     1       4.599   1.151   3.440  0.00  0.00    +0.000 A 
ATOM     18  C   UNL     1       4.750  -0.141   2.916  0.00  0.00    +0.000 A 
ATOM     19  C   UNL     1       4.003  -0.548   1.807  0.00  0.00    +0.000 A 
BRANCH  14  21
ATOM     20  N   UNL     1       1.916   0.810  -0.874  0.00  0.00    +0.000 N 
ATOM     21  C   UNL     1       2.336  -0.139   0.017  0.00  0.00    +0.000 C 
ATOM     22  O   UNL     1       2.126  -1.328  -0.184  0.00  0.00    +0.000 OA
ATOM     23  H   UNL     1       1.497   0.466  -1.729  0.00  0.00    +0.000 HD
ATOM     24  H   UNL     1       2.286   1.750  -0.878  0.00  0.00    +0.000 HD
ENDBRANCH  14  21
ENDBRANCH   1  17
TORSDOF 4
