REMARK  Name = 
REMARK  3 active torsions:
REMARK  status: ('A' for Active; 'I' for Inactive)
REMARK    1  A    between atoms: C_2  and  C_4
REMARK    2  A    between atoms: N_8  and  C_9
REMARK    3  A    between atoms: C_9  and  C_10
REMARK                            x       y       z     vdW  Elec       q    Type
REMARK                         _______ _______ _______ _____ _____    ______ ____
ROOT
ATOM      1  C   UNL     1       2.862  -1.027  -1.268  0.00  0.00    +0.000 A 
ATOM      2  C   UNL     1       4.030  -1.429  -0.635  0.00  0.00    +0.000 A 
ATOM      3  C   UNL     1       4.784  -2.459  -1.196  0.00  0.00    +0.000 A 
ATOM      4  C   UNL     1       4.378  -3.044  -2.400  0.00  0.00    +0.000 A 
ATOM      5  N   UNL     1       5.133  -4.080  -2.945  0.00  0.00    +0.000 N 
ATOM      6  N   UNL     1       3.229  -2.675  -3.003  0.00  0.00    +0.000 NA
ATOM      7  C   UNL     1       2.488  -1.702  -2.421  0.00  0.00    +0.000 A 
ATOM      8  H   UNL     1       6.046  -4.190  -2.525  0.00  0.00    +0.000 HD
ENDROOT
BRANCH   1  10
ATOM      9  N   UNL     1       2.665   1.094  -0.119  0.00  0.00    +0.000 N 
ATOM     10  C   UNL     1       2.020   0.085  -0.780  0.00  0.00    +0.000 C 
ATOM     11  O   UNL     1       0.822   0.131  -1.005  0.00  0.00    +0.000 OA
ATOM     12  H   UNL     1       2.109   1.917   0.085  0.00  0.00    +0.000 HD
ATOM     13  H   UNL     1       3.665   1.214  -0.166  0.00  0.00    +0.000 HD
ENDBRANCH   1  10
BRANCH   5  14
ATOM     14  C   UNL     1       5.086  -4.205  -4.402  0.00  0.00    +0.000 C 
BRANCH  14  15
ATOM     15  C   UNL     1       6.036  -5.316  -4.899  0.00  0.00    +0.000 C 
ATOM     16  C   UNL     1       5.684  -6.671  -4.265  0.00  0.00    +0.000 C 
ATOM     17  C   UNL     1       6.637  -7.776  -4.708  0.00  0.00    +0.000 C 
ATOM     18  C   UNL     1       8.088  -7.399  -4.434  0.00  0.00    +0.000 C 
ATOM     19  C   UNL     1       8.454  -6.088  -5.122  0.00  0.00    +0.000 C 
ATOM     20  C   UNL     1       7.520  -4.956  -4.696  0.00  0.00    +0.000 C 
ENDBRANCH  14  15
ENDBRANCH   5  14
TORSDOF 3
