REMARK  Name = 
REMARK  6 active torsions:
REMARK  status: ('A' for Active; 'I' for Inactive)
REMARK    1  A    between atoms: C_1  and  C_2
REMARK    2  A    between atoms: C_5  and  C_6
REMARK    3  A    between atoms: C_6  and  O_7
REMARK    4  A    between atoms: O_7  and  C_8
REMARK    5  A    between atoms: C_11  and  C_12
REMARK    6  A    between atoms: C_18  and  C_19
REMARK                            x       y       z     vdW  Elec       q    Type
REMARK                         _______ _______ _______ _____ _____    ______ ____
ROOT
ATOM      1  C   UNL     1       2.483   0.037  -0.127  0.00  0.00    +0.000 C 
ATOM      2  C   UNL     1       0.978  -0.034  -0.126  0.00  0.00    +0.000 A 
ATOM      3  C   UNL     1       0.274   1.181  -0.199  0.00  0.00    +0.000 A 
ATOM      4  C   UNL     1      -1.117   1.204  -0.201  0.00  0.00    +0.000 A 
ATOM      5  C   UNL     1      -1.836   0.009  -0.145  0.00  0.00    +0.000 A 
ATOM      6  C   UNL     1      -1.139  -1.212  -0.084  0.00  0.00    +0.000 A 
ATOM      7  C   UNL     1       0.266  -1.256  -0.017  0.00  0.00    +0.000 A 
ENDROOT
BRANCH   7   8
ATOM      8  C   UNL     1       0.994  -2.579   0.245  0.00  0.00    +0.000 C 
ATOM      9  C   UNL     1       1.188  -3.450  -1.009  0.00  0.00    +0.000 C 
ATOM     10  C   UNL     1       0.203  -4.607  -1.140  0.00  0.00    +0.000 C 
ATOM     11  N   UNL     1       0.124  -5.388   0.092  0.00  0.00    +0.000 NA
ATOM     12  C   UNL     1      -0.420  -4.560   1.163  0.00  0.00    +0.000 C 
ATOM     13  C   UNL     1       0.467  -3.358   1.473  0.00  0.00    +0.000 C 
ATOM     14  H   UNL     1       1.057  -5.712   0.351  0.00  0.00    +0.000 HD
ENDBRANCH   7   8
BRANCH   5  15
ATOM     15  C   UNL     1      -3.344   0.044  -0.072  0.00  0.00    +0.000 C 
BRANCH  15  16
ATOM     16  O   UNL     1      -3.912   0.159  -1.378  0.00  0.00    +0.000 OA
BRANCH  16  17
ATOM     17  C   UNL     1      -5.293   0.103  -1.333  0.00  0.00    +0.000 A 
ATOM     18  C   UNL     1      -5.979   0.196  -2.532  0.00  0.00    +0.000 A 
ATOM     19  C   UNL     1      -7.372   0.104  -2.504  0.00  0.00    +0.000 A 
ATOM     20  C   UNL     1      -8.037  -0.080  -1.286  0.00  0.00    +0.000 A 
ATOM     21  C   UNL     1      -7.257  -0.146  -0.143  0.00  0.00    +0.000 A 
ATOM     22  N   UNL     1      -5.906  -0.057  -0.139  0.00  0.00    +0.000 NA
BRANCH  20  23
ATOM     23  C   UNL     1      -9.515  -0.203  -1.266  0.00  0.00    +0.000 C 
ATOM     24  N   UNL     1     -10.154  -0.406  -0.073  0.00  0.00    +0.000 N 
ATOM     25  O   UNL     1     -10.167  -0.131  -2.301  0.00  0.00    +0.000 OA
ATOM     26  H   UNL     1      -9.721  -0.510   0.828  0.00  0.00    +0.000 HD
ATOM     27  H   UNL     1     -11.160  -0.502  -0.113  0.00  0.00    +0.000 HD
ENDBRANCH  20  23
ENDBRANCH  16  17
ENDBRANCH  15  16
ENDBRANCH   5  15
TORSDOF 5
