REMARK  Name = 
REMARK  7 active torsions:
REMARK  status: ('A' for Active; 'I' for Inactive)
REMARK    1  A    between atoms: C_1  and  C_2
REMARK    2  A    between atoms: C_2  and  N_3
REMARK    3  A    between atoms: C_2  and  C_16
REMARK    4  A    between atoms: C_4  and  C_6
REMARK    5  A    between atoms: C_19  and  C_20
REMARK    6  A    between atoms: C_20  and  N_21
REMARK    7  A    between atoms: C_22  and  C_24
REMARK                            x       y       z     vdW  Elec       q    Type
REMARK                         _______ _______ _______ _____ _____    ______ ____
ROOT
ATOM      1  C   UNL     1       0.972  -0.214  -0.124  0.00  0.00    +0.000 C 
ATOM      2  C   UNL     1       2.483   0.013   0.010  0.00  0.00    +0.000 C 
ENDROOT
BRANCH   2   3
ATOM      3  C   UNL     1       3.081   0.306  -1.364  0.00  0.00    +0.000 A 
ATOM      4  C   UNL     1       3.109   1.625  -1.845  0.00  0.00    +0.000 A 
ATOM      5  C   UNL     1       3.619   1.922  -3.116  0.00  0.00    +0.000 A 
ATOM      6  C   UNL     1       4.112   0.906  -3.944  0.00  0.00    +0.000 A 
ATOM      7  C   UNL     1       4.100  -0.409  -3.464  0.00  0.00    +0.000 A 
ATOM      8  C   UNL     1       3.569  -0.708  -2.203  0.00  0.00    +0.000 A 
BRANCH   6   9
ATOM      9  C   UNL     1       4.583   1.207  -5.343  0.00  0.00    +0.000 C 
BRANCH   9  10
ATOM     10  N   UNL     1       5.969   1.586  -5.429  0.00  0.00    +0.000 N 
ATOM     11  C   UNL     1       6.544   1.860  -6.653  0.00  0.00    +0.000 C 
ATOM     12  O   UNL     1       5.915   1.796  -7.705  0.00  0.00    +0.000 OA
ATOM     13  H   UNL     1       6.553   1.669  -4.602  0.00  0.00    +0.000 HD
BRANCH  11  14
ATOM     14  C   UNL     1       7.947   2.225  -6.601  0.00  0.00    +0.000 A 
ATOM     15  N   UNL     1       8.683   2.319  -5.507  0.00  0.00    +0.000 NA
ATOM     16  C   UNL     1       9.935   2.686  -5.937  0.00  0.00    +0.000 A 
ATOM     17  C   UNL     1       9.967   2.815  -7.304  0.00  0.00    +0.000 A 
ATOM     18  N   UNL     1       8.698   2.523  -7.715  0.00  0.00    +0.000 N 
ATOM     19  H   UNL     1       8.342   2.516  -8.663  0.00  0.00    +0.000 HD
ENDBRANCH  11  14
ENDBRANCH   9  10
ENDBRANCH   6   9
ENDBRANCH   2   3
BRANCH   2  20
ATOM     20  N   UNL     1       3.148  -1.108   0.665  0.00  0.00    +0.000 N 
ATOM     21  C   UNL     1       2.868  -1.471   1.960  0.00  0.00    +0.000 C 
ATOM     22  O   UNL     1       2.005  -0.915   2.633  0.00  0.00    +0.000 OA
ATOM     23  H   UNL     1       4.055  -1.374   0.295  0.00  0.00    +0.000 HD
BRANCH  21  24
ATOM     24  C   UNL     1       3.619  -2.608   2.502  0.00  0.00    +0.000 A 
ATOM     25  C   UNL     1       3.036  -3.413   3.473  0.00  0.00    +0.000 A 
ATOM     26  S   UNL     1       4.060  -4.654   4.037  0.00  0.00    +0.000 S 
ATOM     27  C   UNL     1       5.323  -4.149   3.014  0.00  0.00    +0.000 A 
ATOM     28  N   UNL     1       6.530  -4.775   3.031  0.00  0.00    +0.000 NA
ATOM     29  C   UNL     1       7.399  -4.278   2.215  0.00  0.00    +0.000 A 
ATOM     30  N   UNL     1       7.165  -3.222   1.372  0.00  0.00    +0.000 N 
ATOM     31  C   UNL     1       5.950  -2.584   1.294  0.00  0.00    +0.000 A 
ATOM     32  O   UNL     1       5.741  -1.697   0.474  0.00  0.00    +0.000 OA
ATOM     33  C   UNL     1       4.953  -3.077   2.222  0.00  0.00    +0.000 A 
ATOM     34  H   UNL     1       7.879  -2.902   0.734  0.00  0.00    +0.000 HD
ENDBRANCH  21  24
ENDBRANCH   2  20
TORSDOF 6
