REMARK  Name = 
REMARK  8 active torsions:
REMARK  status: ('A' for Active; 'I' for Inactive)
REMARK    1  A    between atoms: N_1  and  C_2
REMARK    2  A    between atoms: C_2  and  C_3
REMARK    3  A    between atoms: C_2  and  C_17
REMARK    4  A    between atoms: C_3  and  N_4
REMARK    5  A    between atoms: C_5  and  C_7
REMARK    6  A    between atoms: C_20  and  C_21
REMARK    7  A    between atoms: C_21  and  N_22
REMARK    8  A    between atoms: C_23  and  C_25
REMARK                            x       y       z     vdW  Elec       q    Type
REMARK                         _______ _______ _______ _____ _____    ______ ____
ROOT
ATOM      1  C   UNL     1       2.483   0.015  -0.040  0.00  0.00    +0.000 C 
ENDROOT
BRANCH   1   2
ATOM      2  C   UNL     1       3.001  -0.512  -1.377  0.00  0.00    +0.000 A 
ATOM      3  C   UNL     1       2.300  -0.254  -2.567  0.00  0.00    +0.000 A 
ATOM      4  C   UNL     1       2.747  -0.749  -3.798  0.00  0.00    +0.000 A 
ATOM      5  C   UNL     1       3.919  -1.509  -3.874  0.00  0.00    +0.000 A 
ATOM      6  C   UNL     1       4.659  -1.715  -2.708  0.00  0.00    +0.000 A 
ATOM      7  C   UNL     1       4.206  -1.226  -1.480  0.00  0.00    +0.000 A 
BRANCH   5   8
ATOM      8  C   UNL     1       4.370  -2.125  -5.170  0.00  0.00    +0.000 C 
BRANCH   8   9
ATOM      9  N   UNL     1       5.225  -1.253  -5.933  0.00  0.00    +0.000 N 
ATOM     10  C   UNL     1       5.806  -1.699  -7.101  0.00  0.00    +0.000 C 
ATOM     11  O   UNL     1       5.649  -2.838  -7.524  0.00  0.00    +0.000 OA
ATOM     12  H   UNL     1       5.294  -0.283  -5.666  0.00  0.00    +0.000 HD
BRANCH  10  13
ATOM     13  C   UNL     1       6.627  -0.733  -7.783  0.00  0.00    +0.000 A 
ATOM     14  C   UNL     1       6.997   0.569  -7.503  0.00  0.00    +0.000 A 
ATOM     15  C   UNL     1       7.838   0.951  -8.565  0.00  0.00    +0.000 A 
ATOM     16  N   UNL     1       7.991  -0.022  -9.464  0.00  0.00    +0.000 NA
ATOM     17  N   UNL     1       7.250  -1.029  -8.969  0.00  0.00    +0.000 N 
ATOM     18  H   UNL     1       7.208  -1.907  -9.478  0.00  0.00    +0.000 HD
ENDBRANCH  10  13
ENDBRANCH   8   9
ENDBRANCH   5   8
ENDBRANCH   1   2
BRANCH   1  19
ATOM     19  N   UNL     1       1.007   0.086  -0.027  0.00  0.00    +0.000 NA
ATOM     20  H   UNL     1       0.706   0.350   0.911  0.00  0.00    +0.000 HD
ATOM     21  H   UNL     1       0.644  -0.864  -0.135  0.00  0.00    +0.000 HD
ENDBRANCH   1  19
BRANCH   1  22
ATOM     22  C   UNL     1       3.008  -0.796   1.180  0.00  0.00    +0.000 C 
BRANCH  22  23
ATOM     23  N   UNL     1       2.588  -0.257   2.457  0.00  0.00    +0.000 N 
ATOM     24  C   UNL     1       1.479  -0.714   3.111  0.00  0.00    +0.000 C 
ATOM     25  O   UNL     1       0.761  -1.595   2.644  0.00  0.00    +0.000 OA
ATOM     26  H   UNL     1       3.063   0.578   2.787  0.00  0.00    +0.000 HD
BRANCH  24  27
ATOM     27  C   UNL     1       1.197  -0.112   4.411  0.00  0.00    +0.000 A 
ATOM     28  C   UNL     1       0.476  -0.833   5.352  0.00  0.00    +0.000 A 
ATOM     29  S   UNL     1       0.204   0.024   6.798  0.00  0.00    +0.000 S 
ATOM     30  C   UNL     1       1.009   1.399   6.198  0.00  0.00    +0.000 A 
ATOM     31  N   UNL     1       1.091   2.537   6.937  0.00  0.00    +0.000 NA
ATOM     32  C   UNL     1       1.696   3.514   6.345  0.00  0.00    +0.000 A 
ATOM     33  N   UNL     1       2.248   3.447   5.091  0.00  0.00    +0.000 N 
ATOM     34  C   UNL     1       2.251   2.298   4.336  0.00  0.00    +0.000 A 
ATOM     35  O   UNL     1       2.859   2.232   3.272  0.00  0.00    +0.000 OA
ATOM     36  C   UNL     1       1.524   1.192   4.931  0.00  0.00    +0.000 A 
ATOM     37  H   UNL     1       2.741   4.239   4.705  0.00  0.00    +0.000 HD
ENDBRANCH  24  27
ENDBRANCH  22  23
ENDBRANCH   1  22
TORSDOF 8
