REMARK  Name = 
REMARK  6 active torsions:
REMARK  status: ('A' for Active; 'I' for Inactive)
REMARK    1  A    between atoms: C_1  and  C_2
REMARK    2  A    between atoms: C_2  and  N_3
REMARK    3  A    between atoms: C_2  and  C_13
REMARK    4  A    between atoms: C_7  and  C_8
REMARK    5  A    between atoms: C_16  and  C_17
REMARK    6  A    between atoms: C_16  and  C_18
REMARK                            x       y       z     vdW  Elec       q    Type
REMARK                         _______ _______ _______ _____ _____    ______ ____
ROOT
ATOM      1  N   UNL     1       0.815   0.158  -0.183  0.00  0.00    +0.000 N 
ATOM      2  C   UNL     1      -0.050  -0.161  -1.201  0.00  0.00    +0.000 A 
ATOM      3  C   UNL     1       0.116  -1.185  -2.132  0.00  0.00    +0.000 A 
ATOM      4  N   UNL     1      -0.808  -1.529  -3.079  0.00  0.00    +0.000 NA
ATOM      5  C   UNL     1      -1.947  -0.785  -3.046  0.00  0.00    +0.000 A 
ATOM      6  C   UNL     1      -2.126   0.242  -2.139  0.00  0.00    +0.000 A 
ATOM      7  N   UNL     1      -1.187   0.572  -1.208  0.00  0.00    +0.000 NA
ATOM      8  H   UNL     1       0.474   1.008   0.260  0.00  0.00    +0.000 HD
ENDROOT
BRANCH   5   9
ATOM      9  C   UNL     1      -3.029  -1.118  -4.016  0.00  0.00    +0.000 C 
ATOM     10  N   UNL     1      -2.774  -2.150  -4.881  0.00  0.00    +0.000 N 
ATOM     11  O   UNL     1      -4.094  -0.513  -4.040  0.00  0.00    +0.000 OA
ATOM     12  H   UNL     1      -1.895  -2.654  -4.825  0.00  0.00    +0.000 HD
ATOM     13  H   UNL     1      -3.486  -2.441  -5.535  0.00  0.00    +0.000 HD
ENDBRANCH   5   9
BRANCH   1  15
ATOM     14  C   UNL     1       2.470  -1.540   0.368  0.00  0.00    +0.000 C 
ATOM     15  C   UNL     1       2.253  -0.101  -0.133  0.00  0.00    +0.000 C 
BRANCH  15  16
ATOM     16  C   UNL     1       2.933   0.925   0.841  0.00  0.00    +0.000 C 
ATOM     17  C   UNL     1       2.745   2.399   0.429  0.00  0.00    +0.000 C 
ATOM     18  C   UNL     1       3.524   2.782  -0.829  0.00  0.00    +0.000 C 
ATOM     19  C   UNL     1       5.024   2.406  -0.788  0.00  0.00    +0.000 C 
ATOM     20  C   UNL     1       5.583   2.460  -2.223  0.00  0.00    +0.000 C 
ATOM     21  C   UNL     1       5.790   3.431   0.072  0.00  0.00    +0.000 C 
ATOM     22  C   UNL     1       5.254   0.986  -0.223  0.00  0.00    +0.000 C 
ATOM     23  C   UNL     1       4.445   0.697   1.040  0.00  0.00    +0.000 C 
ENDBRANCH  15  16
ENDBRANCH   1  15
TORSDOF 3
