REMARK  Name = 
REMARK  8 active torsions:
REMARK  status: ('A' for Active; 'I' for Inactive)
REMARK    1  A    between atoms: C_1  and  C_2
REMARK    2  A    between atoms: C_2  and  C_3
REMARK    3  A    between atoms: C_2  and  C_4
REMARK    4  A    between atoms: C_2  and  C_15
REMARK    5  A    between atoms: C_4  and  N_5
REMARK    6  A    between atoms: N_5  and  C_6
REMARK    7  A    between atoms: C_9  and  C_10
REMARK    8  A    between atoms: C_19  and  C_20
REMARK                            x       y       z     vdW  Elec       q    Type
REMARK                         _______ _______ _______ _____ _____    ______ ____
ROOT
ATOM      1  C   UNL     1       0.977   0.081   0.125  0.00  0.00    +0.000 C 
ATOM      2  C   UNL     1       2.520   0.072   0.117  0.00  0.00    +0.000 C 
ATOM      3  C   UNL     1       3.041  -1.332   0.498  0.00  0.00    +0.000 C 
ENDROOT
BRANCH   2   4
ATOM      4  C   UNL     1       3.051   1.076   1.159  0.00  0.00    +0.000 A 
ATOM      5  C   UNL     1       2.705   0.974   2.512  0.00  0.00    +0.000 A 
ATOM      6  C   UNL     1       3.262   1.857   3.437  0.00  0.00    +0.000 A 
ATOM      7  C   UNL     1       4.153   2.827   3.001  0.00  0.00    +0.000 A 
ATOM      8  C   UNL     1       4.442   2.867   1.651  0.00  0.00    +0.000 A 
ATOM      9  N   UNL     1       3.918   2.024   0.734  0.00  0.00    +0.000 NA
BRANCH   8  10
ATOM     10  C   UNL     1       5.437   3.741   1.125  0.00  0.00    +0.000 C 
ATOM     11  C   UNL     1       6.428   4.391   0.592  0.00  0.00    +0.000 C 
ATOM     12  C   UNL     1       7.683   3.803   0.135  0.00  0.00    +0.000 C 
ATOM     13  O   UNL     1       7.544   4.516  -1.102  0.00  0.00    +0.000 OA
ATOM     14  C   UNL     1       6.427   5.255  -0.583  0.00  0.00    +0.000 C 
ENDBRANCH   8  10
ENDBRANCH   2   4
BRANCH   2  15
ATOM     15  C   UNL     1       3.041   0.446  -1.311  0.00  0.00    +0.000 C 
BRANCH  15  16
ATOM     16  N   UNL     1       2.505  -0.429  -2.367  0.00  0.00    +0.000 N 
ATOM     17  H   UNL     1       2.326  -1.388  -2.091  0.00  0.00    +0.000 HD
BRANCH  16  18
ATOM     18  C   UNL     1       2.959  -0.332  -3.683  0.00  0.00    +0.000 A 
ATOM     19  C   UNL     1       3.771   0.704  -4.155  0.00  0.00    +0.000 A 
ATOM     20  C   UNL     1       4.091   0.812  -5.515  0.00  0.00    +0.000 A 
ATOM     21  C   UNL     1       3.586  -0.107  -6.437  0.00  0.00    +0.000 A 
ATOM     22  C   UNL     1       2.763  -1.141  -5.987  0.00  0.00    +0.000 A 
ATOM     23  C   UNL     1       2.454  -1.243  -4.625  0.00  0.00    +0.000 A 
BRANCH  21  24
ATOM     24  C   UNL     1       3.902   0.085  -7.877  0.00  0.00    +0.000 C 
ATOM     25  N   UNL     1       3.836  -1.007  -8.694  0.00  0.00    +0.000 N 
ATOM     26  O   UNL     1       4.237   1.179  -8.325  0.00  0.00    +0.000 OA
ATOM     27  H   UNL     1       3.804  -1.951  -8.339  0.00  0.00    +0.000 HD
ATOM     28  H   UNL     1       4.152  -0.870  -9.646  0.00  0.00    +0.000 HD
ENDBRANCH  21  24
ENDBRANCH  16  18
ENDBRANCH  15  16
ENDBRANCH   2  15
TORSDOF 6
