REMARK  Name = 
REMARK  5 active torsions:
REMARK  status: ('A' for Active; 'I' for Inactive)
REMARK    1  A    between atoms: N_1  and  C_2
REMARK    2  A    between atoms: C_2  and  C_3
REMARK    3  A    between atoms: C_3  and  C_4
REMARK    4  A    between atoms: C_7  and  C_8
REMARK    5  A    between atoms: C_8  and  N_9
REMARK                            x       y       z     vdW  Elec       q    Type
REMARK                         _______ _______ _______ _____ _____    ______ ____
ROOT
ATOM      1  C   UNL     1       4.387  -1.440   0.568  0.00  0.00    +0.000 A 
ATOM      2  C   UNL     1       5.052  -1.559   1.795  0.00  0.00    +0.000 A 
ATOM      3  C   UNL     1       6.447  -1.637   1.842  0.00  0.00    +0.000 A 
ATOM      4  C   UNL     1       7.207  -1.590   0.666  0.00  0.00    +0.000 A 
ATOM      5  C   UNL     1       6.539  -1.452  -0.559  0.00  0.00    +0.000 A 
ATOM      6  C   UNL     1       5.144  -1.373  -0.607  0.00  0.00    +0.000 A 
ENDROOT
BRANCH   1   7
ATOM      7  C   UNL     1       2.879  -1.388   0.513  0.00  0.00    +0.000 C 
BRANCH   7   8
ATOM      8  C   UNL     1       2.340   0.041   0.619  0.00  0.00    +0.000 C 
BRANCH   8   9
ATOM      9  N   UNL     1       0.877   0.054   0.571  0.00  0.00    +0.000 NA
ATOM     10  H   UNL     1       0.545   1.012   0.678  0.00  0.00    +0.000 HD
ATOM     11  H   UNL     1       0.503  -0.467   1.363  0.00  0.00    +0.000 HD
ENDBRANCH   8   9
ENDBRANCH   7   8
ENDBRANCH   1   7
BRANCH   4  12
ATOM     12  C   UNL     1       8.711  -1.685   0.713  0.00  0.00    +0.000 C 
BRANCH  12  13
ATOM     13  N   UNL     1       9.190  -3.060   0.604  0.00  0.00    +0.000 N 
ATOM     14  C   UNL     1       9.449  -3.692  -0.590  0.00  0.00    +0.000 A 
ATOM     15  C   UNL     1      10.015  -4.915  -0.315  0.00  0.00    +0.000 A 
ATOM     16  C   UNL     1      10.113  -5.039   1.098  0.00  0.00    +0.000 A 
ATOM     17  C   UNL     1      10.612  -6.029   1.953  0.00  0.00    +0.000 A 
ATOM     18  N   UNL     1      10.575  -5.867   3.297  0.00  0.00    +0.000 NA
ATOM     19  C   UNL     1      10.042  -4.733   3.797  0.00  0.00    +0.000 A 
ATOM     20  C   UNL     1       9.526  -3.692   3.040  0.00  0.00    +0.000 A 
ATOM     21  C   UNL     1       9.578  -3.870   1.654  0.00  0.00    +0.000 A 
ENDBRANCH  12  13
ENDBRANCH   4  12
TORSDOF 5
