REMARK  Name = 
REMARK  8 active torsions:
REMARK  status: ('A' for Active; 'I' for Inactive)
REMARK    1  A    between atoms: C_1  and  O_2
REMARK    2  A    between atoms: O_2  and  C_3
REMARK    3  A    between atoms: C_5  and  C_6
REMARK    4  A    between atoms: C_6  and  N_7
REMARK    5  A    between atoms: C_8  and  C_10
REMARK    6  A    between atoms: C_22  and  O_23
REMARK    7  A    between atoms: O_23  and  C_24
REMARK    8  A    between atoms: C_24  and  C_25
REMARK                            x       y       z     vdW  Elec       q    Type
REMARK                         _______ _______ _______ _____ _____    ______ ____
ROOT
ATOM      1  C   UNL     1       3.175   0.942   0.801  0.00  0.00    +0.000 A 
ATOM      2  C   UNL     1       2.711   1.201   2.100  0.00  0.00    +0.000 A 
ATOM      3  C   UNL     1       3.451   1.985   2.995  0.00  0.00    +0.000 A 
ATOM      4  C   UNL     1       4.646   2.556   2.560  0.00  0.00    +0.000 A 
ATOM      5  C   UNL     1       5.095   2.341   1.259  0.00  0.00    +0.000 A 
ATOM      6  C   UNL     1       4.349   1.574   0.353  0.00  0.00    +0.000 A 
ENDROOT
BRANCH   1   8
ATOM      7  C   UNL     1       1.843  -0.992   0.559  0.00  0.00    +0.000 C 
ATOM      8  O   UNL     1       2.486   0.125  -0.066  0.00  0.00    +0.000 OA
ENDBRANCH   1   8
BRANCH   3   9
ATOM      9  C   UNL     1       2.954   2.218   4.395  0.00  0.00    +0.000 C 
BRANCH   9  10
ATOM     10  N   UNL     1       2.113   3.381   4.464  0.00  0.00    +0.000 N 
ATOM     11  C   UNL     1       1.675   3.867   5.669  0.00  0.00    +0.000 C 
ATOM     12  O   UNL     1       2.007   3.356   6.736  0.00  0.00    +0.000 OA
ATOM     13  H   UNL     1       1.640   3.664   3.611  0.00  0.00    +0.000 HD
BRANCH  11  14
ATOM     14  C   UNL     1       0.841   5.074   5.623  0.00  0.00    +0.000 A 
ATOM     15  C   UNL     1       0.749   5.889   6.744  0.00  0.00    +0.000 A 
ATOM     16  S   UNL     1      -0.207   7.280   6.500  0.00  0.00    +0.000 S 
ATOM     17  C   UNL     1      -0.578   6.813   4.908  0.00  0.00    +0.000 A 
ATOM     18  N   UNL     1      -1.397   7.571   4.130  0.00  0.00    +0.000 NA
ATOM     19  C   UNL     1      -1.618   7.086   2.954  0.00  0.00    +0.000 A 
ATOM     20  N   UNL     1      -1.092   5.912   2.483  0.00  0.00    +0.000 N 
ATOM     21  C   UNL     1      -0.239   5.129   3.220  0.00  0.00    +0.000 A 
ATOM     22  O   UNL     1       0.246   4.105   2.756  0.00  0.00    +0.000 OA
ATOM     23  C   UNL     1       0.032   5.623   4.560  0.00  0.00    +0.000 A 
ATOM     24  H   UNL     1      -1.298   5.588   1.549  0.00  0.00    +0.000 HD
ENDBRANCH  11  14
ENDBRANCH   9  10
ENDBRANCH   3   9
BRANCH   6  25
ATOM     25  O   UNL     1       4.732   1.412  -0.962  0.00  0.00    +0.000 OA
BRANCH  25  26
ATOM     26  C   UNL     1       5.575   2.463  -1.469  0.00  0.00    +0.000 C 
BRANCH  26  27
ATOM     27  C   UNL     1       5.540   2.582  -2.977  0.00  0.00    +0.000 A 
ATOM     28  C   UNL     1       4.409   2.215  -3.693  0.00  0.00    +0.000 A 
ATOM     29  C   UNL     1       4.395   2.446  -5.059  0.00  0.00    +0.000 A 
ATOM     30 CL   UNL     1       3.009   2.005  -5.979  0.00  0.00    +0.000 Cl
ATOM     31  C   UNL     1       5.477   3.042  -5.689  0.00  0.00    +0.000 A 
ATOM     32  C   UNL     1       6.557   3.394  -4.904  0.00  0.00    +0.000 A 
ATOM     33  N   UNL     1       6.609   3.185  -3.571  0.00  0.00    +0.000 NA
ENDBRANCH  26  27
ENDBRANCH  25  26
ENDBRANCH   6  25
TORSDOF 7
