REMARK  Name = 
REMARK  10 active torsions:
REMARK  status: ('A' for Active; 'I' for Inactive)
REMARK    1  A    between atoms: N_1  and  C_2
REMARK    2  A    between atoms: C_2  and  C_3
REMARK    3  A    between atoms: C_3  and  N_4
REMARK    4  A    between atoms: N_4  and  C_5
REMARK    5  A    between atoms: C_5  and  C_6
REMARK    6  A    between atoms: C_9  and  C_10
REMARK    7  A    between atoms: C_10  and  O_11
REMARK    8  A    between atoms: O_11  and  C_12
REMARK    9  A    between atoms: C_15  and  C_16
REMARK   10  A    between atoms: C_16  and  O_18
REMARK                            x       y       z     vdW  Elec       q    Type
REMARK                         _______ _______ _______ _____ _____    ______ ____
ROOT
ATOM      1  C   UNL     1       6.443   2.662   0.660  0.00  0.00    +0.000 A 
ATOM      2  C   UNL     1       7.125   3.884   0.756  0.00  0.00    +0.000 A 
ATOM      3  C   UNL     1       8.519   3.917   0.836  0.00  0.00    +0.000 A 
ATOM      4  C   UNL     1       9.259   2.727   0.824  0.00  0.00    +0.000 A 
ATOM      5  C   UNL     1       8.577   1.506   0.769  0.00  0.00    +0.000 A 
ATOM      6  C   UNL     1       7.184   1.474   0.680  0.00  0.00    +0.000 A 
ENDROOT
BRANCH   1   7
ATOM      7  C   UNL     1       4.933   2.617   0.620  0.00  0.00    +0.000 C 
BRANCH   7   8
ATOM      8  N   UNL     1       4.377   3.354  -0.520  0.00  0.00    +0.000 NA
ATOM      9  H   UNL     1       4.630   4.338  -0.398  0.00  0.00    +0.000 HD
BRANCH   8  10
ATOM     10  C   UNL     1       2.906   3.308  -0.522  0.00  0.00    +0.000 C 
BRANCH  10  11
ATOM     11  C   UNL     1       2.254   4.055   0.661  0.00  0.00    +0.000 C 
BRANCH  11  12
ATOM     12  N   UNL     1       2.790   5.412   0.812  0.00  0.00    +0.000 NA
ATOM     13  H   UNL     1       2.351   5.855   1.619  0.00  0.00    +0.000 HD
ATOM     14  H   UNL     1       2.514   5.968   0.002  0.00  0.00    +0.000 HD
ENDBRANCH  11  12
ENDBRANCH  10  11
ENDBRANCH   8  10
ENDBRANCH   7   8
ENDBRANCH   1   7
BRANCH   4  15
ATOM     15  C   UNL     1      10.764   2.763   0.872  0.00  0.00    +0.000 C 
BRANCH  15  16
ATOM     16  O   UNL     1      11.198   2.763   2.229  0.00  0.00    +0.000 OA
BRANCH  16  17
ATOM     17  C   UNL     1      12.550   2.807   2.438  0.00  0.00    +0.000 A 
ATOM     18  C   UNL     1      13.533   2.808   1.446  0.00  0.00    +0.000 A 
ATOM     19  C   UNL     1      14.889   2.868   1.790  0.00  0.00    +0.000 A 
ATOM     20  C   UNL     1      15.271   2.913   3.137  0.00  0.00    +0.000 A 
ATOM     21  C   UNL     1      14.288   2.923   4.133  0.00  0.00    +0.000 A 
ATOM     22  C   UNL     1      12.937   2.868   3.780  0.00  0.00    +0.000 A 
BRANCH  20  23
ATOM     23  C   UNL     1      16.693   3.004   3.550  0.00  0.00    +0.000 C 
ATOM     24  O   UNL     1      17.053   3.580   4.562  0.00  0.00    +0.000 OA
BRANCH  23  25
ATOM     25  O   UNL     1      17.546   2.358   2.726  0.00  0.00    +0.000 OA
ATOM     26  H   UNL     1      17.126   1.777   2.067  0.00  0.00    +0.000 HD
ENDBRANCH  23  25
ENDBRANCH  20  23
ENDBRANCH  16  17
ENDBRANCH  15  16
ENDBRANCH   4  15
TORSDOF 10
