REMARK  Name = 
REMARK  5 active torsions:
REMARK  status: ('A' for Active; 'I' for Inactive)
REMARK    1  A    between atoms: C_1  and  N_2
REMARK    2  A    between atoms: C_3  and  C_5
REMARK    3  A    between atoms: C_8  and  O_9
REMARK    4  A    between atoms: O_9  and  C_10
REMARK    5  A    between atoms: C_10  and  C_11
REMARK                            x       y       z     vdW  Elec       q    Type
REMARK                         _______ _______ _______ _____ _____    ______ ____
ROOT
ATOM      1  C   UNL     1       4.620   1.120   0.287  0.00  0.00    +0.000 A 
ATOM      2  C   UNL     1       5.333   0.504  -0.747  0.00  0.00    +0.000 A 
ATOM      3  C   UNL     1       6.730   0.531  -0.725  0.00  0.00    +0.000 A 
ATOM      4  C   UNL     1       7.362   1.150   0.344  0.00  0.00    +0.000 A 
ATOM      5  N   UNL     1       6.699   1.763   1.348  0.00  0.00    +0.000 NA
ATOM      6  C   UNL     1       5.346   1.749   1.288  0.00  0.00    +0.000 A 
ENDROOT
BRANCH   1   9
ATOM      7  C   UNL     1       1.037   0.029  -0.181  0.00  0.00    +0.000 C 
ATOM      8  N   UNL     1       2.477   0.097  -0.221  0.00  0.00    +0.000 N 
ATOM      9  C   UNL     1       3.144   1.159   0.352  0.00  0.00    +0.000 C 
ATOM     10  O   UNL     1       2.581   2.087   0.923  0.00  0.00    +0.000 OA
ATOM     11  H   UNL     1       2.987  -0.723  -0.517  0.00  0.00    +0.000 HD
ENDBRANCH   1   9
BRANCH   4  12
ATOM     12  O   UNL     1       8.741   1.160   0.344  0.00  0.00    +0.000 OA
BRANCH  12  13
ATOM     13  C   UNL     1       9.265   1.319   1.665  0.00  0.00    +0.000 C 
BRANCH  13  14
ATOM     14  C   UNL     1      10.770   1.426   1.597  0.00  0.00    +0.000 A 
ATOM     15  C   UNL     1      11.387   2.684   1.530  0.00  0.00    +0.000 A 
ATOM     16  C   UNL     1      12.778   2.789   1.483  0.00  0.00    +0.000 A 
ATOM     17  C   UNL     1      13.565   1.639   1.496  0.00  0.00    +0.000 A 
ATOM     18  C   UNL     1      12.962   0.384   1.551  0.00  0.00    +0.000 A 
ATOM     19  C   UNL     1      11.570   0.276   1.598  0.00  0.00    +0.000 A 
ENDBRANCH  13  14
ENDBRANCH  12  13
ENDBRANCH   4  12
TORSDOF 4
