REMARK  Name = 
REMARK  5 active torsions:
REMARK  status: ('A' for Active; 'I' for Inactive)
REMARK    1  A    between atoms: C_2  and  C_4
REMARK    2  A    between atoms: C_7  and  O_8
REMARK    3  A    between atoms: O_8  and  C_9
REMARK    4  A    between atoms: C_9  and  C_10
REMARK    5  A    between atoms: C_14  and  C_15
REMARK                            x       y       z     vdW  Elec       q    Type
REMARK                         _______ _______ _______ _____ _____    ______ ____
ROOT
ATOM      1  C   UNL     1       4.983  -4.289  -4.003  0.00  0.00    +0.000 C 
ENDROOT
BRANCH   1   2
ATOM      2  C   UNL     1       5.884  -5.408  -4.468  0.00  0.00    +0.000 A 
ATOM      3  C   UNL     1       5.479  -6.737  -4.344  0.00  0.00    +0.000 A 
ATOM      4  C   UNL     1       6.309  -7.729  -4.836  0.00  0.00    +0.000 A 
ATOM      5  N   UNL     1       7.496  -7.489  -5.435  0.00  0.00    +0.000 NA
ATOM      6  C   UNL     1       7.895  -6.199  -5.555  0.00  0.00    +0.000 A 
ATOM      7  C   UNL     1       7.102  -5.144  -5.102  0.00  0.00    +0.000 A 
BRANCH   6   8
ATOM      8  C   UNL     1       9.201  -5.982  -6.191  0.00  0.00    +0.000 A 
ATOM      9  C   UNL     1       9.691  -6.853  -7.170  0.00  0.00    +0.000 A 
ATOM     10  N   UNL     1      10.876  -6.708  -7.822  0.00  0.00    +0.000 NA
ATOM     11  C   UNL     1      11.628  -5.642  -7.470  0.00  0.00    +0.000 A 
ATOM     12  C   UNL     1      11.248  -4.731  -6.504  0.00  0.00    +0.000 A 
ATOM     13  F   UNL     1      12.035  -3.695  -6.191  0.00  0.00    +0.000 F 
ATOM     14  C   UNL     1      10.031  -4.900  -5.858  0.00  0.00    +0.000 A 
ENDBRANCH   6   8
ENDBRANCH   1   2
BRANCH   1  15
ATOM     15  O   UNL     1       5.761  -3.161  -3.587  0.00  0.00    +0.000 OA
BRANCH  15  19
ATOM     16  C   UNL     1       3.445   0.026  -2.400  0.00  0.00    +0.000 A 
ATOM     17  C   UNL     1       4.836   0.148  -2.400  0.00  0.00    +0.000 A 
ATOM     18  C   UNL     1       5.613  -0.941  -2.801  0.00  0.00    +0.000 A 
ATOM     19  C   UNL     1       4.967  -2.106  -3.188  0.00  0.00    +0.000 A 
ATOM     20  N   UNL     1       3.625  -2.254  -3.189  0.00  0.00    +0.000 NA
ATOM     21  C   UNL     1       2.894  -1.188  -2.785  0.00  0.00    +0.000 A 
BRANCH  16  23
ATOM     22  N   UNL     1       2.960   2.394  -2.175  0.00  0.00    +0.000 N 
ATOM     23  C   UNL     1       2.528   1.111  -2.000  0.00  0.00    +0.000 C 
ATOM     24  O   UNL     1       1.407   0.870  -1.572  0.00  0.00    +0.000 OA
ATOM     25  H   UNL     1       2.271   3.119  -2.014  0.00  0.00    +0.000 HD
ATOM     26  H   UNL     1       3.752   2.627  -2.757  0.00  0.00    +0.000 HD
ENDBRANCH  16  23
ENDBRANCH  15  19
ENDBRANCH   1  15
TORSDOF 5
