REMARK  Name = 
REMARK  8 active torsions:
REMARK  status: ('A' for Active; 'I' for Inactive)
REMARK    1  A    between atoms: C_1  and  C_2
REMARK    2  A    between atoms: C_5  and  C_6
REMARK    3  A    between atoms: C_6  and  O_7
REMARK    4  A    between atoms: O_7  and  C_8
REMARK    5  A    between atoms: C_8  and  C_9
REMARK    6  A    between atoms: C_12  and  C_13
REMARK    7  A    between atoms: C_13  and  N_14
REMARK    8  A    between atoms: C_15  and  C_17
REMARK                            x       y       z     vdW  Elec       q    Type
REMARK                         _______ _______ _______ _____ _____    ______ ____
ROOT
ATOM      1  C   UNL     1      -9.808   1.277   0.269  0.00  0.00    +0.000 C 
ENDROOT
BRANCH   1   5
ATOM      2  C   UNL     1      -6.086  -0.942   0.085  0.00  0.00    +0.000 A 
ATOM      3  C   UNL     1      -7.312  -1.612   0.210  0.00  0.00    +0.000 A 
ATOM      4  C   UNL     1      -8.515  -0.899   0.278  0.00  0.00    +0.000 A 
ATOM      5  C   UNL     1      -8.518   0.500   0.209  0.00  0.00    +0.000 A 
ATOM      6  C   UNL     1      -7.291   1.171   0.112  0.00  0.00    +0.000 A 
ATOM      7  C   UNL     1      -6.089   0.458   0.044  0.00  0.00    +0.000 A 
BRANCH   2   8
ATOM      8  C   UNL     1      -4.795  -1.718   0.008  0.00  0.00    +0.000 C 
BRANCH   8   9
ATOM      9  O   UNL     1      -4.850  -2.582  -1.123  0.00  0.00    +0.000 OA
BRANCH   9  10
ATOM     10  C   UNL     1      -3.673  -3.376  -1.253  0.00  0.00    +0.000 C 
BRANCH  10  15
ATOM     11  C   UNL     1      -2.407  -6.711  -4.532  0.00  0.00    +0.000 C 
ATOM     12  C   UNL     1      -3.297  -5.706  -3.918  0.00  0.00    +0.000 A 
ATOM     13  N   UNL     1      -4.491  -5.317  -4.315  0.00  0.00    +0.000 NA
ATOM     14  C   UNL     1      -4.849  -4.372  -3.389  0.00  0.00    +0.000 A 
ATOM     15  C   UNL     1      -3.852  -4.219  -2.454  0.00  0.00    +0.000 A 
ATOM     16  O   UNL     1      -2.838  -5.081  -2.788  0.00  0.00    +0.000 OA
ENDBRANCH  10  15
ENDBRANCH   9  10
ENDBRANCH   8   9
ENDBRANCH   2   8
ENDBRANCH   1   5
BRANCH   1  17
ATOM     17  N   UNL     1     -10.154   1.613   1.627  0.00  0.00    +0.000 N 
ATOM     18  C   UNL     1     -11.322   2.266   1.925  0.00  0.00    +0.000 C 
ATOM     19  O   UNL     1     -12.145   2.557   1.062  0.00  0.00    +0.000 OA
ATOM     20  H   UNL     1      -9.402   1.596   2.309  0.00  0.00    +0.000 HD
BRANCH  18  21
ATOM     21  C   UNL     1     -11.571   2.547   3.346  0.00  0.00    +0.000 A 
ATOM     22  C   UNL     1     -12.874   2.727   3.794  0.00  0.00    +0.000 A 
ATOM     23  S   UNL     1     -12.988   2.991   5.475  0.00  0.00    +0.000 S 
ATOM     24  C   UNL     1     -11.297   2.930   5.655  0.00  0.00    +0.000 A 
ATOM     25  N   UNL     1     -10.715   3.113   6.871  0.00  0.00    +0.000 NA
ATOM     26  C   UNL     1      -9.425   3.072   6.857  0.00  0.00    +0.000 A 
ATOM     27  N   UNL     1      -8.663   2.858   5.737  0.00  0.00    +0.000 N 
ATOM     28  C   UNL     1      -9.208   2.636   4.496  0.00  0.00    +0.000 A 
ATOM     29  O   UNL     1      -8.496   2.400   3.523  0.00  0.00    +0.000 OA
ATOM     30  C   UNL     1     -10.655   2.687   4.453  0.00  0.00    +0.000 A 
ATOM     31  H   UNL     1      -7.656   2.827   5.795  0.00  0.00    +0.000 HD
ENDBRANCH  18  21
ENDBRANCH   1  17
TORSDOF 7
