REMARK  Name = 
REMARK  6 active torsions:
REMARK  status: ('A' for Active; 'I' for Inactive)
REMARK    1  A    between atoms: N_1  and  C_2
REMARK    2  A    between atoms: C_2  and  C_3
REMARK    3  A    between atoms: C_3  and  C_4
REMARK    4  A    between atoms: C_7  and  C_8
REMARK    5  A    between atoms: C_8  and  N_9
REMARK    6  A    between atoms: C_14  and  C_15
REMARK                            x       y       z     vdW  Elec       q    Type
REMARK                         _______ _______ _______ _____ _____    ______ ____
ROOT
ATOM      1  N   UNL     1       9.266  -1.804   1.809  0.00  0.00    +0.000 N 
ATOM      2  C   UNL     1       9.467  -3.034   2.391  0.00  0.00    +0.000 A 
ATOM      3  C   UNL     1      10.163  -2.844   3.563  0.00  0.00    +0.000 A 
ATOM      4  C   UNL     1      10.408  -1.453   3.697  0.00  0.00    +0.000 A 
ATOM      5  C   UNL     1      11.088  -0.676   4.648  0.00  0.00    +0.000 A 
ATOM      6  C   UNL     1      11.142   0.703   4.440  0.00  0.00    +0.000 A 
ATOM      7  N   UNL     1      10.541   1.305   3.373  0.00  0.00    +0.000 NA
ATOM      8  C   UNL     1       9.878   0.564   2.455  0.00  0.00    +0.000 A 
ATOM      9  C   UNL     1       9.822  -0.816   2.602  0.00  0.00    +0.000 A 
ENDROOT
BRANCH   6  10
ATOM     10  C   UNL     1      11.919   1.574   5.421  0.00  0.00    +0.000 C 
ATOM     11  F   UNL     1      12.488   0.864   6.443  0.00  0.00    +0.000 F 
ATOM     12  F   UNL     1      12.952   2.247   4.835  0.00  0.00    +0.000 F 
ATOM     13  F   UNL     1      11.148   2.522   6.028  0.00  0.00    +0.000 F 
ENDBRANCH   6  10
BRANCH   1  14
ATOM     14  C   UNL     1       8.686  -1.613   0.481  0.00  0.00    +0.000 C 
BRANCH  14  18
ATOM     15  C   UNL     1       4.367  -1.320   0.632  0.00  0.00    +0.000 A 
ATOM     16  C   UNL     1       5.159  -0.168   0.695  0.00  0.00    +0.000 A 
ATOM     17  C   UNL     1       6.553  -0.260   0.641  0.00  0.00    +0.000 A 
ATOM     18  C   UNL     1       7.183  -1.505   0.518  0.00  0.00    +0.000 A 
ATOM     19  C   UNL     1       6.385  -2.655   0.431  0.00  0.00    +0.000 A 
ATOM     20  C   UNL     1       4.992  -2.563   0.482  0.00  0.00    +0.000 A 
BRANCH  15  21
ATOM     21  C   UNL     1       2.863  -1.224   0.726  0.00  0.00    +0.000 C 
BRANCH  21  22
ATOM     22  C   UNL     1       2.202  -1.046  -0.643  0.00  0.00    +0.000 C 
BRANCH  22  23
ATOM     23  N   UNL     1       0.748  -0.946  -0.513  0.00  0.00    +0.000 NA
ATOM     24  H   UNL     1       0.337  -0.795  -1.433  0.00  0.00    +0.000 HD
ATOM     25  H   UNL     1       0.510  -0.125   0.043  0.00  0.00    +0.000 HD
ENDBRANCH  22  23
ENDBRANCH  21  22
ENDBRANCH  15  21
ENDBRANCH  14  18
ENDBRANCH   1  14
TORSDOF 6
