REMARK  Name = 
REMARK  5 active torsions:
REMARK  status: ('A' for Active; 'I' for Inactive)
REMARK    1  A    between atoms: C_2  and  C_3
REMARK    2  A    between atoms: N_7  and  C_8
REMARK    3  A    between atoms: C_8  and  C_9
REMARK    4  A    between atoms: C_12  and  O_13
REMARK    5  A    between atoms: O_13  and  C_14
REMARK                            x       y       z     vdW  Elec       q    Type
REMARK                         _______ _______ _______ _____ _____    ______ ____
ROOT
ATOM      1  C   UNL     1       4.318   1.218   0.055  0.00  0.00    +0.000 C 
ATOM      2  C   UNL     1       4.580   2.622   0.597  0.00  0.00    +0.000 C 
ATOM      3  C   UNL     1       4.072   2.458  -0.796  0.00  0.00    +0.000 C 
ENDROOT
BRANCH   1   8
ATOM      4  C   UNL     1       0.316   1.098   3.265  0.00  0.00    +0.000 A 
ATOM      5  C   UNL     1       1.078   2.104   2.744  0.00  0.00    +0.000 A 
ATOM      6  N   UNL     1       2.012   1.911   1.792  0.00  0.00    +0.000 NA
ATOM      7  C   UNL     1       2.194   0.660   1.326  0.00  0.00    +0.000 A 
ATOM      8  N   UNL     1       3.151   0.392   0.361  0.00  0.00    +0.000 N 
ATOM      9  N   UNL     1       1.460  -0.385   1.756  0.00  0.00    +0.000 NA
ATOM     10  C   UNL     1       0.548  -0.144   2.727  0.00  0.00    +0.000 A 
ATOM     11  H   UNL     1       3.064  -0.552   0.009  0.00  0.00    +0.000 HD
BRANCH   4  13
ATOM     12  N   UNL     1      -1.409   1.528   5.129  0.00  0.00    +0.000 NA
ATOM     13  C   UNL     1      -0.635   1.330   4.287  0.00  0.00    +0.000 C 
ENDBRANCH   4  13
ENDBRANCH   1   8
BRANCH   1  14
ATOM     14  C   UNL     1       5.614   0.432  -0.153  0.00  0.00    +0.000 A 
ATOM     15  C   UNL     1       6.120   0.176  -1.437  0.00  0.00    +0.000 A 
ATOM     16  C   UNL     1       7.453  -0.197  -1.627  0.00  0.00    +0.000 A 
ATOM     17  C   UNL     1       8.304  -0.314  -0.533  0.00  0.00    +0.000 A 
ATOM     18  C   UNL     1       7.770  -0.256   0.753  0.00  0.00    +0.000 A 
ATOM     19  C   UNL     1       6.434   0.106   0.941  0.00  0.00    +0.000 A 
BRANCH  17  20
ATOM     20  O   UNL     1       9.649  -0.510  -0.608  0.00  0.00    +0.000 OA
BRANCH  20  21
ATOM     21  C   UNL     1      10.366   0.171  -1.634  0.00  0.00    +0.000 C 
ATOM     22  F   UNL     1       9.622   1.021  -2.375  0.00  0.00    +0.000 F 
ATOM     23  F   UNL     1      11.364   0.889  -1.069  0.00  0.00    +0.000 F 
ATOM     24  F   UNL     1      10.923  -0.742  -2.460  0.00  0.00    +0.000 F 
ENDBRANCH  20  21
ENDBRANCH  17  20
ENDBRANCH   1  14
TORSDOF 5
