REMARK  Name = 
REMARK  6 active torsions:
REMARK  status: ('A' for Active; 'I' for Inactive)
REMARK    1  A    between atoms: C_2  and  C_18
REMARK    2  A    between atoms: N_3  and  C_4
REMARK    3  A    between atoms: C_4  and  C_5
REMARK    4  A    between atoms: C_8  and  C_9
REMARK    5  A    between atoms: C_9  and  N_10
REMARK    6  A    between atoms: N_10  and  C_11
REMARK                            x       y       z     vdW  Elec       q    Type
REMARK                         _______ _______ _______ _____ _____    ______ ____
ROOT
ATOM      1  O   UNL     1      -0.099  -0.060  -0.913  0.00  0.00    +0.000 OA
ATOM      2  C   UNL     1      -0.068   0.002  -2.131  0.00  0.00    +0.000 C 
ATOM      3  N   UNL     1       0.952   0.590  -2.852  0.00  0.00    +0.000 N 
ATOM      4  H   UNL     1       1.033   0.353  -3.829  0.00  0.00    +0.000 HD
ENDROOT
BRANCH   2   5
ATOM      5  C   UNL     1      -0.970  -0.731  -3.006  0.00  0.00    +0.000 A 
ATOM      6  C   UNL     1      -1.406  -2.014  -2.728  0.00  0.00    +0.000 A 
ATOM      7  S   UNL     1      -1.908  -2.826  -4.157  0.00  0.00    +0.000 S 
ATOM      8  C   UNL     1      -1.704  -1.417  -5.097  0.00  0.00    +0.000 A 
ATOM      9  N   UNL     1      -1.812  -1.416  -6.452  0.00  0.00    +0.000 NA
ATOM     10  C   UNL     1      -1.696  -0.245  -6.990  0.00  0.00    +0.000 A 
ATOM     11  N   UNL     1      -1.534   0.930  -6.297  0.00  0.00    +0.000 N 
ATOM     12  C   UNL     1      -1.428   0.982  -4.924  0.00  0.00    +0.000 A 
ATOM     13  O   UNL     1      -1.372   2.040  -4.315  0.00  0.00    +0.000 OA
ATOM     14  C   UNL     1      -1.418  -0.326  -4.305  0.00  0.00    +0.000 A 
ATOM     15  H   UNL     1      -1.551   1.821  -6.771  0.00  0.00    +0.000 HD
ENDBRANCH   2   5
BRANCH   3  16
ATOM     16  C   UNL     1       2.182   1.014  -2.221  0.00  0.00    +0.000 C 
BRANCH  16  17
ATOM     17  C   UNL     1       3.131   1.653  -3.215  0.00  0.00    +0.000 A 
ATOM     18  N   UNL     1       3.081   2.988  -3.392  0.00  0.00    +0.000 NA
ATOM     19  C   UNL     1       3.935   3.515  -4.298  0.00  0.00    +0.000 A 
ATOM     20  C   UNL     1       4.822   2.767  -5.043  0.00  0.00    +0.000 A 
ATOM     21  C   UNL     1       4.758   1.408  -4.813  0.00  0.00    +0.000 A 
ATOM     22  N   UNL     1       3.923   0.826  -3.930  0.00  0.00    +0.000 NA
BRANCH  20  23
ATOM     23  C   UNL     1       5.765   3.356  -6.047  0.00  0.00    +0.000 C 
BRANCH  23  24
ATOM     24  N   UNL     1       6.742   4.246  -5.429  0.00  0.00    +0.000 NA
ATOM     25  H   UNL     1       7.242   3.765  -4.678  0.00  0.00    +0.000 HD
BRANCH  24  26
ATOM     26  C   UNL     1       7.715   4.815  -6.385  0.00  0.00    +0.000 C 
ATOM     27  C   UNL     1       8.594   3.797  -7.095  0.00  0.00    +0.000 C 
ATOM     28  C   UNL     1       9.602   3.427  -6.028  0.00  0.00    +0.000 C 
ATOM     29  O   UNL     1       9.798   4.605  -5.233  0.00  0.00    +0.000 OA
ATOM     30  C   UNL     1       8.807   5.579  -5.621  0.00  0.00    +0.000 C 
ENDBRANCH  24  26
ENDBRANCH  23  24
ENDBRANCH  20  23
ENDBRANCH  16  17
ENDBRANCH   3  16
TORSDOF 6
