REMARK  Name = 
REMARK  8 active torsions:
REMARK  status: ('A' for Active; 'I' for Inactive)
REMARK    1  A    between atoms: C_1  and  N_2
REMARK    2  A    between atoms: N_5  and  C_6
REMARK    3  A    between atoms: C_10  and  C_11
REMARK    4  A    between atoms: C_11  and  C_12
REMARK    5  A    between atoms: C_11  and  C_13
REMARK    6  A    between atoms: C_11  and  C_14
REMARK    7  A    between atoms: C_14  and  N_15
REMARK    8  A    between atoms: C_19  and  C_20
REMARK                            x       y       z     vdW  Elec       q    Type
REMARK                         _______ _______ _______ _____ _____    ______ ____
ROOT
ATOM      1  C   UNL     1      -6.388   1.762   0.499  0.00  0.00    +0.000 C 
ATOM      2  C   UNL     1      -7.693   0.962   0.267  0.00  0.00    +0.000 C 
ATOM      3  C   UNL     1      -6.664   2.845   1.570  0.00  0.00    +0.000 C 
ENDROOT
BRANCH   1   8
ATOM      4  C   UNL     1      -2.999  -0.105   0.830  0.00  0.00    +0.000 A 
ATOM      5  C   UNL     1      -3.202  -0.762   2.047  0.00  0.00    +0.000 A 
ATOM      6  C   UNL     1      -4.421  -0.682   2.725  0.00  0.00    +0.000 A 
ATOM      7  C   UNL     1      -5.454   0.105   2.217  0.00  0.00    +0.000 A 
ATOM      8  C   UNL     1      -5.299   0.797   1.007  0.00  0.00    +0.000 A 
ATOM      9  C   UNL     1      -4.089   0.610   0.313  0.00  0.00    +0.000 A 
BRANCH   4  14
ATOM     10  C   UNL     1       1.659   1.841  -1.466  0.00  0.00    +0.000 C 
ATOM     11  N   UNL     1       0.708   0.818  -1.042  0.00  0.00    +0.000 NA
ATOM     12  C   UNL     1       0.500   0.868   0.422  0.00  0.00    +0.000 C 
ATOM     13  C   UNL     1      -0.511  -0.195   0.925  0.00  0.00    +0.000 C 
ATOM     14  N   UNL     1      -1.778  -0.089   0.187  0.00  0.00    +0.000 N 
ATOM     15  C   UNL     1      -1.635  -0.056  -1.279  0.00  0.00    +0.000 C 
ATOM     16  C   UNL     1      -0.601   1.010  -1.708  0.00  0.00    +0.000 C 
ENDBRANCH   4  14
ENDBRANCH   1   8
BRANCH   1  17
ATOM     17  C   UNL     1      -6.065   2.484  -0.857  0.00  0.00    +0.000 C 
BRANCH  17  18
ATOM     18  N   UNL     1      -4.953   3.438  -0.769  0.00  0.00    +0.000 N 
ATOM     19  C   UNL     1      -4.471   3.983  -1.953  0.00  0.00    +0.000 A 
ATOM     20  C   UNL     1      -5.299   4.437  -2.985  0.00  0.00    +0.000 A 
ATOM     21  N   UNL     1      -4.854   5.039  -4.117  0.00  0.00    +0.000 NA
ATOM     22  C   UNL     1      -3.505   5.192  -4.176  0.00  0.00    +0.000 A 
ATOM     23  C   UNL     1      -2.664   4.744  -3.170  0.00  0.00    +0.000 A 
ATOM     24  N   UNL     1      -3.131   4.126  -2.048  0.00  0.00    +0.000 NA
ATOM     25  H   UNL     1      -4.146   3.131  -0.224  0.00  0.00    +0.000 HD
BRANCH  22  26
ATOM     26  C   UNL     1      -2.955   5.898  -5.366  0.00  0.00    +0.000 C 
ATOM     27  N   UNL     1      -3.886   6.312  -6.284  0.00  0.00    +0.000 N 
ATOM     28  O   UNL     1      -1.759   6.101  -5.513  0.00  0.00    +0.000 OA
ATOM     29  H   UNL     1      -4.872   6.151  -6.107  0.00  0.00    +0.000 HD
ATOM     30  H   UNL     1      -3.593   6.834  -7.097  0.00  0.00    +0.000 HD
ENDBRANCH  22  26
ENDBRANCH  17  18
ENDBRANCH   1  17
TORSDOF 5
