REMARK  Name = 
REMARK  4 active torsions:
REMARK  status: ('A' for Active; 'I' for Inactive)
REMARK    1  A    between atoms: C_2  and  C_4
REMARK    2  A    between atoms: N_8  and  C_9
REMARK    3  A    between atoms: C_9  and  C_10
REMARK    4  A    between atoms: C_14  and  C_15
REMARK                            x       y       z     vdW  Elec       q    Type
REMARK                         _______ _______ _______ _____ _____    ______ ____
ROOT
ATOM      1  C   UNL     1       5.116  -2.648  -5.345  0.00  0.00    +0.000 C 
ATOM      2  C   UNL     1       5.258  -1.508  -6.346  0.00  0.00    +0.000 C 
ATOM      3  C   UNL     1       3.926  -2.147  -6.140  0.00  0.00    +0.000 C 
ENDROOT
BRANCH   1   8
ATOM      4  C   UNL     1       3.259  -3.503  -0.572  0.00  0.00    +0.000 A 
ATOM      5  C   UNL     1       2.543  -3.271  -1.742  0.00  0.00    +0.000 A 
ATOM      6  C   UNL     1       3.231  -2.889  -2.896  0.00  0.00    +0.000 A 
ATOM      7  C   UNL     1       4.611  -2.736  -2.858  0.00  0.00    +0.000 A 
ATOM      8  N   UNL     1       5.360  -2.264  -3.941  0.00  0.00    +0.000 N 
ATOM      9  N   UNL     1       5.313  -2.943  -1.722  0.00  0.00    +0.000 NA
ATOM     10  C   UNL     1       4.631  -3.318  -0.610  0.00  0.00    +0.000 A 
ATOM     11  H   UNL     1       6.331  -2.336  -3.637  0.00  0.00    +0.000 HD
BRANCH   4  13
ATOM     12  N   UNL     1       1.418  -4.542   0.628  0.00  0.00    +0.000 N 
ATOM     13  C   UNL     1       2.624  -3.898   0.701  0.00  0.00    +0.000 C 
ATOM     14  O   UNL     1       3.160  -3.687   1.780  0.00  0.00    +0.000 OA
ATOM     15  H   UNL     1       1.043  -4.894   1.500  0.00  0.00    +0.000 HD
ATOM     16  H   UNL     1       1.064  -4.941  -0.228  0.00  0.00    +0.000 HD
ENDBRANCH   4  13
ENDBRANCH   1   8
BRANCH   1  17
ATOM     17  C   UNL     1       5.703  -4.011  -5.703  0.00  0.00    +0.000 A 
ATOM     18  C   UNL     1       6.999  -4.148  -6.227  0.00  0.00    +0.000 A 
ATOM     19  C   UNL     1       7.564  -5.404  -6.446  0.00  0.00    +0.000 A 
ATOM     20  C   UNL     1       6.846  -6.557  -6.124  0.00  0.00    +0.000 A 
ATOM     21  C   UNL     1       5.544  -6.484  -5.603  0.00  0.00    +0.000 A 
ATOM     22  C   UNL     1       4.993  -5.197  -5.430  0.00  0.00    +0.000 A 
BRANCH  21  23
ATOM     23  C   UNL     1       4.801  -7.695  -5.198  0.00  0.00    +0.000 A 
ATOM     24  N   UNL     1       5.467  -8.868  -5.169  0.00  0.00    +0.000 NA
ATOM     25  C   UNL     1       4.788  -9.937  -4.722  0.00  0.00    +0.000 A 
ATOM     26  C   UNL     1       3.477  -9.889  -4.313  0.00  0.00    +0.000 A 
ATOM     27  C   UNL     1       2.879  -8.655  -4.392  0.00  0.00    +0.000 A 
ATOM     28  N   UNL     1       3.511  -7.549  -4.824  0.00  0.00    +0.000 NA
ENDBRANCH  21  23
ENDBRANCH   1  17
TORSDOF 4
