REMARK  Name = 
REMARK  7 active torsions:
REMARK  status: ('A' for Active; 'I' for Inactive)
REMARK    1  A    between atoms: C_1  and  C_2
REMARK    2  A    between atoms: N_9  and  C_10
REMARK    3  A    between atoms: C_10  and  C_11
REMARK    4  A    between atoms: C_14  and  C_15
REMARK    5  A    between atoms: C_15  and  N_16
REMARK    6  A    between atoms: C_17  and  C_19
REMARK    7  A    between atoms: N_25  and  C_26
REMARK                            x       y       z     vdW  Elec       q    Type
REMARK                         _______ _______ _______ _____ _____    ______ ____
ROOT
ATOM      1  C   UNL     1      -0.495  -4.158  -0.032  0.00  0.00    +0.000 A 
ATOM      2  C   UNL     1      -1.146  -5.398   0.011  0.00  0.00    +0.000 A 
ATOM      3  C   UNL     1      -2.543  -5.471   0.066  0.00  0.00    +0.000 A 
ATOM      4  C   UNL     1      -3.320  -4.306   0.062  0.00  0.00    +0.000 A 
ATOM      5  C   UNL     1      -2.669  -3.066   0.051  0.00  0.00    +0.000 A 
ATOM      6  C   UNL     1      -1.273  -2.992  -0.004  0.00  0.00    +0.000 A 
ENDROOT
BRANCH   1   7
ATOM      7  C   UNL     1       1.008  -4.080  -0.101  0.00  0.00    +0.000 C 
BRANCH   7  16
ATOM      8  C   UNL     1       2.192  -6.069  -3.909  0.00  0.00    +0.000 C 
ATOM      9  C   UNL     1       2.914  -4.779  -4.067  0.00  0.00    +0.000 A 
ATOM     10  C   UNL     1       3.517  -4.278  -5.210  0.00  0.00    +0.000 A 
ATOM     11  C   UNL     1       4.204  -3.097  -4.864  0.00  0.00    +0.000 A 
ATOM     12  C   UNL     1       4.042  -2.924  -3.511  0.00  0.00    +0.000 A 
ATOM     13  N   UNL     1       3.218  -3.918  -3.010  0.00  0.00    +0.000 N 
ATOM     14  C   UNL     1       2.870  -4.021  -1.645  0.00  0.00    +0.000 C 
ATOM     15  O   UNL     1       3.714  -3.818  -0.784  0.00  0.00    +0.000 OA
ATOM     16  N   UNL     1       1.517  -4.199  -1.452  0.00  0.00    +0.000 N 
ATOM     17  H   UNL     1       0.897  -3.956  -2.216  0.00  0.00    +0.000 HD
ENDBRANCH   7  16
ENDBRANCH   1   7
BRANCH   4  18
ATOM     18  C   UNL     1      -4.825  -4.373   0.090  0.00  0.00    +0.000 C 
BRANCH  18  19
ATOM     19  N   UNL     1      -5.343  -4.316   1.436  0.00  0.00    +0.000 N 
ATOM     20  C   UNL     1      -6.688  -4.297   1.679  0.00  0.00    +0.000 C 
ATOM     21  O   UNL     1      -7.505  -4.295   0.753  0.00  0.00    +0.000 OA
ATOM     22  H   UNL     1      -4.678  -4.300   2.201  0.00  0.00    +0.000 HD
BRANCH  20  23
ATOM     23  C   UNL     1      -7.138  -4.314   3.079  0.00  0.00    +0.000 A 
ATOM     24  C   UNL     1      -8.500  -4.255   3.349  0.00  0.00    +0.000 A 
ATOM     25  S   UNL     1      -8.885  -4.341   5.003  0.00  0.00    +0.000 S 
ATOM     26  C   UNL     1      -7.252  -4.563   5.419  0.00  0.00    +0.000 A 
ATOM     27  N   UNL     1      -6.905  -4.846   6.698  0.00  0.00    +0.000 NA
ATOM     28  C   UNL     1      -5.633  -4.944   6.897  0.00  0.00    +0.000 A 
ATOM     29  N   UNL     1      -4.656  -4.736   5.946  0.00  0.00    +0.000 N 
ATOM     30  C   UNL     1      -3.264  -4.726   6.349  0.00  0.00    +0.000 C 
ATOM     31  C   UNL     1      -4.979  -4.477   4.614  0.00  0.00    +0.000 A 
ATOM     32  O   UNL     1      -4.130  -4.283   3.748  0.00  0.00    +0.000 OA
ATOM     33  C   UNL     1      -6.407  -4.432   4.331  0.00  0.00    +0.000 A 
ENDBRANCH  20  23
ENDBRANCH  18  19
ENDBRANCH   4  18
TORSDOF 5
