REMARK  Name = 
REMARK  8 active torsions:
REMARK  status: ('A' for Active; 'I' for Inactive)
REMARK    1  A    between atoms: C_1  and  O_2
REMARK    2  A    between atoms: O_2  and  C_3
REMARK    3  A    between atoms: C_10  and  C_11
REMARK    4  A    between atoms: N_13  and  C_14
REMARK    5  A    between atoms: C_14  and  C_15
REMARK    6  A    between atoms: C_18  and  C_19
REMARK    7  A    between atoms: C_19  and  C_20
REMARK    8  A    between atoms: C_20  and  N_21
REMARK                            x       y       z     vdW  Elec       q    Type
REMARK                         _______ _______ _______ _____ _____    ______ ____
ROOT
ATOM      1  C   UNL     1       2.863   2.585   2.328  0.00  0.00    +0.000 C 
ENDROOT
BRANCH   1   2
ATOM      2  C   UNL     1       1.651   3.080   1.584  0.00  0.00    +0.000 A 
ATOM      3  C   UNL     1       0.600   2.204   1.294  0.00  0.00    +0.000 A 
ATOM      4  C   UNL     1      -0.496   2.630   0.539  0.00  0.00    +0.000 A 
ATOM      5  C   UNL     1      -0.569   3.939   0.042  0.00  0.00    +0.000 A 
ATOM      6  C   UNL     1       0.474   4.822   0.360  0.00  0.00    +0.000 A 
ATOM      7  C   UNL     1       1.573   4.397   1.117  0.00  0.00    +0.000 A 
BRANCH   5   8
ATOM      8  C   UNL     1      -1.709   4.433  -0.835  0.00  0.00    +0.000 C 
BRANCH   8   9
ATOM      9  C   UNL     1      -2.784   3.387  -1.160  0.00  0.00    +0.000 C 
BRANCH   9  10
ATOM     10  N   UNL     1      -3.834   3.927  -2.030  0.00  0.00    +0.000 N 
ATOM     11  C   UNL     1      -4.819   2.957  -2.330  0.00  0.00    +0.000 A 
ATOM     12  C   UNL     1      -5.883   3.322  -3.151  0.00  0.00    +0.000 A 
ATOM     13  C   UNL     1      -6.875   2.386  -3.445  0.00  0.00    +0.000 A 
ATOM     14  C   UNL     1      -6.784   1.107  -2.914  0.00  0.00    +0.000 A 
ATOM     15  C   UNL     1      -5.703   0.824  -2.103  0.00  0.00    +0.000 A 
ATOM     16  N   UNL     1      -4.734   1.717  -1.803  0.00  0.00    +0.000 NA
ATOM     17  H   UNL     1      -3.464   4.280  -2.910  0.00  0.00    +0.000 HD
ENDBRANCH   9  10
ENDBRANCH   8   9
ENDBRANCH   5   8
ENDBRANCH   1   2
BRANCH   1  20
ATOM     18  C   UNL     1       4.996   1.460   1.876  0.00  0.00    +0.000 C 
ATOM     19  O   UNL     1       5.250   1.427   3.079  0.00  0.00    +0.000 OA
ATOM     20  N   UNL     1       3.837   2.024   1.419  0.00  0.00    +0.000 N 
ATOM     21  H   UNL     1       3.621   2.028   0.430  0.00  0.00    +0.000 HD
BRANCH  18  29
ATOM     22  C   UNL     1       4.956   1.176  -1.565  0.00  0.00    +0.000 A 
ATOM     23  N   UNL     1       5.178   0.893  -2.866  0.00  0.00    +0.000 NA
ATOM     24  C   UNL     1       6.302   0.247  -3.186  0.00  0.00    +0.000 A 
ATOM     25  N   UNL     1       7.257  -0.157  -2.354  0.00  0.00    +0.000 NA
ATOM     26  C   UNL     1       6.990   0.131  -1.069  0.00  0.00    +0.000 A 
ATOM     27  S   UNL     1       8.106  -0.307   0.132  0.00  0.00    +0.000 S 
ATOM     28  C   UNL     1       7.115   0.334   1.353  0.00  0.00    +0.000 A 
ATOM     29  C   UNL     1       5.928   0.892   0.887  0.00  0.00    +0.000 A 
ATOM     30  C   UNL     1       5.864   0.780  -0.569  0.00  0.00    +0.000 A 
BRANCH  22  32
ATOM     31  C   UNL     1       3.311   2.652  -2.309  0.00  0.00    +0.000 C 
ATOM     32  O   UNL     1       3.796   1.847  -1.236  0.00  0.00    +0.000 OA
ENDBRANCH  22  32
ENDBRANCH  18  29
ENDBRANCH   1  20
TORSDOF 7
