REMARK  Name = 
REMARK  7 active torsions:
REMARK  status: ('A' for Active; 'I' for Inactive)
REMARK    1  A    between atoms: C_1  and  O_2
REMARK    2  A    between atoms: O_2  and  C_3
REMARK    3  A    between atoms: C_5  and  N_6
REMARK    4  A    between atoms: N_6  and  C_7
REMARK    5  A    between atoms: C_7  and  C_8
REMARK    6  A    between atoms: C_12  and  N_13
REMARK    7  A    between atoms: C_21  and  C_22
REMARK                            x       y       z     vdW  Elec       q    Type
REMARK                         _______ _______ _______ _____ _____    ______ ____
ROOT
ATOM      1  N   UNL     1       3.250   0.225  -4.718  0.00  0.00    +0.000 N 
ATOM      2  H   UNL     1       3.969   0.228  -5.427  0.00  0.00    +0.000 HD
ENDROOT
BRANCH   1   5
ATOM      3  C   UNL     1       3.214  -0.137  -1.044  0.00  0.00    +0.000 A 
ATOM      4  C   UNL     1       2.775   0.082  -2.345  0.00  0.00    +0.000 A 
ATOM      5  C   UNL     1       3.659  -0.008  -3.422  0.00  0.00    +0.000 A 
ATOM      6  N   UNL     1       4.953  -0.334  -3.233  0.00  0.00    +0.000 NA
ATOM      7  C   UNL     1       5.361  -0.572  -1.946  0.00  0.00    +0.000 A 
ATOM      8  C   UNL     1       4.536  -0.482  -0.836  0.00  0.00    +0.000 A 
BRANCH   7   9
ATOM      9  C   UNL     1       6.796  -0.961  -1.744  0.00  0.00    +0.000 C 
ATOM     10  N   UNL     1       7.554  -1.057  -2.878  0.00  0.00    +0.000 N 
ATOM     11  O   UNL     1       7.272  -1.187  -0.637  0.00  0.00    +0.000 OA
ATOM     12  H   UNL     1       7.130  -0.866  -3.780  0.00  0.00    +0.000 HD
ATOM     13  H   UNL     1       8.522  -1.321  -2.806  0.00  0.00    +0.000 HD
ENDBRANCH   7   9
BRANCH   3  15
ATOM     14  C   UNL     1       1.090   0.374  -0.109  0.00  0.00    +0.000 C 
ATOM     15  O   UNL     1       2.441  -0.039   0.081  0.00  0.00    +0.000 OA
ENDBRANCH   3  15
ENDBRANCH   1   5
BRANCH   1  16
ATOM     16  C   UNL     1       1.888   0.568  -5.056  0.00  0.00    +0.000 C 
BRANCH  16  17
ATOM     17  C   UNL     1       1.664   0.743  -6.535  0.00  0.00    +0.000 A 
ATOM     18  C   UNL     1       1.331  -0.357  -7.332  0.00  0.00    +0.000 A 
ATOM     19  C   UNL     1       0.988  -0.169  -8.667  0.00  0.00    +0.000 A 
ATOM     20  C   UNL     1       0.958   1.119  -9.206  0.00  0.00    +0.000 A 
ATOM     21  C   UNL     1       1.282   2.249  -8.444  0.00  0.00    +0.000 A 
ATOM     22  C   UNL     1       1.671   2.028  -7.112  0.00  0.00    +0.000 A 
BRANCH  21  23
ATOM     23  N   UNL     1       1.178   3.526  -8.964  0.00  0.00    +0.000 N 
ATOM     24  C   UNL     1       0.140   3.884  -9.934  0.00  0.00    +0.000 C 
ATOM     25  C   UNL     1       0.774   4.312 -11.255  0.00  0.00    +0.000 C 
ATOM     26  C   UNL     1       1.834   5.392 -11.038  0.00  0.00    +0.000 C 
ATOM     27  C   UNL     1       2.861   4.953  -9.995  0.00  0.00    +0.000 C 
ATOM     28  C   UNL     1       2.187   4.545  -8.684  0.00  0.00    +0.000 C 
ENDBRANCH  21  23
ENDBRANCH  16  17
ENDBRANCH   1  16
TORSDOF 6
