REMARK  Name = 
REMARK  7 active torsions:
REMARK  status: ('A' for Active; 'I' for Inactive)
REMARK    1  A    between atoms: N_1  and  C_2
REMARK    2  A    between atoms: C_2  and  C_3
REMARK    3  A    between atoms: C_7  and  O_8
REMARK    4  A    between atoms: O_8  and  C_9
REMARK    5  A    between atoms: C_9  and  C_10
REMARK    6  A    between atoms: C_10  and  C_11
REMARK    7  A    between atoms: C_14  and  C_15
REMARK                            x       y       z     vdW  Elec       q    Type
REMARK                         _______ _______ _______ _____ _____    ______ ____
ROOT
ATOM      1  C   UNL     1       3.440  -5.457  -2.704  0.00  0.00    +0.000 C 
ENDROOT
BRANCH   1   2
ATOM      2  O   UNL     1       2.749  -4.520  -1.869  0.00  0.00    +0.000 OA
BRANCH   2   7
ATOM      3  C   UNL     1       2.462  -0.904  -1.446  0.00  0.00    +0.000 A 
ATOM      4  C   UNL     1       3.287  -0.429  -2.474  0.00  0.00    +0.000 A 
ATOM      5  C   UNL     1       3.937  -1.319  -3.327  0.00  0.00    +0.000 A 
ATOM      6  C   UNL     1       3.777  -2.694  -3.159  0.00  0.00    +0.000 A 
ATOM      7  C   UNL     1       2.968  -3.192  -2.136  0.00  0.00    +0.000 A 
ATOM      8  C   UNL     1       2.312  -2.293  -1.286  0.00  0.00    +0.000 A 
BRANCH   3   9
ATOM      9  C   UNL     1       1.775   0.066  -0.518  0.00  0.00    +0.000 C 
BRANCH   9  10
ATOM     10  N   UNL     1       0.903   0.982  -1.245  0.00  0.00    +0.000 NA
ATOM     11  H   UNL     1       0.397   1.561  -0.579  0.00  0.00    +0.000 HD
ATOM     12  H   UNL     1       0.202   0.437  -1.746  0.00  0.00    +0.000 HD
ENDBRANCH   9  10
ENDBRANCH   3   9
ENDBRANCH   2   7
ENDBRANCH   1   2
BRANCH   1  13
ATOM     13  C   UNL     1       3.111  -6.881  -2.248  0.00  0.00    +0.000 C 
BRANCH  13  14
ATOM     14  C   UNL     1       3.767  -7.919  -3.129  0.00  0.00    +0.000 A 
ATOM     15  C   UNL     1       5.058  -8.383  -2.848  0.00  0.00    +0.000 A 
ATOM     16  C   UNL     1       5.682  -9.302  -3.697  0.00  0.00    +0.000 A 
ATOM     17  C   UNL     1       5.021  -9.776  -4.836  0.00  0.00    +0.000 A 
ATOM     18  C   UNL     1       3.731  -9.317  -5.123  0.00  0.00    +0.000 A 
ATOM     19  C   UNL     1       3.111  -8.393  -4.274  0.00  0.00    +0.000 A 
BRANCH  17  20
ATOM     20  C   UNL     1       5.743 -10.720  -5.730  0.00  0.00    +0.000 C 
ATOM     21  N   UNL     1       4.993 -11.549  -6.518  0.00  0.00    +0.000 N 
ATOM     22  O   UNL     1       6.966 -10.779  -5.748  0.00  0.00    +0.000 OA
ATOM     23  H   UNL     1       4.004 -11.692  -6.382  0.00  0.00    +0.000 HD
ATOM     24  H   UNL     1       5.503 -12.244  -7.049  0.00  0.00    +0.000 HD
ENDBRANCH  17  20
ENDBRANCH  13  14
ENDBRANCH   1  13
TORSDOF 7
