REMARK  Name = 
REMARK  5 active torsions:
REMARK  status: ('A' for Active; 'I' for Inactive)
REMARK    1  A    between atoms: C_2  and  C_4
REMARK    2  A    between atoms: C_7  and  N_8
REMARK    3  A    between atoms: N_8  and  C_9
REMARK    4  A    between atoms: C_9  and  C_10
REMARK    5  A    between atoms: C_14  and  C_15
REMARK                            x       y       z     vdW  Elec       q    Type
REMARK                         _______ _______ _______ _____ _____    ______ ____
ROOT
ATOM      1  N   UNL     1       5.306  -4.704  -1.195  0.00  0.00    +0.000 N 
ATOM      2  H   UNL     1       5.079  -5.000  -0.246  0.00  0.00    +0.000 HD
ENDROOT
BRANCH   1   6
ATOM      3  C   UNL     1       4.154  -0.788  -1.559  0.00  0.00    +0.000 A 
ATOM      4  C   UNL     1       5.365  -1.149  -0.996  0.00  0.00    +0.000 A 
ATOM      5  N   UNL     1       5.747  -2.448  -0.870  0.00  0.00    +0.000 NA
ATOM      6  C   UNL     1       4.902  -3.383  -1.351  0.00  0.00    +0.000 A 
ATOM      7  C   UNL     1       3.669  -2.993  -1.891  0.00  0.00    +0.000 A 
ATOM      8  N   UNL     1       3.262  -1.706  -2.020  0.00  0.00    +0.000 NA
BRANCH   3  10
ATOM      9  N   UNL     1       2.525   0.881  -2.185  0.00  0.00    +0.000 N 
ATOM     10  C   UNL     1       3.769   0.644  -1.659  0.00  0.00    +0.000 C 
ATOM     11  O   UNL     1       4.500   1.548  -1.288  0.00  0.00    +0.000 OA
ATOM     12  H   UNL     1       2.180   1.828  -2.239  0.00  0.00    +0.000 HD
ATOM     13  H   UNL     1       1.932   0.102  -2.446  0.00  0.00    +0.000 HD
ENDBRANCH   3  10
ENDBRANCH   1   6
BRANCH   1  14
ATOM     14  C   UNL     1       4.800  -5.670  -2.166  0.00  0.00    +0.000 C 
BRANCH  14  15
ATOM     15  C   UNL     1       5.717  -6.873  -2.245  0.00  0.00    +0.000 A 
ATOM     16  C   UNL     1       7.053  -6.700  -2.598  0.00  0.00    +0.000 A 
ATOM     17  C   UNL     1       7.873  -7.817  -2.692  0.00  0.00    +0.000 A 
ATOM     18  C   UNL     1       7.340  -9.076  -2.438  0.00  0.00    +0.000 A 
ATOM     19  C   UNL     1       5.992  -9.190  -2.094  0.00  0.00    +0.000 A 
ATOM     20  N   UNL     1       5.180  -8.095  -1.997  0.00  0.00    +0.000 NA
BRANCH  19  21
ATOM     21  C   UNL     1       5.398 -10.568  -1.826  0.00  0.00    +0.000 C 
ATOM     22  F   UNL     1       6.309 -11.581  -1.939  0.00  0.00    +0.000 F 
ATOM     23  F   UNL     1       4.873 -10.691  -0.573  0.00  0.00    +0.000 F 
ATOM     24  F   UNL     1       4.392 -10.891  -2.689  0.00  0.00    +0.000 F 
ENDBRANCH  19  21
ENDBRANCH  14  15
ENDBRANCH   1  14
TORSDOF 5
