REMARK  Name = 
REMARK  4 active torsions:
REMARK  status: ('A' for Active; 'I' for Inactive)
REMARK    1  A    between atoms: C_2  and  C_4
REMARK    2  A    between atoms: N_8  and  C_9
REMARK    3  A    between atoms: C_9  and  C_10
REMARK    4  A    between atoms: C_14  and  C_15
REMARK                            x       y       z     vdW  Elec       q    Type
REMARK                         _______ _______ _______ _____ _____    ______ ____
ROOT
ATOM      1  C   UNL     1       4.939   3.645  -4.907  0.00  0.00    +0.000 C 
ATOM      2  C   UNL     1       4.740   5.074  -4.425  0.00  0.00    +0.000 C 
ATOM      3  C   UNL     1       3.559   4.296  -4.901  0.00  0.00    +0.000 C 
ENDROOT
BRANCH   1   8
ATOM      4  C   UNL     1       8.405   2.484  -1.244  0.00  0.00    +0.000 A 
ATOM      5  C   UNL     1       8.535   3.247  -2.397  0.00  0.00    +0.000 A 
ATOM      6  C   UNL     1       7.477   3.291  -3.305  0.00  0.00    +0.000 A 
ATOM      7  C   UNL     1       6.305   2.584  -3.052  0.00  0.00    +0.000 A 
ATOM      8  N   UNL     1       5.214   2.589  -3.925  0.00  0.00    +0.000 N 
ATOM      9  N   UNL     1       6.175   1.826  -1.943  0.00  0.00    +0.000 NA
ATOM     10  C   UNL     1       7.221   1.780  -1.073  0.00  0.00    +0.000 A 
ATOM     11  H   UNL     1       4.448   2.081  -3.495  0.00  0.00    +0.000 HD
BRANCH   4  13
ATOM     12  N   UNL     1      10.345   3.423  -0.126  0.00  0.00    +0.000 N 
ATOM     13  C   UNL     1       9.469   2.375  -0.232  0.00  0.00    +0.000 C 
ATOM     14  O   UNL     1       9.551   1.409   0.515  0.00  0.00    +0.000 OA
ATOM     15  H   UNL     1      11.018   3.379   0.626  0.00  0.00    +0.000 HD
ATOM     16  H   UNL     1      10.173   4.323  -0.551  0.00  0.00    +0.000 HD
ENDBRANCH   4  13
ENDBRANCH   1   8
BRANCH   1  17
ATOM     17  C   UNL     1       5.529   3.405  -6.295  0.00  0.00    +0.000 A 
ATOM     18  C   UNL     1       4.966   2.473  -7.180  0.00  0.00    +0.000 A 
ATOM     19  C   UNL     1       5.442   2.337  -8.485  0.00  0.00    +0.000 A 
ATOM     20  C   UNL     1       6.500   3.131  -8.928  0.00  0.00    +0.000 A 
ATOM     21  C   UNL     1       7.104   4.070  -8.081  0.00  0.00    +0.000 A 
ATOM     22  C   UNL     1       6.610   4.171  -6.771  0.00  0.00    +0.000 A 
BRANCH  21  23
ATOM     23  C   UNL     1       8.154   4.989  -8.551  0.00  0.00    +0.000 A 
ATOM     24  C   UNL     1       8.090   5.581  -9.820  0.00  0.00    +0.000 A 
ATOM     25  C   UNL     1       9.057   6.496 -10.229  0.00  0.00    +0.000 A 
ATOM     26  C   UNL     1      10.078   6.808  -9.350  0.00  0.00    +0.000 A 
ATOM     27  N   UNL     1      10.193   6.269  -8.120  0.00  0.00    +0.000 NA
ATOM     28  C   UNL     1       9.238   5.375  -7.758  0.00  0.00    +0.000 A 
ENDBRANCH  21  23
ENDBRANCH   1  17
TORSDOF 4
