REMARK  Name = 
REMARK  7 active torsions:
REMARK  status: ('A' for Active; 'I' for Inactive)
REMARK    1  A    between atoms: C_1  and  O_2
REMARK    2  A    between atoms: O_2  and  C_3
REMARK    3  A    between atoms: C_10  and  C_11
REMARK    4  A    between atoms: N_13  and  C_14
REMARK    5  A    between atoms: C_14  and  C_15
REMARK    6  A    between atoms: C_18  and  C_19
REMARK    7  A    between atoms: C_20  and  C_21
REMARK                            x       y       z     vdW  Elec       q    Type
REMARK                         _______ _______ _______ _____ _____    ______ ____
ROOT
ATOM      1  C   UNL     1       4.815   4.036  -2.660  0.00  0.00    +0.000 C 
ATOM      2  O   UNL     1       5.225   4.205  -1.510  0.00  0.00    +0.000 OA
ATOM      3  N   UNL     1       3.621   3.419  -2.903  0.00  0.00    +0.000 N 
ATOM      4  H   UNL     1       3.281   3.333  -3.851  0.00  0.00    +0.000 HD
ENDROOT
BRANCH   1  12
ATOM      5  C   UNL     1       4.356   3.757  -6.057  0.00  0.00    +0.000 A 
ATOM      6  N   UNL     1       4.419   3.795  -7.403  0.00  0.00    +0.000 NA
ATOM      7  C   UNL     1       5.472   4.396  -7.964  0.00  0.00    +0.000 A 
ATOM      8  N   UNL     1       6.491   4.977  -7.336  0.00  0.00    +0.000 NA
ATOM      9  C   UNL     1       6.383   4.926  -5.998  0.00  0.00    +0.000 A 
ATOM     10  S   UNL     1       7.594   5.620  -5.032  0.00  0.00    +0.000 S 
ATOM     11  C   UNL     1       6.787   5.169  -3.607  0.00  0.00    +0.000 A 
ATOM     12  C   UNL     1       5.593   4.489  -3.826  0.00  0.00    +0.000 A 
ATOM     13  C   UNL     1       5.354   4.347  -5.261  0.00  0.00    +0.000 A 
BRANCH   5  15
ATOM     14  C   UNL     1       2.635   2.191  -6.314  0.00  0.00    +0.000 C 
ATOM     15  O   UNL     1       3.255   3.164  -5.478  0.00  0.00    +0.000 OA
ENDBRANCH   5  15
ENDBRANCH   1  12
BRANCH   3  16
ATOM     16  C   UNL     1       2.773   2.919  -1.852  0.00  0.00    +0.000 C 
BRANCH  16  17
ATOM     17  C   UNL     1       1.560   2.218  -2.411  0.00  0.00    +0.000 A 
ATOM     18  C   UNL     1       1.591   0.843  -2.676  0.00  0.00    +0.000 A 
ATOM     19  C   UNL     1       0.458   0.187  -3.177  0.00  0.00    +0.000 A 
ATOM     20  C   UNL     1      -0.730   0.887  -3.424  0.00  0.00    +0.000 A 
ATOM     21  C   UNL     1      -0.739   2.271  -3.213  0.00  0.00    +0.000 A 
ATOM     22  C   UNL     1       0.393   2.930  -2.713  0.00  0.00    +0.000 A 
BRANCH  20  23
ATOM     23  C   UNL     1      -1.925   0.233  -3.986  0.00  0.00    +0.000 C 
ATOM     24  C   UNL     1      -2.270  -1.049  -3.768  0.00  0.00    +0.000 C 
BRANCH  24  25
ATOM     25  C   UNL     1      -3.402  -1.736  -4.417  0.00  0.00    +0.000 A 
ATOM     26  C   UNL     1      -3.838  -1.397  -5.705  0.00  0.00    +0.000 A 
ATOM     27  C   UNL     1      -4.847  -2.129  -6.337  0.00  0.00    +0.000 A 
ATOM     28  C   UNL     1      -5.428  -3.217  -5.693  0.00  0.00    +0.000 A 
ATOM     29  C   UNL     1      -5.003  -3.572  -4.414  0.00  0.00    +0.000 A 
ATOM     30  C   UNL     1      -3.994  -2.837  -3.781  0.00  0.00    +0.000 A 
ENDBRANCH  24  25
ENDBRANCH  20  23
ENDBRANCH  16  17
ENDBRANCH   3  16
TORSDOF 6
