REMARK  Name = 
REMARK  9 active torsions:
REMARK  status: ('A' for Active; 'I' for Inactive)
REMARK    1  A    between atoms: C_1  and  C_2
REMARK    2  A    between atoms: C_2  and  C_3
REMARK    3  A    between atoms: C_2  and  C_26
REMARK    4  A    between atoms: C_3  and  N_4
REMARK    5  A    between atoms: N_4  and  C_5
REMARK    6  A    between atoms: C_5  and  C_6
REMARK    7  A    between atoms: C_9  and  C_10
REMARK    8  A    between atoms: C_10  and  N_11
REMARK    9  A    between atoms: C_12  and  C_14
REMARK                            x       y       z     vdW  Elec       q    Type
REMARK                         _______ _______ _______ _____ _____    ______ ____
ROOT
ATOM      1  C   UNL     1       2.643  -4.526  -1.761  0.00  0.00    +0.000 A 
ATOM      2  N   UNL     1       3.545  -5.503  -1.996  0.00  0.00    +0.000 NA
ATOM      3  C   UNL     1       3.134  -6.768  -1.786  0.00  0.00    +0.000 A 
ATOM      4  C   UNL     1       1.878  -7.100  -1.335  0.00  0.00    +0.000 A 
ATOM      5  C   UNL     1       1.051  -6.028  -1.073  0.00  0.00    +0.000 A 
ATOM      6  N   UNL     1       1.399  -4.735  -1.283  0.00  0.00    +0.000 NA
ENDROOT
BRANCH   1   7
ATOM      7  C   UNL     1       3.075  -3.080  -2.019  0.00  0.00    +0.000 C 
BRANCH   7   8
ATOM      8  N   UNL     1       4.445  -2.971  -2.543  0.00  0.00    +0.000 NA
ATOM      9  H   UNL     1       5.047  -3.525  -1.934  0.00  0.00    +0.000 HD
BRANCH   8  10
ATOM     10  C   UNL     1       4.907  -1.593  -2.656  0.00  0.00    +0.000 C 
BRANCH  10  12
ATOM     11  C   UNL     1       7.369  -2.160  -2.192  0.00  0.00    +0.000 C 
ATOM     12  C   UNL     1       6.368  -1.527  -3.170  0.00  0.00    +0.000 C 
BRANCH  12  13
ATOM     13  C   UNL     1       6.757  -0.091  -3.493  0.00  0.00    +0.000 A 
ATOM     14  C   UNL     1       7.048   0.273  -4.816  0.00  0.00    +0.000 A 
ATOM     15  C   UNL     1       7.381   1.590  -5.136  0.00  0.00    +0.000 A 
ATOM     16  C   UNL     1       7.426   2.561  -4.138  0.00  0.00    +0.000 A 
ATOM     17  C   UNL     1       7.144   2.214  -2.819  0.00  0.00    +0.000 A 
ATOM     18  C   UNL     1       6.814   0.896  -2.497  0.00  0.00    +0.000 A 
ENDBRANCH  12  13
ENDBRANCH  10  12
ENDBRANCH   8  10
ENDBRANCH   7   8
ENDBRANCH   1   7
BRANCH   4  19
ATOM     19  C   UNL     1       1.479  -8.521  -1.115  0.00  0.00    +0.000 C 
BRANCH  19  20
ATOM     20  N   UNL     1       1.865  -8.997   0.190  0.00  0.00    +0.000 N 
ATOM     21  C   UNL     1       1.542 -10.272   0.589  0.00  0.00    +0.000 C 
ATOM     22  O   UNL     1       0.921 -11.034  -0.146  0.00  0.00    +0.000 OA
ATOM     23  H   UNL     1       2.585  -8.487   0.692  0.00  0.00    +0.000 HD
BRANCH  21  24
ATOM     24  C   UNL     1       1.892 -10.647   1.965  0.00  0.00    +0.000 A 
ATOM     25  C   UNL     1       1.512 -11.885   2.468  0.00  0.00    +0.000 A 
ATOM     26  S   UNL     1       1.726 -12.024   4.156  0.00  0.00    +0.000 S 
ATOM     27  C   UNL     1       2.389 -10.459   4.252  0.00  0.00    +0.000 A 
ATOM     28  N   UNL     1       2.696  -9.889   5.448  0.00  0.00    +0.000 NA
ATOM     29  C   UNL     1       3.238  -8.720   5.356  0.00  0.00    +0.000 A 
ATOM     30  N   UNL     1       3.546  -8.090   4.175  0.00  0.00    +0.000 N 
ATOM     31  C   UNL     1       3.283  -8.646   2.950  0.00  0.00    +0.000 A 
ATOM     32  O   UNL     1       3.663  -8.120   1.906  0.00  0.00    +0.000 OA
ATOM     33  C   UNL     1       2.559  -9.899   3.000  0.00  0.00    +0.000 A 
ATOM     34  H   UNL     1       4.047  -7.214   4.173  0.00  0.00    +0.000 HD
ENDBRANCH  21  24
ENDBRANCH  19  20
ENDBRANCH   4  19
TORSDOF 8
