REMARK  Name = 
REMARK  8 active torsions:
REMARK  status: ('A' for Active; 'I' for Inactive)
REMARK    1  A    between atoms: C_1  and  C_2
REMARK    2  A    between atoms: C_2  and  N_3
REMARK    3  A    between atoms: N_3  and  C_4
REMARK    4  A    between atoms: C_8  and  C_9
REMARK    5  A    between atoms: C_9  and  C_10
REMARK    6  A    between atoms: C_10  and  N_11
REMARK    7  A    between atoms: N_11  and  C_12
REMARK    8  A    between atoms: C_15  and  C_16
REMARK                            x       y       z     vdW  Elec       q    Type
REMARK                         _______ _______ _______ _____ _____    ______ ____
ROOT
ATOM      1  C   UNL     1       6.062   1.588  -4.754  0.00  0.00    +0.000 C 
ENDROOT
BRANCH   1   6
ATOM      2  C   UNL     1       4.073  -0.164  -1.979  0.00  0.00    +0.000 A 
ATOM      3  C   UNL     1       4.981  -1.149  -1.592  0.00  0.00    +0.000 A 
ATOM      4  C   UNL     1       6.219  -1.269  -2.233  0.00  0.00    +0.000 A 
ATOM      5  C   UNL     1       6.574  -0.388  -3.255  0.00  0.00    +0.000 A 
ATOM      6  C   UNL     1       5.689   0.618  -3.655  0.00  0.00    +0.000 A 
ATOM      7  C   UNL     1       4.453   0.727  -2.998  0.00  0.00    +0.000 A 
BRANCH   2   8
ATOM      8  N   UNL     1       2.849   0.063  -1.325  0.00  0.00    +0.000 N 
ATOM      9  H   UNL     1       2.133   0.416  -1.955  0.00  0.00    +0.000 HD
BRANCH   8  11
ATOM     10  C   UNL     1       1.740  -1.840  -0.227  0.00  0.00    +0.000 C 
ATOM     11  C   UNL     1       2.339  -0.456  -0.075  0.00  0.00    +0.000 C 
ATOM     12  C   UNL     1       3.230  -0.183   1.158  0.00  0.00    +0.000 C 
ATOM     13  O   UNL     1       2.441   0.975   1.534  0.00  0.00    +0.000 OA
ATOM     14  C   UNL     1       1.407   0.588   0.596  0.00  0.00    +0.000 C 
ENDBRANCH   8  11
ENDBRANCH   2   8
ENDBRANCH   1   6
BRANCH   1  15
ATOM     15  C   UNL     1       6.812   2.812  -4.218  0.00  0.00    +0.000 C 
BRANCH  15  16
ATOM     16  N   UNL     1       7.130   3.749  -5.308  0.00  0.00    +0.000 N 
ATOM     17  H   UNL     1       6.320   3.953  -5.891  0.00  0.00    +0.000 HD
BRANCH  16  18
ATOM     18  C   UNL     1       7.827   4.921  -4.970  0.00  0.00    +0.000 A 
ATOM     19  C   UNL     1       8.745   4.989  -3.917  0.00  0.00    +0.000 A 
ATOM     20  C   UNL     1       9.458   6.158  -3.663  0.00  0.00    +0.000 A 
ATOM     21  C   UNL     1       9.259   7.245  -4.500  0.00  0.00    +0.000 A 
ATOM     22  N   UNL     1       8.418   7.230  -5.567  0.00  0.00    +0.000 NA
ATOM     23  C   UNL     1       7.749   6.066  -5.777  0.00  0.00    +0.000 A 
BRANCH  21  24
ATOM     24  C   UNL     1      10.013   8.512  -4.239  0.00  0.00    +0.000 C 
ATOM     25  N   UNL     1       9.764   9.536  -5.109  0.00  0.00    +0.000 N 
ATOM     26  O   UNL     1      10.805   8.636  -3.312  0.00  0.00    +0.000 OA
ATOM     27  H   UNL     1       9.109   9.392  -5.872  0.00  0.00    +0.000 HD
ATOM     28  H   UNL     1      10.248  10.414  -4.998  0.00  0.00    +0.000 HD
ENDBRANCH  21  24
ENDBRANCH  16  18
ENDBRANCH  15  16
ENDBRANCH   1  15
TORSDOF 7
