REMARK  Name = 
REMARK  7 active torsions:
REMARK  status: ('A' for Active; 'I' for Inactive)
REMARK    1  A    between atoms: C_2  and  C_3
REMARK    2  A    between atoms: C_6  and  N_7
REMARK    3  A    between atoms: N_7  and  C_8
REMARK    4  A    between atoms: C_8  and  C_9
REMARK    5  A    between atoms: C_13  and  C_14
REMARK    6  A    between atoms: C_18  and  O_19
REMARK    7  A    between atoms: O_19  and  C_20
REMARK                            x       y       z     vdW  Elec       q    Type
REMARK                         _______ _______ _______ _____ _____    ______ ____
ROOT
ATOM      1  C   UNL     1       9.852  -0.048   0.622  0.00  0.00    +0.000 A 
ATOM      2  C   UNL     1      10.423  -0.307   1.877  0.00  0.00    +0.000 A 
ATOM      3  C   UNL     1      11.247   0.631   2.497  0.00  0.00    +0.000 A 
ATOM      4  C   UNL     1      11.497   1.857   1.878  0.00  0.00    +0.000 A 
ATOM      5  C   UNL     1      10.951   2.164   0.622  0.00  0.00    +0.000 A 
ATOM      6  C   UNL     1      10.176   1.171  -0.002  0.00  0.00    +0.000 A 
ENDROOT
BRANCH   5   7
ATOM      7  C   UNL     1      11.075   3.511   0.020  0.00  0.00    +0.000 A 
ATOM      8  C   UNL     1      11.001   4.658   0.831  0.00  0.00    +0.000 A 
ATOM      9  C   UNL     1      11.059   5.940   0.285  0.00  0.00    +0.000 A 
ATOM     10  C   UNL     1      11.171   6.100  -1.091  0.00  0.00    +0.000 A 
ATOM     11  C   UNL     1      11.210   4.987  -1.929  0.00  0.00    +0.000 A 
ATOM     12  C   UNL     1      11.188   3.702  -1.374  0.00  0.00    +0.000 A 
BRANCH  11  13
ATOM     13  O   UNL     1      11.302   5.278  -3.261  0.00  0.00    +0.000 OA
BRANCH  13  14
ATOM     14  C   UNL     1      10.702   4.347  -4.147  0.00  0.00    +0.000 C 
ATOM     15  F   UNL     1       9.388   4.209  -3.840  0.00  0.00    +0.000 F 
ATOM     16  F   UNL     1      10.754   4.886  -5.392  0.00  0.00    +0.000 F 
ENDBRANCH  13  14
ENDBRANCH  11  13
ENDBRANCH   5   7
BRANCH   1  17
ATOM     17  C   UNL     1       8.835  -0.989  -0.017  0.00  0.00    +0.000 C 
ATOM     18  C   UNL     1       7.550  -1.276   0.756  0.00  0.00    +0.000 C 
ATOM     19  C   UNL     1       7.513  -0.362  -0.420  0.00  0.00    +0.000 C 
BRANCH  17  20
ATOM     20  N   UNL     1       9.427  -2.193  -0.616  0.00  0.00    +0.000 N 
ATOM     21  H   UNL     1      10.031  -2.721   0.026  0.00  0.00    +0.000 HD
BRANCH  20  25
ATOM     22  C   UNL     1      10.667  -2.943  -4.481  0.00  0.00    +0.000 A 
ATOM     23  N   UNL     1       9.779  -1.935  -4.320  0.00  0.00    +0.000 NA
ATOM     24  C   UNL     1       9.404  -1.665  -3.045  0.00  0.00    +0.000 A 
ATOM     25  C   UNL     1       9.878  -2.333  -1.938  0.00  0.00    +0.000 A 
ATOM     26  C   UNL     1      10.795  -3.331  -2.263  0.00  0.00    +0.000 A 
ATOM     27  F   UNL     1      11.318  -4.042  -1.248  0.00  0.00    +0.000 F 
ATOM     28  N   UNL     1      11.218  -3.659  -3.496  0.00  0.00    +0.000 NA
BRANCH  22  30
ATOM     29  N   UNL     1      11.301  -3.647  -6.906  0.00  0.00    +0.000 NA
ATOM     30  C   UNL     1      11.017  -3.320  -5.828  0.00  0.00    +0.000 C 
ENDBRANCH  22  30
ENDBRANCH  20  25
ENDBRANCH  17  20
ENDBRANCH   1  17
TORSDOF 7
