REMARK  Name = 
REMARK  7 active torsions:
REMARK  status: ('A' for Active; 'I' for Inactive)
REMARK    1  A    between atoms: C_2  and  C_4
REMARK    2  A    between atoms: C_7  and  N_8
REMARK    3  A    between atoms: N_8  and  C_9
REMARK    4  A    between atoms: C_9  and  C_10
REMARK    5  A    between atoms: C_10  and  C_13
REMARK    6  A    between atoms: C_17  and  N_18
REMARK    7  A    between atoms: N_18  and  C_19
REMARK                            x       y       z     vdW  Elec       q    Type
REMARK                         _______ _______ _______ _____ _____    ______ ____
ROOT
ATOM      1  C   UNL     1       6.009   3.287   6.420  0.00  0.00    +0.000 C 
ATOM      2  F   UNL     1       7.259   2.766   6.227  0.00  0.00    +0.000 F 
ATOM      3  F   UNL     1       6.092   4.578   5.980  0.00  0.00    +0.000 F 
ENDROOT
BRANCH   1   4
ATOM      4  C   UNL     1       5.588   3.208   7.876  0.00  0.00    +0.000 A 
ATOM      5  C   UNL     1       5.987   2.122   8.667  0.00  0.00    +0.000 A 
ATOM      6  C   UNL     1       5.586   2.038  10.000  0.00  0.00    +0.000 A 
ATOM      7  C   UNL     1       4.772   3.030  10.555  0.00  0.00    +0.000 A 
ATOM      8  C   UNL     1       4.351   4.116   9.786  0.00  0.00    +0.000 A 
ATOM      9  C   UNL     1       4.776   4.201   8.452  0.00  0.00    +0.000 A 
BRANCH   8  10
ATOM     10  N   UNL     1       3.571   5.173  10.312  0.00  0.00    +0.000 N 
ATOM     11  H   UNL     1       4.154   6.007  10.400  0.00  0.00    +0.000 HD
BRANCH  10  12
ATOM     12  C   UNL     1       2.629   5.056  11.402  0.00  0.00    +0.000 C 
ATOM     13  C   UNL     1       1.969   6.402  11.764  0.00  0.00    +0.000 C 
ATOM     14  N   UNL     1       2.306   6.190  13.182  0.00  0.00    +0.000 NA
ATOM     15  C   UNL     1       3.220   5.091  12.823  0.00  0.00    +0.000 C 
ATOM     16  H   UNL     1       1.511   5.895  13.749  0.00  0.00    +0.000 HD
ENDBRANCH  10  12
ENDBRANCH   8  10
ENDBRANCH   1   4
BRANCH   1  17
ATOM     17  C   UNL     1       5.007   2.531   5.510  0.00  0.00    +0.000 C 
BRANCH  17  18
ATOM     18  N   UNL     1       5.367   2.572   4.079  0.00  0.00    +0.000 N 
ATOM     19  H   UNL     1       5.809   3.438   3.774  0.00  0.00    +0.000 HD
BRANCH  18  23
ATOM     20  C   UNL     1       3.156   0.544   1.119  0.00  0.00    +0.000 A 
ATOM     21  C   UNL     1       2.712   0.529   2.440  0.00  0.00    +0.000 A 
ATOM     22  C   UNL     1       3.425   1.219   3.427  0.00  0.00    +0.000 A 
ATOM     23  C   UNL     1       4.573   1.961   3.115  0.00  0.00    +0.000 A 
ATOM     24  C   UNL     1       5.010   1.956   1.787  0.00  0.00    +0.000 A 
ATOM     25  C   UNL     1       4.316   1.249   0.793  0.00  0.00    +0.000 A 
BRANCH  20  27
ATOM     26  N   UNL     1       1.117  -0.438   0.228  0.00  0.00    +0.000 N 
ATOM     27  C   UNL     1       2.456  -0.224   0.057  0.00  0.00    +0.000 C 
ATOM     28  O   UNL     1       3.037  -0.617  -0.949  0.00  0.00    +0.000 OA
ATOM     29  H   UNL     1       0.630  -0.884  -0.541  0.00  0.00    +0.000 HD
ATOM     30  H   UNL     1       0.561   0.079   0.897  0.00  0.00    +0.000 HD
ENDBRANCH  20  27
ENDBRANCH  18  23
ENDBRANCH  17  18
ENDBRANCH   1  17
TORSDOF 7
