REMARK  Name = 
REMARK  5 active torsions:
REMARK  status: ('A' for Active; 'I' for Inactive)
REMARK    1  A    between atoms: C_2  and  C_4
REMARK    2  A    between atoms: C_7  and  O_8
REMARK    3  A    between atoms: O_8  and  C_9
REMARK    4  A    between atoms: C_9  and  C_10
REMARK    5  A    between atoms: C_15  and  C_16
REMARK                            x       y       z     vdW  Elec       q    Type
REMARK                         _______ _______ _______ _____ _____    ______ ____
ROOT
ATOM      1  C   UNL     1       6.607  -5.359   3.983  0.00  0.00    +0.000 A 
ATOM      2  C   UNL     1       7.591  -4.615   4.640  0.00  0.00    +0.000 A 
ATOM      3  C   UNL     1       8.549  -5.266   5.405  0.00  0.00    +0.000 A 
ATOM      4  F   UNL     1       9.488  -4.546   6.033  0.00  0.00    +0.000 F 
ATOM      5  C   UNL     1       8.553  -6.653   5.533  0.00  0.00    +0.000 A 
ATOM      6  C   UNL     1       7.568  -7.435   4.909  0.00  0.00    +0.000 A 
ATOM      7  C   UNL     1       6.593  -6.755   4.150  0.00  0.00    +0.000 A 
ENDROOT
BRANCH   6   8
ATOM      8  C   UNL     1       7.543  -8.911   5.035  0.00  0.00    +0.000 A 
ATOM      9  C   UNL     1       7.971  -9.561   6.209  0.00  0.00    +0.000 A 
ATOM     10  C   UNL     1       7.940 -10.956   6.329  0.00  0.00    +0.000 A 
ATOM     11  C   UNL     1       7.466 -11.733   5.278  0.00  0.00    +0.000 A 
ATOM     12  C   UNL     1       7.036 -11.110   4.117  0.00  0.00    +0.000 A 
ATOM     13  F   UNL     1       6.569 -11.851   3.103  0.00  0.00    +0.000 F 
ATOM     14  C   UNL     1       7.078  -9.725   3.985  0.00  0.00    +0.000 A 
ENDBRANCH   6   8
BRANCH   1  15
ATOM     15  C   UNL     1       5.536  -4.655   3.179  0.00  0.00    +0.000 C 
BRANCH  15  16
ATOM     16  O   UNL     1       5.093  -5.482   2.097  0.00  0.00    +0.000 OA
BRANCH  16  20
ATOM     17  C   UNL     1       2.179  -3.697  -0.200  0.00  0.00    +0.000 A 
ATOM     18  C   UNL     1       2.607  -4.989  -0.513  0.00  0.00    +0.000 A 
ATOM     19  C   UNL     1       3.593  -5.587   0.275  0.00  0.00    +0.000 A 
ATOM     20  C   UNL     1       4.109  -4.872   1.348  0.00  0.00    +0.000 A 
ATOM     21  N   UNL     1       3.708  -3.627   1.675  0.00  0.00    +0.000 NA
ATOM     22  C   UNL     1       2.761  -3.063   0.889  0.00  0.00    +0.000 A 
BRANCH  17  24
ATOM     23  N   UNL     1       0.236  -3.676  -1.662  0.00  0.00    +0.000 N 
ATOM     24  C   UNL     1       1.170  -2.953  -0.977  0.00  0.00    +0.000 C 
ATOM     25  O   UNL     1       1.147  -1.729  -0.980  0.00  0.00    +0.000 OA
ATOM     26  H   UNL     1      -0.507  -3.141  -2.095  0.00  0.00    +0.000 HD
ATOM     27  H   UNL     1       0.064  -4.656  -1.485  0.00  0.00    +0.000 HD
ENDBRANCH  17  24
ENDBRANCH  16  20
ENDBRANCH  15  16
ENDBRANCH   1  15
TORSDOF 5
