REMARK  Name = 
REMARK  6 active torsions:
REMARK  status: ('A' for Active; 'I' for Inactive)
REMARK    1  A    between atoms: C_2  and  C_4
REMARK    2  A    between atoms: C_7  and  N_8
REMARK    3  A    between atoms: N_8  and  C_9
REMARK    4  A    between atoms: C_9  and  C_10
REMARK    5  A    between atoms: C_10  and  C_11
REMARK    6  A    between atoms: C_15  and  N_16
REMARK                            x       y       z     vdW  Elec       q    Type
REMARK                         _______ _______ _______ _____ _____    ______ ____
ROOT
ATOM      1  C   UNL     1       5.019   5.522   2.476  0.00  0.00    +0.000 C 
ENDROOT
BRANCH   1   2
ATOM      2  N   UNL     1       5.476   4.626   1.413  0.00  0.00    +0.000 N 
ATOM      3  H   UNL     1       5.840   5.086   0.580  0.00  0.00    +0.000 HD
BRANCH   2   7
ATOM      4  C   UNL     1       3.399   1.055   0.510  0.00  0.00    +0.000 A 
ATOM      5  C   UNL     1       2.891   1.923   1.477  0.00  0.00    +0.000 A 
ATOM      6  C   UNL     1       3.562   3.114   1.772  0.00  0.00    +0.000 A 
ATOM      7  C   UNL     1       4.732   3.484   1.096  0.00  0.00    +0.000 A 
ATOM      8  C   UNL     1       5.240   2.590   0.139  0.00  0.00    +0.000 A 
ATOM      9  C   UNL     1       4.585   1.382  -0.149  0.00  0.00    +0.000 A 
BRANCH   4  11
ATOM     10  N   UNL     1       1.372  -0.285   0.376  0.00  0.00    +0.000 N 
ATOM     11  C   UNL     1       2.728  -0.234   0.200  0.00  0.00    +0.000 C 
ATOM     12  O   UNL     1       3.348  -1.199  -0.227  0.00  0.00    +0.000 OA
ATOM     13  H   UNL     1       0.910  -1.131   0.068  0.00  0.00    +0.000 HD
ATOM     14  H   UNL     1       0.809   0.544   0.484  0.00  0.00    +0.000 HD
ENDBRANCH   4  11
ENDBRANCH   2   7
ENDBRANCH   1   2
BRANCH   1  15
ATOM     15  C   UNL     1       5.974   6.710   2.642  0.00  0.00    +0.000 C 
BRANCH  15  16
ATOM     16  C   UNL     1       5.546   7.648   3.742  0.00  0.00    +0.000 A 
ATOM     17  C   UNL     1       4.670   8.694   3.492  0.00  0.00    +0.000 A 
ATOM     18  N   UNL     1       4.246   9.562   4.430  0.00  0.00    +0.000 NA
ATOM     19  C   UNL     1       4.730   9.375   5.687  0.00  0.00    +0.000 A 
ATOM     20  C   UNL     1       5.610   8.366   6.085  0.00  0.00    +0.000 A 
ATOM     21  C   UNL     1       6.004   7.495   5.061  0.00  0.00    +0.000 A 
BRANCH  20  22
ATOM     22  N   UNL     1       6.078   8.249   7.376  0.00  0.00    +0.000 N 
ATOM     23  C   UNL     1       5.280   8.621   8.555  0.00  0.00    +0.000 C 
ATOM     24  C   UNL     1       6.121   9.501   9.491  0.00  0.00    +0.000 C 
ATOM     25  O   UNL     1       7.357   8.860   9.848  0.00  0.00    +0.000 OA
ATOM     26  C   UNL     1       8.132   8.575   8.671  0.00  0.00    +0.000 C 
ATOM     27  C   UNL     1       7.378   7.645   7.703  0.00  0.00    +0.000 C 
ENDBRANCH  20  22
ENDBRANCH  15  16
ENDBRANCH   1  15
TORSDOF 6
