REMARK  Name = 
REMARK  7 active torsions:
REMARK  status: ('A' for Active; 'I' for Inactive)
REMARK    1  A    between atoms: C_2  and  C_3
REMARK    2  A    between atoms: C_3  and  N_4
REMARK    3  A    between atoms: C_3  and  C_17
REMARK    4  A    between atoms: C_5  and  C_7
REMARK    5  A    between atoms: C_20  and  C_21
REMARK    6  A    between atoms: C_21  and  N_22
REMARK    7  A    between atoms: C_23  and  C_25
REMARK                            x       y       z     vdW  Elec       q    Type
REMARK                         _______ _______ _______ _____ _____    ______ ____
ROOT
ATOM      1  C   UNL     1      11.573   8.061  -1.135  0.00  0.00    +0.000 C 
ENDROOT
BRANCH   1   2
ATOM      2  C   UNL     1      10.142   7.909  -0.618  0.00  0.00    +0.000 A 
ATOM      3  C   UNL     1       9.901   7.944   0.766  0.00  0.00    +0.000 A 
ATOM      4  C   UNL     1       8.608   7.777   1.274  0.00  0.00    +0.000 A 
ATOM      5  C   UNL     1       7.526   7.551   0.415  0.00  0.00    +0.000 A 
ATOM      6  C   UNL     1       7.762   7.493  -0.964  0.00  0.00    +0.000 A 
ATOM      7  C   UNL     1       9.056   7.653  -1.473  0.00  0.00    +0.000 A 
BRANCH   5   8
ATOM      8  C   UNL     1       6.127   7.416   0.959  0.00  0.00    +0.000 C 
BRANCH   8   9
ATOM      9  N   UNL     1       5.475   8.704   1.034  0.00  0.00    +0.000 N 
ATOM     10  C   UNL     1       4.173   8.820   1.467  0.00  0.00    +0.000 C 
ATOM     11  O   UNL     1       3.496   7.854   1.802  0.00  0.00    +0.000 OA
ATOM     12  H   UNL     1       6.038   9.533   0.896  0.00  0.00    +0.000 HD
BRANCH  10  13
ATOM     13  C   UNL     1       3.682  10.253   1.538  0.00  0.00    +0.000 C 
ATOM     14  C   UNL     1       3.716  10.960   0.200  0.00  0.00    +0.000 C 
ATOM     15  C   UNL     1       2.692  12.056   0.381  0.00  0.00    +0.000 C 
ATOM     16  O   UNL     1       1.709  11.562   1.296  0.00  0.00    +0.000 OA
ATOM     17  C   UNL     1       2.218  10.371   1.921  0.00  0.00    +0.000 C 
ENDBRANCH  10  13
ENDBRANCH   8   9
ENDBRANCH   5   8
ENDBRANCH   1   2
BRANCH   1  18
ATOM     18  N   UNL     1      12.178   6.743  -1.176  0.00  0.00    +0.000 N 
ATOM     19  C   UNL     1      13.512   6.521  -0.990  0.00  0.00    +0.000 C 
ATOM     20  O   UNL     1      14.288   7.448  -0.779  0.00  0.00    +0.000 OA
ATOM     21  H   UNL     1      11.556   5.979  -1.416  0.00  0.00    +0.000 HD
BRANCH  19  22
ATOM     22  C   UNL     1      13.963   5.118  -1.021  0.00  0.00    +0.000 A 
ATOM     23  C   UNL     1      15.303   4.823  -0.803  0.00  0.00    +0.000 A 
ATOM     24  S   UNL     1      15.655   3.154  -0.823  0.00  0.00    +0.000 S 
ATOM     25  C   UNL     1      14.033   2.758  -1.144  0.00  0.00    +0.000 A 
ATOM     26  N   UNL     1      13.647   1.461  -1.286  0.00  0.00    +0.000 NA
ATOM     27  C   UNL     1      12.391   1.299  -1.534  0.00  0.00    +0.000 A 
ATOM     28  N   UNL     1      11.483   2.317  -1.650  0.00  0.00    +0.000 N 
ATOM     29  C   UNL     1      11.827   3.640  -1.517  0.00  0.00    +0.000 A 
ATOM     30  O   UNL     1      10.985   4.524  -1.644  0.00  0.00    +0.000 OA
ATOM     31  C   UNL     1      13.231   3.884  -1.234  0.00  0.00    +0.000 A 
ATOM     32  H   UNL     1      10.513   2.127  -1.853  0.00  0.00    +0.000 HD
ENDBRANCH  19  22
ENDBRANCH   1  18
BRANCH   1  34
ATOM     33  N   UNL     1      11.660   9.266  -3.491  0.00  0.00    +0.000 NA
ATOM     34  C   UNL     1      11.645   8.743  -2.454  0.00  0.00    +0.000 C 
ENDBRANCH   1  34
TORSDOF 7
