REMARK  Name = 
REMARK  6 active torsions:
REMARK  status: ('A' for Active; 'I' for Inactive)
REMARK    1  A    between atoms: C_2  and  C_25
REMARK    2  A    between atoms: N_3  and  C_4
REMARK    3  A    between atoms: C_4  and  C_5
REMARK    4  A    between atoms: C_8  and  C_9
REMARK    5  A    between atoms: C_9  and  N_10
REMARK    6  A    between atoms: C_11  and  C_13
REMARK                            x       y       z     vdW  Elec       q    Type
REMARK                         _______ _______ _______ _____ _____    ______ ____
ROOT
ATOM      1  C   UNL     1       3.348  -1.739  -3.122  0.00  0.00    +0.000 A 
ATOM      2  C   UNL     1       4.221  -0.874  -3.797  0.00  0.00    +0.000 A 
ATOM      3  C   UNL     1       5.113  -1.364  -4.760  0.00  0.00    +0.000 A 
ATOM      4  C   UNL     1       5.136  -2.727  -5.086  0.00  0.00    +0.000 A 
ATOM      5  C   UNL     1       4.272  -3.592  -4.400  0.00  0.00    +0.000 A 
ATOM      6  C   UNL     1       3.380  -3.103  -3.439  0.00  0.00    +0.000 A 
ENDROOT
BRANCH   1   7
ATOM      7  C   UNL     1       2.382  -1.207  -2.093  0.00  0.00    +0.000 C 
BRANCH   7  10
ATOM      8  O   UNL     1       0.145  -0.236  -0.716  0.00  0.00    +0.000 OA
ATOM      9  C   UNL     1       0.092  -0.324  -1.938  0.00  0.00    +0.000 C 
ATOM     10  N   UNL     1       1.140  -0.802  -2.698  0.00  0.00    +0.000 N 
ATOM     11  H   UNL     1       1.106  -0.705  -3.700  0.00  0.00    +0.000 HD
BRANCH   9  12
ATOM     12  C   UNL     1      -1.060   0.081  -2.695  0.00  0.00    +0.000 A 
ATOM     13  C   UNL     1      -1.407  -0.047  -4.028  0.00  0.00    +0.000 A 
ATOM     14  C   UNL     1      -2.673   0.553  -4.144  0.00  0.00    +0.000 A 
ATOM     15  N   UNL     1      -3.113   1.031  -2.980  0.00  0.00    +0.000 NA
ATOM     16  N   UNL     1      -2.128   0.722  -2.116  0.00  0.00    +0.000 N 
ATOM     17  H   UNL     1      -2.231   0.977  -1.140  0.00  0.00    +0.000 HD
ENDBRANCH   9  12
ENDBRANCH   7  10
ENDBRANCH   1   7
BRANCH   4  18
ATOM     18  C   UNL     1       6.093  -3.268  -6.121  0.00  0.00    +0.000 C 
BRANCH  18  19
ATOM     19  N   UNL     1       7.342  -3.659  -5.518  0.00  0.00    +0.000 N 
ATOM     20  C   UNL     1       8.389  -4.145  -6.256  0.00  0.00    +0.000 C 
ATOM     21  O   UNL     1       8.347  -4.228  -7.482  0.00  0.00    +0.000 OA
ATOM     22  H   UNL     1       7.309  -3.866  -4.525  0.00  0.00    +0.000 HD
BRANCH  20  23
ATOM     23  C   UNL     1       9.597  -4.501  -5.500  0.00  0.00    +0.000 A 
ATOM     24  C   UNL     1      10.840  -4.486  -6.117  0.00  0.00    +0.000 A 
ATOM     25  S   UNL     1      12.132  -4.840  -5.057  0.00  0.00    +0.000 S 
ATOM     26  C   UNL     1      11.067  -5.085  -3.752  0.00  0.00    +0.000 A 
ATOM     27  N   UNL     1      11.531  -5.437  -2.522  0.00  0.00    +0.000 NA
ATOM     28  C   UNL     1      10.609  -5.622  -1.636  0.00  0.00    +0.000 A 
ATOM     29  N   UNL     1       9.265  -5.485  -1.868  0.00  0.00    +0.000 N 
ATOM     30  C   UNL     1       8.754  -5.109  -3.084  0.00  0.00    +0.000 A 
ATOM     31  O   UNL     1       7.547  -4.963  -3.250  0.00  0.00    +0.000 OA
ATOM     32  C   UNL     1       9.748  -4.890  -4.118  0.00  0.00    +0.000 A 
ATOM     33  H   UNL     1       8.592  -5.639  -1.132  0.00  0.00    +0.000 HD
ENDBRANCH  20  23
ENDBRANCH  18  19
ENDBRANCH   4  18
TORSDOF 6
