REMARK  Name = 
REMARK  6 active torsions:
REMARK  status: ('A' for Active; 'I' for Inactive)
REMARK    1  A    between atoms: C_1  and  C_2
REMARK    2  A    between atoms: C_2  and  N_3
REMARK    3  A    between atoms: C_2  and  C_16
REMARK    4  A    between atoms: C_4  and  C_6
REMARK    5  A    between atoms: C_19  and  O_20
REMARK    6  A    between atoms: O_20  and  C_21
REMARK                            x       y       z     vdW  Elec       q    Type
REMARK                         _______ _______ _______ _____ _____    ______ ____
ROOT
ATOM      1  C   UNL     1       3.190   0.163  -1.500  0.00  0.00    +0.000 C 
ATOM      2  C   UNL     1       2.435   0.009  -0.173  0.00  0.00    +0.000 C 
ENDROOT
BRANCH   2   3
ATOM      3  C   UNL     1       2.842   1.082   0.825  0.00  0.00    +0.000 A 
ATOM      4  C   UNL     1       2.964   0.746   2.177  0.00  0.00    +0.000 A 
ATOM      5  C   UNL     1       3.358   1.697   3.115  0.00  0.00    +0.000 A 
ATOM      6  C   UNL     1       3.708   2.989   2.712  0.00  0.00    +0.000 A 
ATOM      7  C   UNL     1       3.562   3.346   1.373  0.00  0.00    +0.000 A 
ATOM      8  C   UNL     1       3.114   2.407   0.439  0.00  0.00    +0.000 A 
BRANCH   6   9
ATOM      9  O   UNL     1       4.167   3.975   3.560  0.00  0.00    +0.000 OA
BRANCH   9  10
ATOM     10  C   UNL     1       4.913   3.616   4.664  0.00  0.00    +0.000 A 
ATOM     11  C   UNL     1       5.716   2.472   4.701  0.00  0.00    +0.000 A 
ATOM     12  C   UNL     1       6.402   2.136   5.864  0.00  0.00    +0.000 A 
ATOM     13  C   UNL     1       6.344   2.981   6.969  0.00  0.00    +0.000 A 
ATOM     14  C   UNL     1       5.592   4.155   6.918  0.00  0.00    +0.000 A 
ATOM     15  C   UNL     1       4.871   4.472   5.765  0.00  0.00    +0.000 A 
ENDBRANCH   9  10
ENDBRANCH   6   9
ENDBRANCH   2   3
BRANCH   2  16
ATOM     16  N   UNL     1       0.985  -0.021  -0.309  0.00  0.00    +0.000 N 
ATOM     17  C   UNL     1       0.249  -1.153  -0.577  0.00  0.00    +0.000 C 
ATOM     18  O   UNL     1       0.738  -2.243  -0.792  0.00  0.00    +0.000 OA
ATOM     19  H   UNL     1       0.539   0.877  -0.445  0.00  0.00    +0.000 HD
BRANCH  17  20
ATOM     20  C   UNL     1      -1.212  -0.979  -0.553  0.00  0.00    +0.000 A 
ATOM     21  C   UNL     1      -2.025  -2.053  -0.214  0.00  0.00    +0.000 A 
ATOM     22  S   UNL     1      -3.690  -1.688  -0.280  0.00  0.00    +0.000 S 
ATOM     23  C   UNL     1      -3.375  -0.101  -0.808  0.00  0.00    +0.000 A 
ATOM     24  N   UNL     1      -4.387   0.752  -1.118  0.00  0.00    +0.000 NA
ATOM     25  C   UNL     1      -3.999   1.899  -1.562  0.00  0.00    +0.000 A 
ATOM     26  N   UNL     1      -2.687   2.282  -1.707  0.00  0.00    +0.000 N 
ATOM     27  C   UNL     1      -1.638   1.480  -1.340  0.00  0.00    +0.000 A 
ATOM     28  O   UNL     1      -0.473   1.884  -1.378  0.00  0.00    +0.000 OA
ATOM     29  C   UNL     1      -2.019   0.161  -0.888  0.00  0.00    +0.000 A 
ATOM     30  H   UNL     1      -2.453   3.207  -2.033  0.00  0.00    +0.000 HD
ENDBRANCH  17  20
ENDBRANCH   2  16
TORSDOF 5
