REMARK  Name = 
REMARK  7 active torsions:
REMARK  status: ('A' for Active; 'I' for Inactive)
REMARK    1  A    between atoms: C_2  and  C_19
REMARK    2  A    between atoms: N_3  and  C_4
REMARK    3  A    between atoms: C_4  and  C_5
REMARK    4  A    between atoms: C_8  and  C_9
REMARK    5  A    between atoms: C_9  and  O_10
REMARK    6  A    between atoms: O_10  and  C_11
REMARK    7  A    between atoms: C_11  and  C_12
REMARK                            x       y       z     vdW  Elec       q    Type
REMARK                         _______ _______ _______ _____ _____    ______ ____
ROOT
ATOM      1  C   UNL     1       2.228   1.402  -2.074  0.00  0.00    +0.000 C 
ENDROOT
BRANCH   1   2
ATOM      2  C   UNL     1       3.173   2.056  -3.049  0.00  0.00    +0.000 A 
ATOM      3  C   UNL     1       3.091   3.433  -3.286  0.00  0.00    +0.000 A 
ATOM      4  C   UNL     1       3.954   4.051  -4.191  0.00  0.00    +0.000 A 
ATOM      5  C   UNL     1       4.912   3.299  -4.882  0.00  0.00    +0.000 A 
ATOM      6  C   UNL     1       4.989   1.919  -4.654  0.00  0.00    +0.000 A 
ATOM      7  C   UNL     1       4.123   1.301  -3.751  0.00  0.00    +0.000 A 
BRANCH   5   8
ATOM      8  C   UNL     1       5.878   3.974  -5.823  0.00  0.00    +0.000 C 
BRANCH   8   9
ATOM      9  O   UNL     1       6.650   4.984  -5.168  0.00  0.00    +0.000 OA
BRANCH   9  10
ATOM     10  C   UNL     1       7.501   4.433  -4.154  0.00  0.00    +0.000 C 
BRANCH  10  11
ATOM     11  C   UNL     1       8.312   5.539  -3.578  0.00  0.00    +0.000 A 
ATOM     12  N   UNL     1       9.167   5.452  -2.578  0.00  0.00    +0.000 NA
ATOM     13  C   UNL     1       9.658   6.719  -2.400  0.00  0.00    +0.000 A 
ATOM     14  C   UNL     1       9.104   7.589  -3.309  0.00  0.00    +0.000 A 
ATOM     15  N   UNL     1       8.240   6.829  -4.043  0.00  0.00    +0.000 N 
ATOM     16  H   UNL     1       7.637   7.126  -4.799  0.00  0.00    +0.000 HD
ENDBRANCH  10  11
ENDBRANCH   9  10
ENDBRANCH   8   9
ENDBRANCH   5   8
ENDBRANCH   1   2
BRANCH   1  19
ATOM     17  O   UNL     1      -0.176   2.859  -2.348  0.00  0.00    +0.000 OA
ATOM     18  C   UNL     1      -0.080   1.752  -2.869  0.00  0.00    +0.000 C 
ATOM     19  N   UNL     1       1.027   0.955  -2.729  0.00  0.00    +0.000 N 
ATOM     20  H   UNL     1       1.134   0.156  -3.341  0.00  0.00    +0.000 HD
BRANCH  18  21
ATOM     21  C   UNL     1      -1.185   1.168  -3.635  0.00  0.00    +0.000 A 
ATOM     22  C   UNL     1      -2.494   1.551  -3.380  0.00  0.00    +0.000 A 
ATOM     23  S   UNL     1      -3.640   0.735  -4.346  0.00  0.00    +0.000 S 
ATOM     24  C   UNL     1      -2.420  -0.124  -5.168  0.00  0.00    +0.000 A 
ATOM     25  N   UNL     1      -2.725  -1.006  -6.157  0.00  0.00    +0.000 NA
ATOM     26  C   UNL     1      -1.697  -1.553  -6.717  0.00  0.00    +0.000 A 
ATOM     27  N   UNL     1      -0.395  -1.306  -6.378  0.00  0.00    +0.000 N 
ATOM     28  C   UNL     1      -0.040  -0.476  -5.338  0.00  0.00    +0.000 A 
ATOM     29  O   UNL     1       1.127  -0.379  -4.977  0.00  0.00    +0.000 OA
ATOM     30  C   UNL     1      -1.159   0.194  -4.698  0.00  0.00    +0.000 A 
ATOM     31  H   UNL     1       0.363  -1.786  -6.833  0.00  0.00    +0.000 HD
ENDBRANCH  18  21
ENDBRANCH   1  19
TORSDOF 7
