REMARK  Name = 
REMARK  5 active torsions:
REMARK  status: ('A' for Active; 'I' for Inactive)
REMARK    1  A    between atoms: C_2  and  C_4
REMARK    2  A    between atoms: C_7  and  O_8
REMARK    3  A    between atoms: O_8  and  C_9
REMARK    4  A    between atoms: C_9  and  C_10
REMARK    5  A    between atoms: C_14  and  C_15
REMARK                            x       y       z     vdW  Elec       q    Type
REMARK                         _______ _______ _______ _____ _____    ______ ____
ROOT
ATOM      1  C   UNL     1       4.864   2.771  -5.327  0.00  0.00    +0.000 C 
ENDROOT
BRANCH   1   2
ATOM      2  C   UNL     1       5.749   3.000  -6.523  0.00  0.00    +0.000 A 
ATOM      3  C   UNL     1       6.325   1.929  -7.193  0.00  0.00    +0.000 A 
ATOM      4  N   UNL     1       7.111   2.056  -8.283  0.00  0.00    +0.000 NA
ATOM      5  C   UNL     1       7.329   3.317  -8.728  0.00  0.00    +0.000 A 
ATOM      6  C   UNL     1       6.784   4.476  -8.168  0.00  0.00    +0.000 A 
ATOM      7  C   UNL     1       5.965   4.278  -7.049  0.00  0.00    +0.000 A 
BRANCH   6   8
ATOM      8  C   UNL     1       7.065   5.824  -8.702  0.00  0.00    +0.000 A 
ATOM      9  C   UNL     1       7.290   6.040 -10.075  0.00  0.00    +0.000 A 
ATOM     10  C   UNL     1       7.593   7.309 -10.575  0.00  0.00    +0.000 A 
ATOM     11  C   UNL     1       7.659   8.398  -9.715  0.00  0.00    +0.000 A 
ATOM     12  C   UNL     1       7.419   8.208  -8.361  0.00  0.00    +0.000 A 
ATOM     13  F   UNL     1       7.475   9.255  -7.529  0.00  0.00    +0.000 F 
ATOM     14  C   UNL     1       7.127   6.945  -7.855  0.00  0.00    +0.000 A 
ENDBRANCH   6   8
ENDBRANCH   1   2
BRANCH   1  15
ATOM     15  O   UNL     1       4.967   3.869  -4.408  0.00  0.00    +0.000 OA
BRANCH  15  19
ATOM     16  C   UNL     1       2.549   3.402  -1.113  0.00  0.00    +0.000 A 
ATOM     17  C   UNL     1       3.327   4.556  -1.235  0.00  0.00    +0.000 A 
ATOM     18  C   UNL     1       4.146   4.707  -2.356  0.00  0.00    +0.000 A 
ATOM     19  C   UNL     1       4.153   3.697  -3.310  0.00  0.00    +0.000 A 
ATOM     20  N   UNL     1       3.417   2.571  -3.210  0.00  0.00    +0.000 NA
ATOM     21  C   UNL     1       2.639   2.443  -2.110  0.00  0.00    +0.000 A 
BRANCH  16  23
ATOM     22  N   UNL     1       1.130   4.235   0.670  0.00  0.00    +0.000 N 
ATOM     23  C   UNL     1       1.653   3.146   0.032  0.00  0.00    +0.000 C 
ATOM     24  O   UNL     1       1.361   2.007   0.369  0.00  0.00    +0.000 OA
ATOM     25  H   UNL     1       0.438   4.047   1.385  0.00  0.00    +0.000 HD
ATOM     26  H   UNL     1       1.152   5.163   0.273  0.00  0.00    +0.000 HD
ENDBRANCH  16  23
ENDBRANCH  15  19
ENDBRANCH   1  15
TORSDOF 5
