REMARK  Name = 
REMARK  7 active torsions:
REMARK  status: ('A' for Active; 'I' for Inactive)
REMARK    1  A    between atoms: C_1  and  O_2
REMARK    2  A    between atoms: O_2  and  C_3
REMARK    3  A    between atoms: C_6  and  O_7
REMARK    4  A    between atoms: O_7  and  C_8
REMARK    5  A    between atoms: C_8  and  C_9
REMARK    6  A    between atoms: C_12  and  C_13
REMARK    7  A    between atoms: C_17  and  O_18
REMARK                            x       y       z     vdW  Elec       q    Type
REMARK                         _______ _______ _______ _____ _____    ______ ____
ROOT
ATOM      1  C   UNL     1       5.171   4.759  -5.537  0.00  0.00    +0.000 A 
ATOM      2  N   UNL     1       5.627   6.034  -5.381  0.00  0.00    +0.000 NA
ATOM      3  C   UNL     1       6.320   6.587  -6.406  0.00  0.00    +0.000 A 
ATOM      4  C   UNL     1       6.595   5.933  -7.596  0.00  0.00    +0.000 A 
ATOM      5  C   UNL     1       6.097   4.635  -7.752  0.00  0.00    +0.000 A 
ATOM      6  C   UNL     1       5.368   4.048  -6.721  0.00  0.00    +0.000 A 
ENDROOT
BRANCH   4   7
ATOM      7  C   UNL     1       7.375   6.538  -8.699  0.00  0.00    +0.000 C 
ATOM      8  N   UNL     1       7.871   7.806  -8.553  0.00  0.00    +0.000 N 
ATOM      9  O   UNL     1       7.591   5.920  -9.732  0.00  0.00    +0.000 OA
ATOM     10  H   UNL     1       7.784   8.390  -7.735  0.00  0.00    +0.000 HD
ATOM     11  H   UNL     1       8.419   8.168  -9.325  0.00  0.00    +0.000 HD
ENDBRANCH   4   7
BRANCH   6  12
ATOM     12  O   UNL     1       4.832   2.803  -6.879  0.00  0.00    +0.000 OA
ATOM     13  H   UNL     1       5.115   2.439  -7.736  0.00  0.00    +0.000 HD
ENDBRANCH   6  12
BRANCH   1  14
ATOM     14  C   UNL     1       4.387   4.185  -4.380  0.00  0.00    +0.000 C 
BRANCH  14  15
ATOM     15  O   UNL     1       5.016   3.020  -3.835  0.00  0.00    +0.000 OA
BRANCH  15  19
ATOM     16  C   UNL     1       3.306   1.187  -0.486  0.00  0.00    +0.000 A 
ATOM     17  C   UNL     1       2.679   2.302  -1.037  0.00  0.00    +0.000 A 
ATOM     18  C   UNL     1       3.219   2.938  -2.158  0.00  0.00    +0.000 A 
ATOM     19  C   UNL     1       4.396   2.467  -2.744  0.00  0.00    +0.000 A 
ATOM     20  C   UNL     1       5.020   1.345  -2.197  0.00  0.00    +0.000 A 
ATOM     21  C   UNL     1       4.477   0.709  -1.074  0.00  0.00    +0.000 A 
BRANCH  16  23
ATOM     22  C   UNL     1       1.696   1.006   1.245  0.00  0.00    +0.000 C 
ATOM     23  O   UNL     1       2.869   0.500   0.614  0.00  0.00    +0.000 OA
ENDBRANCH  16  23
ENDBRANCH  15  19
ENDBRANCH  14  15
ENDBRANCH   1  14
TORSDOF 6
