REMARK  Name = 
REMARK  4 active torsions:
REMARK  status: ('A' for Active; 'I' for Inactive)
REMARK    1  A    between atoms: C_2  and  C_4
REMARK    2  A    between atoms: C_7  and  C_8
REMARK    3  A    between atoms: C_8  and  N_9
REMARK    4  A    between atoms: C_14  and  C_15
REMARK                            x       y       z     vdW  Elec       q    Type
REMARK                         _______ _______ _______ _____ _____    ______ ____
ROOT
ATOM      1  N   UNL     1       6.471  -4.818  -1.152  0.00  0.00    +0.000 N 
ATOM      2  C   UNL     1       7.086  -6.048  -1.416  0.00  0.00    +0.000 A 
ATOM      3  C   UNL     1       8.262  -6.357  -0.742  0.00  0.00    +0.000 A 
ATOM      4  C   UNL     1       8.911  -7.558  -1.013  0.00  0.00    +0.000 A 
ATOM      5  C   UNL     1       8.357  -8.429  -1.942  0.00  0.00    +0.000 A 
ATOM      6  C   UNL     1       7.170  -8.076  -2.582  0.00  0.00    +0.000 A 
ATOM      7  N   UNL     1       6.557  -6.885  -2.332  0.00  0.00    +0.000 NA
ATOM      8  H   UNL     1       6.296  -4.718  -0.154  0.00  0.00    +0.000 HD
ENDROOT
BRANCH   6   9
ATOM      9  C   UNL     1       6.478  -8.983  -3.517  0.00  0.00    +0.000 A 
ATOM     10  C   UNL     1       5.323  -8.610  -4.205  0.00  0.00    +0.000 A 
ATOM     11  N   UNL     1       4.620  -9.449  -5.012  0.00  0.00    +0.000 NA
ATOM     12  C   UNL     1       5.119 -10.698  -5.110  0.00  0.00    +0.000 A 
ATOM     13  C   UNL     1       6.273 -11.085  -4.453  0.00  0.00    +0.000 A 
ATOM     14  N   UNL     1       6.974 -10.248  -3.653  0.00  0.00    +0.000 NA
ENDBRANCH   6   9
BRANCH   1  15
ATOM     15  C   UNL     1       5.236  -4.588  -1.913  0.00  0.00    +0.000 C 
BRANCH  15  19
ATOM     16  C   UNL     1       3.374  -0.940  -0.795  0.00  0.00    +0.000 A 
ATOM     17  C   UNL     1       3.808  -1.180  -2.078  0.00  0.00    +0.000 A 
ATOM     18  N   UNL     1       4.396  -2.333  -2.467  0.00  0.00    +0.000 NA
ATOM     19  C   UNL     1       4.580  -3.274  -1.512  0.00  0.00    +0.000 A 
ATOM     20  N   UNL     1       4.205  -3.126  -0.219  0.00  0.00    +0.000 NA
ATOM     21  C   UNL     1       3.612  -1.953   0.108  0.00  0.00    +0.000 A 
BRANCH  16  23
ATOM     22  N   UNL     1       2.052   1.032  -1.313  0.00  0.00    +0.000 N 
ATOM     23  C   UNL     1       2.724   0.306  -0.368  0.00  0.00    +0.000 C 
ATOM     24  O   UNL     1       2.756   0.665   0.801  0.00  0.00    +0.000 OA
ATOM     25  H   UNL     1       1.535   1.835  -0.973  0.00  0.00    +0.000 HD
ATOM     26  H   UNL     1       1.786   0.665  -2.217  0.00  0.00    +0.000 HD
ENDBRANCH  16  23
ENDBRANCH  15  19
ENDBRANCH   1  15
TORSDOF 4
