REMARK  Name = 
REMARK  6 active torsions:
REMARK  status: ('A' for Active; 'I' for Inactive)
REMARK    1  A    between atoms: C_2  and  C_4
REMARK    2  A    between atoms: C_7  and  O_8
REMARK    3  A    between atoms: O_8  and  C_9
REMARK    4  A    between atoms: C_9  and  C_10
REMARK    5  A    between atoms: C_14  and  O_15
REMARK    6  A    between atoms: O_15  and  C_16
REMARK                            x       y       z     vdW  Elec       q    Type
REMARK                         _______ _______ _______ _____ _____    ______ ____
ROOT
ATOM      1  C   UNL     1       5.031  -4.257  -3.984  0.00  0.00    +0.000 C 
ATOM      2  C   UNL     1       5.164  -3.621  -5.363  0.00  0.00    +0.000 C 
ATOM      3  C   UNL     1       3.822  -4.058  -4.875  0.00  0.00    +0.000 C 
ENDROOT
BRANCH   1   4
ATOM      4  C   UNL     1       5.615  -5.645  -3.774  0.00  0.00    +0.000 A 
ATOM      5  C   UNL     1       7.003  -5.855  -3.766  0.00  0.00    +0.000 A 
ATOM      6  C   UNL     1       7.546  -7.124  -3.544  0.00  0.00    +0.000 A 
ATOM      7  C   UNL     1       6.710  -8.216  -3.311  0.00  0.00    +0.000 A 
ATOM      8  C   UNL     1       5.332  -8.033  -3.265  0.00  0.00    +0.000 A 
ATOM      9  C   UNL     1       4.799  -6.765  -3.529  0.00  0.00    +0.000 A 
BRANCH   8  10
ATOM     10  O   UNL     1       4.410  -9.008  -3.031  0.00  0.00    +0.000 OA
BRANCH  10  11
ATOM     11  C   UNL     1       4.721 -10.031  -2.096  0.00  0.00    +0.000 C 
ATOM     12  F   UNL     1       5.860  -9.827  -1.401  0.00  0.00    +0.000 F 
ATOM     13  F   UNL     1       3.706 -10.126  -1.207  0.00  0.00    +0.000 F 
ATOM     14  F   UNL     1       4.817 -11.213  -2.746  0.00  0.00    +0.000 F 
ENDBRANCH  10  11
ENDBRANCH   8  10
ENDBRANCH   1   4
BRANCH   1  15
ATOM     15  O   UNL     1       5.294  -3.271  -2.958  0.00  0.00    +0.000 OA
BRANCH  15  19
ATOM     16  C   UNL     1       3.319  -3.456   0.648  0.00  0.00    +0.000 A 
ATOM     17  C   UNL     1       4.356  -2.544   0.462  0.00  0.00    +0.000 A 
ATOM     18  C   UNL     1       5.010  -2.509  -0.766  0.00  0.00    +0.000 A 
ATOM     19  C   UNL     1       4.609  -3.388  -1.763  0.00  0.00    +0.000 A 
ATOM     20  N   UNL     1       3.611  -4.284  -1.619  0.00  0.00    +0.000 NA
ATOM     21  C   UNL     1       2.998  -4.310  -0.405  0.00  0.00    +0.000 A 
BRANCH  16  23
ATOM     22  N   UNL     1       2.508  -2.453   2.710  0.00  0.00    +0.000 N 
ATOM     23  C   UNL     1       2.569  -3.562   1.916  0.00  0.00    +0.000 C 
ATOM     24  O   UNL     1       1.994  -4.595   2.228  0.00  0.00    +0.000 OA
ATOM     25  H   UNL     1       1.909  -2.516   3.525  0.00  0.00    +0.000 HD
ATOM     26  H   UNL     1       2.746  -1.529   2.380  0.00  0.00    +0.000 HD
ENDBRANCH  16  23
ENDBRANCH  15  19
ENDBRANCH   1  15
TORSDOF 6
