REMARK  Name = 
REMARK  5 active torsions:
REMARK  status: ('A' for Active; 'I' for Inactive)
REMARK    1  A    between atoms: N_1  and  C_2
REMARK    2  A    between atoms: C_2  and  C_3
REMARK    3  A    between atoms: C_5  and  C_6
REMARK    4  A    between atoms: C_6  and  N_7
REMARK    5  A    between atoms: C_12  and  C_13
REMARK                            x       y       z     vdW  Elec       q    Type
REMARK                         _______ _______ _______ _____ _____    ______ ____
ROOT
ATOM      1  N   UNL     1       1.558   3.417  -4.404  0.00  0.00    +0.000 N 
ATOM      2  C   UNL     1       1.089   4.382  -3.548  0.00  0.00    +0.000 A 
ATOM      3  C   UNL     1       1.511   5.605  -4.013  0.00  0.00    +0.000 A 
ATOM      4  C   UNL     1       2.277   5.378  -5.187  0.00  0.00    +0.000 A 
ATOM      5  C   UNL     1       2.952   6.233  -6.079  0.00  0.00    +0.000 A 
ATOM      6  C   UNL     1       3.652   5.696  -7.174  0.00  0.00    +0.000 A 
ATOM      7  C   UNL     1       3.655   4.309  -7.374  0.00  0.00    +0.000 A 
ATOM      8  C   UNL     1       2.982   3.441  -6.506  0.00  0.00    +0.000 A 
ATOM      9  C   UNL     1       2.301   3.999  -5.413  0.00  0.00    +0.000 A 
ENDROOT
BRANCH   6  10
ATOM     10  C   UNL     1       4.406   6.600  -8.118  0.00  0.00    +0.000 C 
ATOM     11  F   UNL     1       4.311   7.923  -7.805  0.00  0.00    +0.000 F 
ATOM     12  F   UNL     1       5.739   6.322  -8.149  0.00  0.00    +0.000 F 
ATOM     13  F   UNL     1       3.973   6.491  -9.405  0.00  0.00    +0.000 F 
ENDBRANCH   6  10
BRANCH   1  14
ATOM     14  C   UNL     1       1.224   2.006  -4.291  0.00  0.00    +0.000 C 
BRANCH  14  17
ATOM     15  C   UNL     1       2.893   0.324  -1.384  0.00  0.00    +0.000 C 
ATOM     16  C   UNL     1       2.408   1.601  -2.054  0.00  0.00    +0.000 C 
ATOM     17  C   UNL     1       2.235   1.182  -3.499  0.00  0.00    +0.000 C 
ATOM     18  C   UNL     1       1.781  -0.262  -3.351  0.00  0.00    +0.000 C 
ATOM     19  O   UNL     1       2.376  -0.780  -2.156  0.00  0.00    +0.000 OA
BRANCH  15  20
ATOM     20  C   UNL     1       2.477   0.187   0.089  0.00  0.00    +0.000 C 
BRANCH  20  21
ATOM     21  N   UNL     1       1.019   0.191   0.267  0.00  0.00    +0.000 NA
ATOM     22  H   UNL     1       0.799  -0.036   1.236  0.00  0.00    +0.000 HD
ATOM     23  H   UNL     1       0.639  -0.571  -0.298  0.00  0.00    +0.000 HD
ENDBRANCH  20  21
ENDBRANCH  15  20
ENDBRANCH  14  17
ENDBRANCH   1  14
TORSDOF 5
