REMARK  Name = 
REMARK  7 active torsions:
REMARK  status: ('A' for Active; 'I' for Inactive)
REMARK    1  A    between atoms: C_1  and  C_2
REMARK    2  A    between atoms: C_9  and  C_10
REMARK    3  A    between atoms: C_10  and  N_11
REMARK    4  A    between atoms: N_11  and  C_12
REMARK    5  A    between atoms: C_15  and  C_16
REMARK    6  A    between atoms: C_25  and  C_26
REMARK    7  A    between atoms: C_25  and  C_27
REMARK                            x       y       z     vdW  Elec       q    Type
REMARK                         _______ _______ _______ _____ _____    ______ ____
ROOT
ATOM      1  C   UNL     1       2.452   2.123   0.377  0.00  0.00    +0.000 C 
ATOM      2  C   UNL     1       3.422   1.099  -0.218  0.00  0.00    +0.000 C 
ATOM      3  C   UNL     1       3.611   1.292  -1.741  0.00  0.00    +0.000 C 
ATOM      4  N   UNL     1       2.522   0.656  -2.475  0.00  0.00    +0.000 N 
ATOM      5  C   UNL     1       1.724   1.388  -3.303  0.00  0.00    +0.000 A 
ATOM      6  N   UNL     1       0.637   0.857  -3.876  0.00  0.00    +0.000 NA
ATOM      7  C   UNL     1      -0.018   1.621  -4.770  0.00  0.00    +0.000 A 
ATOM      8  C   UNL     1       0.399   2.873  -5.154  0.00  0.00    +0.000 A 
ATOM      9  C   UNL     1       1.535   3.342  -4.534  0.00  0.00    +0.000 A 
ATOM     10  N   UNL     1       2.132   2.626  -3.569  0.00  0.00    +0.000 NA
ATOM     11  C   UNL     1       2.272  -0.743  -2.193  0.00  0.00    +0.000 C 
ATOM     12  C   UNL     1       2.054  -0.950  -0.664  0.00  0.00    +0.000 C 
ATOM     13  C   UNL     1       0.642  -0.485  -0.267  0.00  0.00    +0.000 C 
ATOM     14  C   UNL     1       2.150  -2.460  -0.368  0.00  0.00    +0.000 C 
ATOM     15  N   UNL     1       3.100  -0.294   0.181  0.00  0.00    +0.000 NA
ATOM     16  H   UNL     1       3.961  -0.829   0.051  0.00  0.00    +0.000 HD
ENDROOT
BRANCH   9  17
ATOM     17  C   UNL     1       2.267   4.612  -4.961  0.00  0.00    +0.000 C 
ATOM     18  C   UNL     1       3.149   4.481  -6.186  0.00  0.00    +0.000 C 
ATOM     19  C   UNL     1       3.804   4.596  -4.852  0.00  0.00    +0.000 C 
BRANCH  17  20
ATOM     20  N   UNL     1       1.732   5.852  -4.386  0.00  0.00    +0.000 N 
ATOM     21  H   UNL     1       1.711   5.837  -3.368  0.00  0.00    +0.000 HD
BRANCH  20  22
ATOM     22  C   UNL     1       0.714   6.658  -4.915  0.00  0.00    +0.000 A 
ATOM     23  C   UNL     1       0.217   6.554  -6.221  0.00  0.00    +0.000 A 
ATOM     24  C   UNL     1      -0.741   7.464  -6.695  0.00  0.00    +0.000 A 
ATOM     25  C   UNL     1      -1.203   8.497  -5.869  0.00  0.00    +0.000 A 
ATOM     26  C   UNL     1      -0.678   8.638  -4.584  0.00  0.00    +0.000 A 
ATOM     27  C   UNL     1       0.277   7.728  -4.119  0.00  0.00    +0.000 A 
BRANCH  25  28
ATOM     28  C   UNL     1      -2.208   9.454  -6.400  0.00  0.00    +0.000 C 
ATOM     29  N   UNL     1      -2.950  10.156  -5.491  0.00  0.00    +0.000 N 
ATOM     30  O   UNL     1      -2.387   9.597  -7.602  0.00  0.00    +0.000 OA
ATOM     31  H   UNL     1      -2.995   9.923  -4.510  0.00  0.00    +0.000 HD
ATOM     32  H   UNL     1      -3.674  10.759  -5.864  0.00  0.00    +0.000 HD
ENDBRANCH  25  28
ENDBRANCH  20  22
ENDBRANCH  17  20
ENDBRANCH   9  17
TORSDOF 4
