REMARK  Name = 
REMARK  5 active torsions:
REMARK  status: ('A' for Active; 'I' for Inactive)
REMARK    1  A    between atoms: C_2  and  C_3
REMARK    2  A    between atoms: C_6  and  N_7
REMARK    3  A    between atoms: N_7  and  C_8
REMARK    4  A    between atoms: C_8  and  C_9
REMARK    5  A    between atoms: C_13  and  C_14
REMARK                            x       y       z     vdW  Elec       q    Type
REMARK                         _______ _______ _______ _____ _____    ______ ____
ROOT
ATOM      1  C   UNL     1       4.528  -1.097   0.222  0.00  0.00    +0.000 C 
ATOM      2  C   UNL     1       4.804  -2.184  -0.821  0.00  0.00    +0.000 C 
ATOM      3  C   UNL     1       4.258  -2.565   0.509  0.00  0.00    +0.000 C 
ENDROOT
BRANCH   1   4
ATOM      4  C   UNL     1       5.681  -0.516   1.031  0.00  0.00    +0.000 A 
ATOM      5  C   UNL     1       5.553  -0.298   2.412  0.00  0.00    +0.000 A 
ATOM      6  C   UNL     1       6.660  -0.025   3.210  0.00  0.00    +0.000 A 
ATOM      7  C   UNL     1       7.927   0.039   2.636  0.00  0.00    +0.000 A 
ATOM      8  C   UNL     1       8.101  -0.112   1.252  0.00  0.00    +0.000 A 
ATOM      9  C   UNL     1       6.957  -0.339   0.467  0.00  0.00    +0.000 A 
BRANCH   8  10
ATOM     10  C   UNL     1       9.441  -0.148   0.641  0.00  0.00    +0.000 A 
ATOM     11  C   UNL     1       9.721   0.444  -0.597  0.00  0.00    +0.000 A 
ATOM     12  C   UNL     1      10.991   0.317  -1.161  0.00  0.00    +0.000 A 
ATOM     13  C   UNL     1      11.953  -0.394  -0.469  0.00  0.00    +0.000 A 
ATOM     14  F   UNL     1      13.173  -0.517  -1.012  0.00  0.00    +0.000 F 
ATOM     15  N   UNL     1      11.743  -0.973   0.728  0.00  0.00    +0.000 NA
ATOM     16  C   UNL     1      10.497  -0.842   1.243  0.00  0.00    +0.000 A 
ENDBRANCH   8  10
ENDBRANCH   1   4
BRANCH   1  17
ATOM     17  N   UNL     1       3.523  -0.129  -0.232  0.00  0.00    +0.000 N 
ATOM     18  H   UNL     1       3.857   0.595  -0.861  0.00  0.00    +0.000 HD
BRANCH  17  22
ATOM     19  C   UNL     1      -0.189   0.915   1.505  0.00  0.00    +0.000 A 
ATOM     20  C   UNL     1       0.675   0.063   2.194  0.00  0.00    +0.000 A 
ATOM     21  C   UNL     1       1.908  -0.305   1.635  0.00  0.00    +0.000 A 
ATOM     22  C   UNL     1       2.325   0.220   0.412  0.00  0.00    +0.000 A 
ATOM     23  C   UNL     1       1.436   1.061  -0.280  0.00  0.00    +0.000 A 
ATOM     24  C   UNL     1       0.192   1.409   0.256  0.00  0.00    +0.000 A 
BRANCH  19  26
ATOM     25  N   UNL     1      -2.480   1.563   2.520  0.00  0.00    +0.000 NA
ATOM     26  C   UNL     1      -1.455   1.275   2.068  0.00  0.00    +0.000 C 
ENDBRANCH  19  26
ENDBRANCH  17  22
ENDBRANCH   1  17
TORSDOF 5
