REMARK  Name = 
REMARK  4 active torsions:
REMARK  status: ('A' for Active; 'I' for Inactive)
REMARK    1  A    between atoms: C_1  and  N_2
REMARK    2  A    between atoms: C_4  and  N_5
REMARK    3  A    between atoms: C_4  and  C_15
REMARK    4  A    between atoms: C_9  and  C_10
REMARK                            x       y       z     vdW  Elec       q    Type
REMARK                         _______ _______ _______ _____ _____    ______ ____
ROOT
ATOM      1  N   UNL     1       4.604  -0.036   2.527  0.00  0.00    +0.000 N 
ATOM      2  C   UNL     1       5.283   1.016   3.157  0.00  0.00    +0.000 A 
ATOM      3  N   UNL     1       4.985   2.286   2.839  0.00  0.00    +0.000 NA
ATOM      4  C   UNL     1       5.666   3.262   3.479  0.00  0.00    +0.000 A 
ATOM      5  C   UNL     1       6.632   3.020   4.428  0.00  0.00    +0.000 A 
ATOM      6  C   UNL     1       6.896   1.688   4.656  0.00  0.00    +0.000 A 
ATOM      7  N   UNL     1       6.234   0.677   4.044  0.00  0.00    +0.000 NA
ATOM      8  H   UNL     1       5.202  -0.854   2.645  0.00  0.00    +0.000 HD
ENDROOT
BRANCH   1  12
ATOM      9  C   UNL     1       0.804   0.356   0.292  0.00  0.00    +0.000 C 
ATOM     10  N   UNL     1       2.243   0.263   0.156  0.00  0.00    +0.000 NA
ATOM     11  C   UNL     1       2.797  -0.835   0.990  0.00  0.00    +0.000 C 
ATOM     12  C   UNL     1       4.083   0.066   1.161  0.00  0.00    +0.000 C 
ATOM     13  C   UNL     1       2.996   1.214   1.015  0.00  0.00    +0.000 C 
BRANCH  12  14
ATOM     14  C   UNL     1       5.261  -0.001   0.153  0.00  0.00    +0.000 C 
ATOM     15  C   UNL     1       4.979   0.361  -1.302  0.00  0.00    +0.000 C 
ATOM     16  C   UNL     1       4.285  -0.739  -2.086  0.00  0.00    +0.000 C 
ATOM     17  C   UNL     1       4.923  -2.097  -1.851  0.00  0.00    +0.000 C 
ATOM     18  C   UNL     1       5.368  -2.359  -0.416  0.00  0.00    +0.000 C 
ATOM     19  O   UNL     1       5.975  -1.251   0.240  0.00  0.00    +0.000 OA
ENDBRANCH  12  14
ENDBRANCH   1  12
BRANCH   5  20
ATOM     20  C   UNL     1       7.313   4.138   5.091  0.00  0.00    +0.000 C 
ATOM     21  N   UNL     1       7.905   3.908   6.302  0.00  0.00    +0.000 N 
ATOM     22  O   UNL     1       7.318   5.258   4.592  0.00  0.00    +0.000 OA
ATOM     23  H   UNL     1       7.728   3.090   6.866  0.00  0.00    +0.000 HD
ATOM     24  H   UNL     1       8.266   4.725   6.781  0.00  0.00    +0.000 HD
ENDBRANCH   5  20
TORSDOF 3
