REMARK  Name = 
REMARK  6 active torsions:
REMARK  status: ('A' for Active; 'I' for Inactive)
REMARK    1  A    between atoms: C_1  and  O_2
REMARK    2  A    between atoms: O_2  and  C_3
REMARK    3  A    between atoms: N_11  and  C_12
REMARK    4  A    between atoms: C_12  and  C_13
REMARK    5  A    between atoms: C_16  and  C_17
REMARK    6  A    between atoms: C_17  and  N_18
REMARK                            x       y       z     vdW  Elec       q    Type
REMARK                         _______ _______ _______ _____ _____    ______ ____
ROOT
ATOM      1  C   UNL     1       2.977   0.404   1.122  0.00  0.00    +0.000 A 
ATOM      2  C   UNL     1       2.540   0.010   2.395  0.00  0.00    +0.000 A 
ATOM      3  C   UNL     1       3.166   0.484   3.548  0.00  0.00    +0.000 A 
ATOM      4  C   UNL     1       4.276   1.329   3.470  0.00  0.00    +0.000 A 
ATOM      5  C   UNL     1       4.761   1.671   2.199  0.00  0.00    +0.000 A 
ATOM      6  C   UNL     1       4.116   1.241   1.027  0.00  0.00    +0.000 A 
ATOM      7  C   UNL     1       4.828   1.805  -0.068  0.00  0.00    +0.000 A 
ATOM      8  C   UNL     1       5.889   2.519   0.436  0.00  0.00    +0.000 A 
ATOM      9  N   UNL     1       5.866   2.411   1.806  0.00  0.00    +0.000 N 
ENDROOT
BRANCH   1  11
ATOM     10  C   UNL     1       1.008  -0.334   0.040  0.00  0.00    +0.000 C 
ATOM     11  O   UNL     1       2.391  -0.027  -0.049  0.00  0.00    +0.000 OA
ENDBRANCH   1  11
BRANCH   9  12
ATOM     12  C   UNL     1       6.949   2.882   2.672  0.00  0.00    +0.000 C 
BRANCH  12  13
ATOM     13  C   UNL     1       6.760   4.319   3.088  0.00  0.00    +0.000 A 
ATOM     14  C   UNL     1       6.126   4.633   4.295  0.00  0.00    +0.000 A 
ATOM     15  C   UNL     1       5.800   5.955   4.604  0.00  0.00    +0.000 A 
ATOM     16  C   UNL     1       6.110   6.998   3.719  0.00  0.00    +0.000 A 
ATOM     17  C   UNL     1       6.824   6.691   2.553  0.00  0.00    +0.000 A 
ATOM     18  C   UNL     1       7.154   5.368   2.245  0.00  0.00    +0.000 A 
BRANCH  16  19
ATOM     19  C   UNL     1       5.529   8.372   3.967  0.00  0.00    +0.000 C 
BRANCH  19  20
ATOM     20  N   UNL     1       6.365   9.461   3.467  0.00  0.00    +0.000 NA
ATOM     21  H   UNL     1       7.249   9.455   3.974  0.00  0.00    +0.000 HD
ATOM     22  H   UNL     1       5.914  10.345   3.700  0.00  0.00    +0.000 HD
ENDBRANCH  19  20
ENDBRANCH  16  19
ENDBRANCH  12  13
ENDBRANCH   9  12
TORSDOF 5
