REMARK  Name = 
REMARK  4 active torsions:
REMARK  status: ('A' for Active; 'I' for Inactive)
REMARK    1  A    between atoms: C_5  and  N_6
REMARK    2  A    between atoms: N_6  and  C_7
REMARK    3  A    between atoms: C_7  and  C_8
REMARK    4  A    between atoms: C_12  and  C_13
REMARK                            x       y       z     vdW  Elec       q    Type
REMARK                         _______ _______ _______ _____ _____    ______ ____
ROOT
ATOM      1  C   UNL     1       3.483  -3.792  -0.030  0.00  0.00    +0.000 A 
ATOM      2  C   UNL     1       4.838  -3.988   0.271  0.00  0.00    +0.000 A 
ATOM      3  C   UNL     1       5.349  -5.276   0.417  0.00  0.00    +0.000 A 
ATOM      4  C   UNL     1       4.512  -6.380   0.263  0.00  0.00    +0.000 A 
ATOM      5  C   UNL     1       3.155  -6.215  -0.052  0.00  0.00    +0.000 A 
ATOM      6  C   UNL     1       2.658  -4.913  -0.222  0.00  0.00    +0.000 A 
ENDROOT
BRANCH   5   7
ATOM      7  C   UNL     1       2.214  -7.403  -0.142  0.00  0.00    +0.000 C 
ATOM      8  C   UNL     1       2.103  -8.126   1.211  0.00  0.00    +0.000 C 
ATOM      9  C   UNL     1       1.233  -9.368   1.091  0.00  0.00    +0.000 C 
ATOM     10  O   UNL     1       1.720 -10.230   0.064  0.00  0.00    +0.000 OA
ATOM     11  C   UNL     1       1.692  -9.608  -1.220  0.00  0.00    +0.000 C 
ATOM     12  C   UNL     1       2.608  -8.391  -1.248  0.00  0.00    +0.000 C 
ENDBRANCH   5   7
BRANCH   1  13
ATOM     13  C   UNL     1       2.911  -2.396  -0.094  0.00  0.00    +0.000 C 
BRANCH  13  14
ATOM     14  N   UNL     1       3.123  -1.809  -1.405  0.00  0.00    +0.000 N 
ATOM     15  H   UNL     1       2.965  -2.457  -2.175  0.00  0.00    +0.000 HD
BRANCH  14  20
ATOM     16  C   UNL     1       1.904   1.694  -1.016  0.00  0.00    +0.000 A 
ATOM     17  C   UNL     1       2.052   2.107  -2.325  0.00  0.00    +0.000 A 
ATOM     18  N   UNL     1       2.494   1.301  -3.310  0.00  0.00    +0.000 NA
ATOM     19  C   UNL     1       2.804   0.029  -2.955  0.00  0.00    +0.000 A 
ATOM     20  C   UNL     1       2.677  -0.513  -1.670  0.00  0.00    +0.000 A 
ATOM     21  C   UNL     1       2.230   0.378  -0.691  0.00  0.00    +0.000 A 
ENDBRANCH  14  20
ENDBRANCH  13  14
ENDBRANCH   1  13
TORSDOF 4
