REMARK  Name = 
REMARK  9 active torsions:
REMARK  status: ('A' for Active; 'I' for Inactive)
REMARK    1  A    between atoms: C_1  and  O_2
REMARK    2  A    between atoms: O_2  and  C_3
REMARK    3  A    between atoms: C_7  and  C_8
REMARK    4  A    between atoms: C_12  and  C_13
REMARK    5  A    between atoms: C_13  and  O_14
REMARK    6  A    between atoms: O_14  and  C_15
REMARK    7  A    between atoms: C_18  and  C_19
REMARK    8  A    between atoms: C_23  and  O_24
REMARK    9  A    between atoms: O_24  and  C_25
REMARK                            x       y       z     vdW  Elec       q    Type
REMARK                         _______ _______ _______ _____ _____    ______ ____
ROOT
ATOM      1  C   UNL     1       7.620  -4.806   1.910  0.00  0.00    +0.000 C 
ENDROOT
BRANCH   1   6
ATOM      2  C   UNL     1       6.191  -2.699  -0.952  0.00  0.00    +0.000 A 
ATOM      3  C   UNL     1       7.391  -2.314  -1.575  0.00  0.00    +0.000 A 
ATOM      4  C   UNL     1       8.633  -2.766  -1.125  0.00  0.00    +0.000 A 
ATOM      5  C   UNL     1       8.707  -3.595  -0.012  0.00  0.00    +0.000 A 
ATOM      6  C   UNL     1       7.540  -3.985   0.651  0.00  0.00    +0.000 A 
ATOM      7  C   UNL     1       6.292  -3.572   0.148  0.00  0.00    +0.000 A 
BRANCH   2  12
ATOM      8  C   UNL     1       2.698  -1.179  -0.826  0.00  0.00    +0.000 A 
ATOM      9  C   UNL     1       2.521  -0.784  -2.150  0.00  0.00    +0.000 A 
ATOM     10  C   UNL     1       3.496  -1.085  -3.098  0.00  0.00    +0.000 A 
ATOM     11  C   UNL     1       4.660  -1.760  -2.722  0.00  0.00    +0.000 A 
ATOM     12  C   UNL     1       4.892  -2.130  -1.385  0.00  0.00    +0.000 A 
ATOM     13  C   UNL     1       3.870  -1.851  -0.459  0.00  0.00    +0.000 A 
BRANCH   8  15
ATOM     14  C   UNL     1       0.702  -0.131  -0.089  0.00  0.00    +0.000 C 
ATOM     15  O   UNL     1       1.820  -0.957   0.200  0.00  0.00    +0.000 OA
ENDBRANCH   8  15
ENDBRANCH   2  12
ENDBRANCH   1   6
BRANCH   1  16
ATOM     16  O   UNL     1       7.666  -6.185   1.564  0.00  0.00    +0.000 OA
BRANCH  16  17
ATOM     17  C   UNL     1       7.608  -7.090   2.589  0.00  0.00    +0.000 A 
ATOM     18  C   UNL     1       7.675  -6.730   3.941  0.00  0.00    +0.000 A 
ATOM     19  C   UNL     1       7.537  -7.691   4.947  0.00  0.00    +0.000 A 
ATOM     20  C   UNL     1       7.325  -9.034   4.623  0.00  0.00    +0.000 A 
ATOM     21  C   UNL     1       7.285  -9.403   3.276  0.00  0.00    +0.000 A 
ATOM     22  C   UNL     1       7.449  -8.447   2.260  0.00  0.00    +0.000 A 
BRANCH  20  23
ATOM     23  C   UNL     1       7.147  -9.995   5.747  0.00  0.00    +0.000 C 
ATOM     24  N   UNL     1       6.922 -11.310   5.457  0.00  0.00    +0.000 N 
ATOM     25  O   UNL     1       7.191  -9.626   6.916  0.00  0.00    +0.000 OA
ATOM     26  H   UNL     1       6.845 -11.701   4.533  0.00  0.00    +0.000 HD
ATOM     27  H   UNL     1       6.784 -11.931   6.246  0.00  0.00    +0.000 HD
ENDBRANCH  20  23
BRANCH  22  28
ATOM     28  O   UNL     1       7.372  -8.987   1.000  0.00  0.00    +0.000 OA
ATOM     29  C   UNL     1       8.130  -8.345  -0.020  0.00  0.00    +0.000 C 
ENDBRANCH  22  28
ENDBRANCH  16  17
ENDBRANCH   1  16
TORSDOF 7
