REMARK  Name = 
REMARK  7 active torsions:
REMARK  status: ('A' for Active; 'I' for Inactive)
REMARK    1  A    between atoms: C_1  and  C_2
REMARK    2  A    between atoms: C_2  and  C_3
REMARK    3  A    between atoms: C_7  and  C_8
REMARK    4  A    between atoms: C_8  and  C_9
REMARK    5  A    between atoms: C_9  and  N_10
REMARK    6  A    between atoms: N_10  and  C_11
REMARK    7  A    between atoms: C_14  and  C_15
REMARK                            x       y       z     vdW  Elec       q    Type
REMARK                         _______ _______ _______ _____ _____    ______ ____
ROOT
ATOM      1  C   UNL     1       4.375   2.631  -3.923  0.00  0.00    +0.000 C 
ENDROOT
BRANCH   1   6
ATOM      2  C   UNL     1       2.979   0.029  -1.485  0.00  0.00    +0.000 A 
ATOM      3  C   UNL     1       2.654  -1.000  -2.390  0.00  0.00    +0.000 A 
ATOM      4  C   UNL     1       2.923  -0.883  -3.756  0.00  0.00    +0.000 A 
ATOM      5  C   UNL     1       3.517   0.272  -4.254  0.00  0.00    +0.000 A 
ATOM      6  C   UNL     1       3.856   1.315  -3.388  0.00  0.00    +0.000 A 
ATOM      7  C   UNL     1       3.594   1.178  -2.013  0.00  0.00    +0.000 A 
BRANCH   2   9
ATOM      8  C   UNL     1       1.029  -0.131   0.072  0.00  0.00    +0.000 C 
ATOM      9  C   UNL     1       2.566  -0.104  -0.009  0.00  0.00    +0.000 C 
ATOM     10  C   UNL     1       3.188  -1.341   0.670  0.00  0.00    +0.000 C 
ATOM     11  C   UNL     1       4.404  -0.829   1.441  0.00  0.00    +0.000 C 
ATOM     12  C   UNL     1       4.410   0.672   1.235  0.00  0.00    +0.000 C 
ATOM     13  N   UNL     1       3.032   0.974   0.880  0.00  0.00    +0.000 NA
ATOM     14  H   UNL     1       2.914   1.894   0.471  0.00  0.00    +0.000 HD
ENDBRANCH   2   9
ENDBRANCH   1   6
BRANCH   1  15
ATOM     15  C   UNL     1       3.200   3.595  -4.133  0.00  0.00    +0.000 C 
BRANCH  15  16
ATOM     16  N   UNL     1       3.646   4.906  -4.620  0.00  0.00    +0.000 N 
ATOM     17  H   UNL     1       4.291   4.828  -5.405  0.00  0.00    +0.000 HD
BRANCH  16  18
ATOM     18  C   UNL     1       2.616   5.826  -4.900  0.00  0.00    +0.000 A 
ATOM     19  C   UNL     1       2.803   6.797  -5.890  0.00  0.00    +0.000 A 
ATOM     20  C   UNL     1       1.797   7.725  -6.170  0.00  0.00    +0.000 A 
ATOM     21  C   UNL     1       0.629   7.680  -5.418  0.00  0.00    +0.000 A 
ATOM     22  N   UNL     1       0.422   6.803  -4.406  0.00  0.00    +0.000 NA
ATOM     23  C   UNL     1       1.427   5.923  -4.166  0.00  0.00    +0.000 A 
BRANCH  21  24
ATOM     24  C   UNL     1      -0.492   8.627  -5.714  0.00  0.00    +0.000 C 
ATOM     25  N   UNL     1      -1.604   8.478  -4.929  0.00  0.00    +0.000 N 
ATOM     26  O   UNL     1      -0.436   9.464  -6.604  0.00  0.00    +0.000 OA
ATOM     27  H   UNL     1      -1.614   7.764  -4.208  0.00  0.00    +0.000 HD
ATOM     28  H   UNL     1      -2.408   9.068  -5.083  0.00  0.00    +0.000 HD
ENDBRANCH  21  24
ENDBRANCH  16  18
ENDBRANCH  15  16
ENDBRANCH   1  15
TORSDOF 6
