REMARK  Name = 
REMARK  7 active torsions:
REMARK  status: ('A' for Active; 'I' for Inactive)
REMARK    1  A    between atoms: C_1  and  N_2
REMARK    2  A    between atoms: N_2  and  C_3
REMARK    3  A    between atoms: C_3  and  C_4
REMARK    4  A    between atoms: C_7  and  C_8
REMARK    5  A    between atoms: C_15  and  C_16
REMARK    6  A    between atoms: C_19  and  O_20
REMARK    7  A    between atoms: O_20  and  C_21
REMARK                            x       y       z     vdW  Elec       q    Type
REMARK                         _______ _______ _______ _____ _____    ______ ____
ROOT
ATOM      1  C   UNL     1       3.012  -1.315   0.058  0.00  0.00    +0.000 C 
ATOM      2  C   UNL     1       3.839  -1.618  -1.215  0.00  0.00    +0.000 C 
ATOM      3  C   UNL     1       3.997  -3.138  -1.305  0.00  0.00    +0.000 C 
ATOM      4  C   UNL     1       3.145  -3.768  -0.182  0.00  0.00    +0.000 C 
ATOM      5  C   UNL     1       2.179  -2.614   0.188  0.00  0.00    +0.000 C 
ENDROOT
BRANCH   1   6
ATOM      6  C   UNL     1       3.851  -1.116   1.344  0.00  0.00    +0.000 A 
ATOM      7  C   UNL     1       3.231  -0.769   2.559  0.00  0.00    +0.000 A 
ATOM      8  C   UNL     1       3.984  -0.497   3.703  0.00  0.00    +0.000 A 
ATOM      9  C   UNL     1       5.361  -0.602   3.611  0.00  0.00    +0.000 A 
ATOM     10  N   UNL     1       6.012  -0.985   2.481  0.00  0.00    +0.000 NA
ATOM     11  C   UNL     1       5.242  -1.235   1.392  0.00  0.00    +0.000 A 
BRANCH   9  12
ATOM     12  C   UNL     1       6.217  -0.244   4.786  0.00  0.00    +0.000 C 
ATOM     13  N   UNL     1       7.566  -0.349   4.576  0.00  0.00    +0.000 N 
ATOM     14  O   UNL     1       5.754   0.139   5.853  0.00  0.00    +0.000 OA
ATOM     15  H   UNL     1       7.900  -0.642   3.665  0.00  0.00    +0.000 HD
ATOM     16  H   UNL     1       8.210  -0.075   5.303  0.00  0.00    +0.000 HD
ENDBRANCH   9  12
ENDBRANCH   1   6
BRANCH   4  17
ATOM     17  C   UNL     1       3.931  -4.430   0.943  0.00  0.00    +0.000 A 
ATOM     18  C   UNL     1       3.401  -4.549   2.238  0.00  0.00    +0.000 A 
ATOM     19  C   UNL     1       4.081  -5.240   3.251  0.00  0.00    +0.000 A 
ATOM     20  C   UNL     1       5.283  -5.881   2.977  0.00  0.00    +0.000 A 
ATOM     21  C   UNL     1       5.840  -5.752   1.709  0.00  0.00    +0.000 A 
ATOM     22  C   UNL     1       5.163  -5.060   0.701  0.00  0.00    +0.000 A 
BRANCH  20  23
ATOM     23  O   UNL     1       6.012  -6.625   3.852  0.00  0.00    +0.000 OA
BRANCH  23  24
ATOM     24  C   UNL     1       5.328  -7.387   4.837  0.00  0.00    +0.000 C 
ATOM     25  F   UNL     1       3.991  -7.453   4.665  0.00  0.00    +0.000 F 
ATOM     26  F   UNL     1       5.805  -8.653   4.806  0.00  0.00    +0.000 F 
ATOM     27  F   UNL     1       5.585  -6.872   6.059  0.00  0.00    +0.000 F 
ENDBRANCH  23  24
ENDBRANCH  20  23
ENDBRANCH   4  17
BRANCH   1  29
ATOM     28  C   UNL     1       1.326   0.017  -1.267  0.00  0.00    +0.000 C 
ATOM     29  N   UNL     1       2.207  -0.084  -0.115  0.00  0.00    +0.000 NA
ATOM     30  H   UNL     1       1.647   0.078   0.718  0.00  0.00    +0.000 HD
ENDBRANCH   1  29
TORSDOF 6
