REMARK  Name = 
REMARK  9 active torsions:
REMARK  status: ('A' for Active; 'I' for Inactive)
REMARK    1  A    between atoms: C_1  and  C_2
REMARK    2  A    between atoms: C_2  and  C_3
REMARK    3  A    between atoms: C_3  and  N_4
REMARK    4  A    between atoms: C_3  and  C_26
REMARK    5  A    between atoms: N_4  and  C_5
REMARK    6  A    between atoms: C_5  and  C_6
REMARK    7  A    between atoms: C_9  and  C_10
REMARK    8  A    between atoms: C_10  and  N_11
REMARK    9  A    between atoms: C_12  and  C_14
REMARK                            x       y       z     vdW  Elec       q    Type
REMARK                         _______ _______ _______ _____ _____    ______ ____
ROOT
ATOM      1  C   UNL     1       1.140   1.775  -1.097  0.00  0.00    +0.000 A 
ATOM      2  C   UNL     1       1.116   2.815  -0.167  0.00  0.00    +0.000 A 
ATOM      3  C   UNL     1      -0.071   3.513   0.058  0.00  0.00    +0.000 A 
ATOM      4  C   UNL     1      -1.214   3.145  -0.649  0.00  0.00    +0.000 A 
ATOM      5  N   UNL     1      -1.206   2.161  -1.582  0.00  0.00    +0.000 NA
ATOM      6  C   UNL     1      -0.040   1.504  -1.782  0.00  0.00    +0.000 A 
ENDROOT
BRANCH   1   7
ATOM      7  C   UNL     1       2.376   0.948  -1.332  0.00  0.00    +0.000 C 
BRANCH   7   8
ATOM      8  N   UNL     1       2.843   1.080  -2.708  0.00  0.00    +0.000 NA
ATOM      9  H   UNL     1       2.968   2.075  -2.909  0.00  0.00    +0.000 HD
BRANCH   8  10
ATOM     10  C   UNL     1       4.149   0.431  -2.963  0.00  0.00    +0.000 C 
BRANCH  10  11
ATOM     11  C   UNL     1       4.550   0.662  -4.424  0.00  0.00    +0.000 A 
ATOM     12  C   UNL     1       3.694   0.291  -5.466  0.00  0.00    +0.000 A 
ATOM     13  C   UNL     1       4.080   0.532  -6.781  0.00  0.00    +0.000 A 
ATOM     14  C   UNL     1       5.308   1.132  -7.026  0.00  0.00    +0.000 A 
ATOM     15  C   UNL     1       6.101   1.465  -5.941  0.00  0.00    +0.000 A 
ATOM     16  N   UNL     1       5.752   1.250  -4.653  0.00  0.00    +0.000 NA
ENDBRANCH  10  11
BRANCH  10  18
ATOM     17  C   UNL     1       5.579  -1.675  -2.694  0.00  0.00    +0.000 C 
ATOM     18  C   UNL     1       4.176  -1.079  -2.625  0.00  0.00    +0.000 C 
ENDBRANCH  10  18
ENDBRANCH   8  10
ENDBRANCH   7   8
ENDBRANCH   1   7
BRANCH   4  19
ATOM     19  C   UNL     1      -2.516   3.877  -0.424  0.00  0.00    +0.000 C 
BRANCH  19  20
ATOM     20  N   UNL     1      -2.636   5.013  -1.310  0.00  0.00    +0.000 N 
ATOM     21  C   UNL     1      -3.282   6.159  -0.932  0.00  0.00    +0.000 C 
ATOM     22  O   UNL     1      -3.737   6.307   0.199  0.00  0.00    +0.000 OA
ATOM     23  H   UNL     1      -2.473   4.821  -2.295  0.00  0.00    +0.000 HD
BRANCH  21  24
ATOM     24  C   UNL     1      -3.338   7.242  -1.921  0.00  0.00    +0.000 A 
ATOM     25  C   UNL     1      -3.501   8.552  -1.489  0.00  0.00    +0.000 A 
ATOM     26  S   UNL     1      -3.498   9.696  -2.752  0.00  0.00    +0.000 S 
ATOM     27  C   UNL     1      -3.332   8.478  -3.928  0.00  0.00    +0.000 A 
ATOM     28  N   UNL     1      -3.292   8.786  -5.252  0.00  0.00    +0.000 NA
ATOM     29  C   UNL     1      -3.194   7.763  -6.034  0.00  0.00    +0.000 A 
ATOM     30  N   UNL     1      -3.126   6.462  -5.611  0.00  0.00    +0.000 N 
ATOM     31  C   UNL     1      -3.131   6.103  -4.282  0.00  0.00    +0.000 A 
ATOM     32  O   UNL     1      -3.021   4.934  -3.936  0.00  0.00    +0.000 OA
ATOM     33  C   UNL     1      -3.257   7.217  -3.362  0.00  0.00    +0.000 A 
ATOM     34  H   UNL     1      -3.039   5.704  -6.274  0.00  0.00    +0.000 HD
ENDBRANCH  21  24
ENDBRANCH  19  20
ENDBRANCH   4  19
TORSDOF 8
