REMARK  Name = 
REMARK  6 active torsions:
REMARK  status: ('A' for Active; 'I' for Inactive)
REMARK    1  A    between atoms: N_1  and  C_2
REMARK    2  A    between atoms: C_2  and  C_3
REMARK    3  A    between atoms: C_3  and  C_4
REMARK    4  A    between atoms: C_7  and  O_8
REMARK    5  A    between atoms: O_8  and  C_9
REMARK    6  A    between atoms: C_9  and  C_10
REMARK                            x       y       z     vdW  Elec       q    Type
REMARK                         _______ _______ _______ _____ _____    ______ ____
ROOT
ATOM      1  C   UNL     1       4.362  -0.429   1.336  0.00  0.00    +0.000 A 
ATOM      2  C   UNL     1       5.079  -1.629   1.248  0.00  0.00    +0.000 A 
ATOM      3  C   UNL     1       6.472  -1.612   1.152  0.00  0.00    +0.000 A 
ATOM      4  C   UNL     1       7.161  -0.398   1.136  0.00  0.00    +0.000 A 
ATOM      5  C   UNL     1       6.454   0.795   1.294  0.00  0.00    +0.000 A 
ATOM      6  C   UNL     1       5.064   0.780   1.383  0.00  0.00    +0.000 A 
ENDROOT
BRANCH   1   7
ATOM      7  C   UNL     1       2.856  -0.422   1.402  0.00  0.00    +0.000 C 
BRANCH   7   8
ATOM      8  C   UNL     1       2.352  -0.479   2.846  0.00  0.00    +0.000 C 
BRANCH   8   9
ATOM      9  N   UNL     1       0.892  -0.428   2.890  0.00  0.00    +0.000 NA
ATOM     10  H   UNL     1       0.582  -0.508   3.858  0.00  0.00    +0.000 HD
ATOM     11  H   UNL     1       0.507  -1.234   2.400  0.00  0.00    +0.000 HD
ENDBRANCH   8   9
ENDBRANCH   7   8
ENDBRANCH   1   7
BRANCH   4  12
ATOM     12  O   UNL     1       8.517  -0.480   0.957  0.00  0.00    +0.000 OA
BRANCH  12  13
ATOM     13  C   UNL     1       9.111   0.699   0.404  0.00  0.00    +0.000 C 
BRANCH  13  14
ATOM     14  C   UNL     1      10.438   0.401  -0.235  0.00  0.00    +0.000 A 
ATOM     15  C   UNL     1      10.746  -0.838  -0.800  0.00  0.00    +0.000 A 
ATOM     16  C   UNL     1      11.964  -1.016  -1.448  0.00  0.00    +0.000 A 
ATOM     17  C   UNL     1      12.833   0.059  -1.521  0.00  0.00    +0.000 A 
ATOM     18  N   UNL     1      12.567   1.277  -1.002  0.00  0.00    +0.000 NA
ATOM     19  C   UNL     1      11.378   1.419  -0.378  0.00  0.00    +0.000 A 
ENDBRANCH  13  14
ENDBRANCH  12  13
ENDBRANCH   4  12
TORSDOF 6
