REMARK  Name = 
REMARK  4 active torsions:
REMARK  status: ('A' for Active; 'I' for Inactive)
REMARK    1  A    between atoms: C_2  and  C_4
REMARK    2  A    between atoms: N_8  and  C_9
REMARK    3  A    between atoms: C_9  and  C_10
REMARK    4  A    between atoms: C_14  and  C_15
REMARK                            x       y       z     vdW  Elec       q    Type
REMARK                         _______ _______ _______ _____ _____    ______ ____
ROOT
ATOM      1  C   UNL     1       4.996   5.752   1.596  0.00  0.00    +0.000 C 
ENDROOT
BRANCH   1   6
ATOM      2  C   UNL     1       5.160   3.334  -2.970  0.00  0.00    +0.000 A 
ATOM      3  C   UNL     1       6.096   3.380  -1.943  0.00  0.00    +0.000 A 
ATOM      4  C   UNL     1       5.832   4.158  -0.816  0.00  0.00    +0.000 A 
ATOM      5  C   UNL     1       4.643   4.871  -0.727  0.00  0.00    +0.000 A 
ATOM      6  N   UNL     1       4.282   5.619   0.354  0.00  0.00    +0.000 N 
ATOM      7  N   UNL     1       3.740   4.851  -1.729  0.00  0.00    +0.000 NA
ATOM      8  C   UNL     1       4.015   4.097  -2.827  0.00  0.00    +0.000 A 
ATOM      9  H   UNL     1       3.400   6.100   0.236  0.00  0.00    +0.000 HD
BRANCH   2  11
ATOM     10  N   UNL     1       6.145   1.418  -4.088  0.00  0.00    +0.000 N 
ATOM     11  C   UNL     1       5.339   2.519  -4.187  0.00  0.00    +0.000 C 
ATOM     12  O   UNL     1       4.764   2.793  -5.231  0.00  0.00    +0.000 OA
ATOM     13  H   UNL     1       6.181   0.812  -4.897  0.00  0.00    +0.000 HD
ATOM     14  H   UNL     1       6.424   1.025  -3.200  0.00  0.00    +0.000 HD
ENDBRANCH   2  11
ENDBRANCH   1   6
BRANCH   1  15
ATOM     15  C   UNL     1       5.953   6.919   1.567  0.00  0.00    +0.000 A 
ATOM     16  C   UNL     1       5.483   8.219   1.351  0.00  0.00    +0.000 A 
ATOM     17  C   UNL     1       6.360   9.300   1.394  0.00  0.00    +0.000 A 
ATOM     18  C   UNL     1       7.714   9.093   1.672  0.00  0.00    +0.000 A 
ATOM     19  C   UNL     1       8.223   7.807   1.923  0.00  0.00    +0.000 A 
ATOM     20  C   UNL     1       7.320   6.728   1.838  0.00  0.00    +0.000 A 
BRANCH  19  21
ATOM     21  C   UNL     1       9.625   7.597   2.354  0.00  0.00    +0.000 A 
ATOM     22  C   UNL     1      10.257   8.513   3.220  0.00  0.00    +0.000 A 
ATOM     23  C   UNL     1      11.545   8.288   3.720  0.00  0.00    +0.000 A 
ATOM     24  C   UNL     1      12.231   7.133   3.366  0.00  0.00    +0.000 A 
ATOM     25  C   UNL     1      11.632   6.229   2.499  0.00  0.00    +0.000 A 
ATOM     26  F   UNL     1      12.287   5.110   2.163  0.00  0.00    +0.000 F 
ATOM     27  C   UNL     1      10.355   6.454   1.987  0.00  0.00    +0.000 A 
ENDBRANCH  19  21
ENDBRANCH   1  15
TORSDOF 4
