REMARK  Name = 
REMARK  4 active torsions:
REMARK  status: ('A' for Active; 'I' for Inactive)
REMARK    1  A    between atoms: C_2  and  C_4
REMARK    2  A    between atoms: N_8  and  C_9
REMARK    3  A    between atoms: C_9  and  C_10
REMARK    4  A    between atoms: C_14  and  C_15
REMARK                            x       y       z     vdW  Elec       q    Type
REMARK                         _______ _______ _______ _____ _____    ______ ____
ROOT
ATOM      1  C   UNL     1       7.689  -1.284   0.237  0.00  0.00    +0.000 A 
ATOM      2  C   UNL     1       7.243  -2.388  -0.481  0.00  0.00    +0.000 A 
ATOM      3  C   UNL     1       6.503  -3.373   0.177  0.00  0.00    +0.000 A 
ATOM      4  C   UNL     1       6.233  -3.246   1.536  0.00  0.00    +0.000 A 
ATOM      5  N   UNL     1       5.447  -4.121   2.246  0.00  0.00    +0.000 N 
ATOM      6  N   UNL     1       6.682  -2.190   2.244  0.00  0.00    +0.000 NA
ATOM      7  C   UNL     1       7.399  -1.238   1.590  0.00  0.00    +0.000 A 
ATOM      8  H   UNL     1       5.435  -3.854   3.225  0.00  0.00    +0.000 HD
ENDROOT
BRANCH   1  10
ATOM      9  N   UNL     1       8.273   0.047  -1.710  0.00  0.00    +0.000 N 
ATOM     10  C   UNL     1       8.459  -0.182  -0.374  0.00  0.00    +0.000 C 
ATOM     11  O   UNL     1       9.207   0.520   0.292  0.00  0.00    +0.000 OA
ATOM     12  H   UNL     1       8.728   0.868  -2.092  0.00  0.00    +0.000 HD
ATOM     13  H   UNL     1       7.494  -0.334  -2.226  0.00  0.00    +0.000 HD
ENDBRANCH   1  10
BRANCH   5  14
ATOM     14  C   UNL     1       5.361  -5.540   1.970  0.00  0.00    +0.000 C 
BRANCH  14  15
ATOM     15  C   UNL     1       6.424  -6.388   2.621  0.00  0.00    +0.000 A 
ATOM     16  C   UNL     1       6.413  -7.758   2.372  0.00  0.00    +0.000 A 
ATOM     17  N   UNL     1       7.288  -8.637   2.899  0.00  0.00    +0.000 NA
ATOM     18  C   UNL     1       8.232  -8.130   3.726  0.00  0.00    +0.000 A 
ATOM     19  C   UNL     1       8.357  -6.783   4.075  0.00  0.00    +0.000 A 
ATOM     20  C   UNL     1       7.416  -5.914   3.491  0.00  0.00    +0.000 A 
BRANCH  19  21
ATOM     21  C   UNL     1       9.406  -6.304   5.000  0.00  0.00    +0.000 A 
ATOM     22  C   UNL     1       9.980  -5.029   4.886  0.00  0.00    +0.000 A 
ATOM     23  C   UNL     1      10.962  -4.603   5.781  0.00  0.00    +0.000 A 
ATOM     24  C   UNL     1      11.363  -5.471   6.779  0.00  0.00    +0.000 A 
ATOM     25  N   UNL     1      10.853  -6.708   6.934  0.00  0.00    +0.000 NA
ATOM     26  C   UNL     1       9.894  -7.087   6.052  0.00  0.00    +0.000 A 
ENDBRANCH  19  21
ENDBRANCH  14  15
ENDBRANCH   5  14
TORSDOF 4
