REMARK  Name = 
REMARK  9 active torsions:
REMARK  status: ('A' for Active; 'I' for Inactive)
REMARK    1  A    between atoms: C_1  and  O_2
REMARK    2  A    between atoms: O_2  and  C_3
REMARK    3  A    between atoms: C_3  and  C_5
REMARK    4  A    between atoms: C_8  and  O_9
REMARK    5  A    between atoms: O_9  and  C_10
REMARK    6  A    between atoms: C_10  and  C_11
REMARK    7  A    between atoms: C_11  and  C_12
REMARK    8  A    between atoms: C_11  and  C_13
REMARK    9  A    between atoms: C_11  and  C_14
REMARK                            x       y       z     vdW  Elec       q    Type
REMARK                         _______ _______ _______ _____ _____    ______ ____
ROOT
ATOM      1  O   UNL     1       8.718   0.749   1.162  0.00  0.00    +0.000 OA
ENDROOT
BRANCH   1   5
ATOM      2  C   UNL     1       4.549   0.838   1.205  0.00  0.00    +0.000 A 
ATOM      3  C   UNL     1       5.208   1.087  -0.006  0.00  0.00    +0.000 A 
ATOM      4  C   UNL     1       6.607   1.063  -0.066  0.00  0.00    +0.000 A 
ATOM      5  C   UNL     1       7.354   0.793   1.082  0.00  0.00    +0.000 A 
ATOM      6  C   UNL     1       6.692   0.537   2.286  0.00  0.00    +0.000 A 
ATOM      7  C   UNL     1       5.297   0.551   2.351  0.00  0.00    +0.000 A 
BRANCH   2   8
ATOM      8  C   UNL     1       3.070   0.856   1.312  0.00  0.00    +0.000 C 
ATOM      9  O   UNL     1       2.444   0.252   2.168  0.00  0.00    +0.000 OA
BRANCH   8  11
ATOM     10  C   UNL     1       1.125   1.790   0.416  0.00  0.00    +0.000 C 
ATOM     11  O   UNL     1       2.549   1.671   0.360  0.00  0.00    +0.000 OA
ENDBRANCH   8  11
ENDBRANCH   2   8
ENDBRANCH   1   5
BRANCH   1  12
ATOM     12  C   UNL     1       9.458   0.999  -0.039  0.00  0.00    +0.000 C 
BRANCH  12  13
ATOM     13  C   UNL     1      10.988   0.915   0.241  0.00  0.00    +0.000 C 
ATOM     14  C   UNL     1      11.389   1.979   1.289  0.00  0.00    +0.000 C 
ATOM     15  C   UNL     1      11.292  -0.464   0.875  0.00  0.00    +0.000 C 
BRANCH  13  16
ATOM     16  C   UNL     1      11.762   1.173  -1.068  0.00  0.00    +0.000 A 
ATOM     17  C   UNL     1      11.620   2.397  -1.751  0.00  0.00    +0.000 A 
ATOM     18  C   UNL     1      12.336   2.671  -2.921  0.00  0.00    +0.000 A 
ATOM     19  C   UNL     1      13.214   1.722  -3.437  0.00  0.00    +0.000 A 
ATOM     20  C   UNL     1      13.362   0.502  -2.792  0.00  0.00    +0.000 A 
ATOM     21  C   UNL     1      12.643   0.227  -1.625  0.00  0.00    +0.000 A 
ENDBRANCH  13  16
ENDBRANCH  12  13
ENDBRANCH   1  12
TORSDOF 6
