REMARK  Name = 
REMARK  6 active torsions:
REMARK  status: ('A' for Active; 'I' for Inactive)
REMARK    1  A    between atoms: C_1  and  C_2
REMARK    2  A    between atoms: O_7  and  C_8
REMARK    3  A    between atoms: C_12  and  C_13
REMARK    4  A    between atoms: C_13  and  N_14
REMARK    5  A    between atoms: N_14  and  C_15
REMARK    6  A    between atoms: C_18  and  C_19
REMARK                            x       y       z     vdW  Elec       q    Type
REMARK                         _______ _______ _______ _____ _____    ______ ____
ROOT
ATOM      1  C   UNL     1       3.860  -4.319   3.478  0.00  0.00    +0.000 C 
ATOM      2  C   UNL     1       3.931  -3.369   4.658  0.00  0.00    +0.000 C 
ATOM      3  C   UNL     1       5.008  -4.384   4.482  0.00  0.00    +0.000 C 
ENDROOT
BRANCH   1   8
ATOM      4  C   UNL     1       3.671  -2.340   0.156  0.00  0.00    +0.000 A 
ATOM      5  C   UNL     1       4.841  -2.835  -0.422  0.00  0.00    +0.000 A 
ATOM      6  N   UNL     1       5.639  -3.759   0.144  0.00  0.00    +0.000 NA
ATOM      7  C   UNL     1       5.287  -4.209   1.369  0.00  0.00    +0.000 A 
ATOM      8  C   UNL     1       4.177  -3.769   2.091  0.00  0.00    +0.000 A 
ATOM      9  C   UNL     1       3.364  -2.814   1.445  0.00  0.00    +0.000 A 
BRANCH   4  16
ATOM     10  C   UNL     1       2.912  -0.584  -2.822  0.00  0.00    +0.000 C 
ATOM     11  C   UNL     1       2.535  -1.748  -1.897  0.00  0.00    +0.000 C 
ATOM     12  C   UNL     1       1.029  -2.024  -1.987  0.00  0.00    +0.000 C 
ATOM     13  O   UNL     1       0.288  -0.960  -1.398  0.00  0.00    +0.000 OA
ATOM     14  C   UNL     1       0.596  -0.823  -0.013  0.00  0.00    +0.000 C 
ATOM     15  C   UNL     1       2.075  -0.495   0.149  0.00  0.00    +0.000 C 
ATOM     16  O   UNL     1       2.880  -1.433  -0.544  0.00  0.00    +0.000 OA
ENDBRANCH   4  16
ENDBRANCH   1   8
BRANCH   1  17
ATOM     17  N   UNL     1       2.994  -5.507   3.452  0.00  0.00    +0.000 N 
ATOM     18  H   UNL     1       3.399  -6.365   3.087  0.00  0.00    +0.000 HD
BRANCH  17  19
ATOM     19  C   UNL     1       1.587  -5.506   3.461  0.00  0.00    +0.000 A 
ATOM     20  C   UNL     1       0.909  -6.576   2.851  0.00  0.00    +0.000 A 
ATOM     21  C   UNL     1      -0.490  -6.647   2.845  0.00  0.00    +0.000 A 
ATOM     22  C   UNL     1      -1.237  -5.647   3.470  0.00  0.00    +0.000 A 
ATOM     23  C   UNL     1      -0.574  -4.573   4.072  0.00  0.00    +0.000 A 
ATOM     24  C   UNL     1       0.823  -4.501   4.056  0.00  0.00    +0.000 A 
BRANCH  22  25
ATOM     25  C   UNL     1      -2.721  -5.659   3.493  0.00  0.00    +0.000 C 
ATOM     26  N   UNL     1      -3.347  -6.869   3.394  0.00  0.00    +0.000 N 
ATOM     27  O   UNL     1      -3.358  -4.620   3.616  0.00  0.00    +0.000 OA
ATOM     28  H   UNL     1      -2.870  -7.747   3.542  0.00  0.00    +0.000 HD
ATOM     29  H   UNL     1      -4.352  -6.864   3.526  0.00  0.00    +0.000 HD
ENDBRANCH  22  25
ENDBRANCH  17  19
ENDBRANCH   1  17
TORSDOF 5
