REMARK  Name = 
REMARK  8 active torsions:
REMARK  status: ('A' for Active; 'I' for Inactive)
REMARK    1  A    between atoms: C_2  and  C_3
REMARK    2  A    between atoms: C_6  and  C_7
REMARK    3  A    between atoms: C_7  and  N_8
REMARK    4  A    between atoms: N_8  and  C_9
REMARK    5  A    between atoms: C_9  and  C_10
REMARK    6  A    between atoms: C_13  and  C_14
REMARK    7  A    between atoms: C_14  and  N_15
REMARK    8  A    between atoms: C_16  and  C_18
REMARK                            x       y       z     vdW  Elec       q    Type
REMARK                         _______ _______ _______ _____ _____    ______ ____
ROOT
ATOM      1  C   UNL     1      -6.132   2.967  -0.218  0.00  0.00    +0.000 A 
ATOM      2  C   UNL     1      -7.445   3.251   0.190  0.00  0.00    +0.000 A 
ATOM      3  C   UNL     1      -7.913   4.567   0.245  0.00  0.00    +0.000 A 
ATOM      4  C   UNL     1      -7.075   5.632  -0.102  0.00  0.00    +0.000 A 
ATOM      5  C   UNL     1      -5.747   5.357  -0.456  0.00  0.00    +0.000 A 
ATOM      6  C   UNL     1      -5.283   4.038  -0.529  0.00  0.00    +0.000 A 
ENDROOT
BRANCH   1   7
ATOM      7  C   UNL     1      -5.653   1.533  -0.310  0.00  0.00    +0.000 C 
BRANCH   7   8
ATOM      8  N   UNL     1      -6.465   0.783  -1.264  0.00  0.00    +0.000 NA
ATOM      9  H   UNL     1      -7.439   0.813  -0.966  0.00  0.00    +0.000 HD
BRANCH   8  10
ATOM     10  C   UNL     1      -6.074  -0.627  -1.339  0.00  0.00    +0.000 C 
BRANCH  10  14
ATOM     11  C   UNL     1      -8.705  -2.656  -4.022  0.00  0.00    +0.000 A 
ATOM     12  C   UNL     1      -7.912  -1.621  -4.513  0.00  0.00    +0.000 A 
ATOM     13  C   UNL     1      -7.026  -0.976  -3.652  0.00  0.00    +0.000 A 
ATOM     14  C   UNL     1      -6.964  -1.376  -2.316  0.00  0.00    +0.000 A 
ATOM     15  N   UNL     1      -7.729  -2.384  -1.824  0.00  0.00    +0.000 NA
ATOM     16  C   UNL     1      -8.574  -3.000  -2.686  0.00  0.00    +0.000 A 
BRANCH  11  18
ATOM     17  N   UNL     1     -10.396  -3.899  -5.539  0.00  0.00    +0.000 NA
ATOM     18  C   UNL     1      -9.637  -3.340  -4.859  0.00  0.00    +0.000 C 
ENDBRANCH  11  18
ENDBRANCH  10  14
ENDBRANCH   8  10
ENDBRANCH   7   8
ENDBRANCH   1   7
BRANCH   4  19
ATOM     19  C   UNL     1      -7.583   7.051  -0.079  0.00  0.00    +0.000 C 
BRANCH  19  20
ATOM     20  N   UNL     1      -7.405   7.652   1.216  0.00  0.00    +0.000 N 
ATOM     21  C   UNL     1      -7.814   8.936   1.472  0.00  0.00    +0.000 C 
ATOM     22  O   UNL     1      -8.389   9.622   0.631  0.00  0.00    +0.000 OA
ATOM     23  H   UNL     1      -6.730   7.214   1.832  0.00  0.00    +0.000 HD
BRANCH  21  24
ATOM     24  C   UNL     1      -7.581   9.425   2.835  0.00  0.00    +0.000 A 
ATOM     25  C   UNL     1      -8.397  10.414   3.369  0.00  0.00    +0.000 A 
ATOM     26  S   UNL     1      -7.998  10.832   4.975  0.00  0.00    +0.000 S 
ATOM     27  C   UNL     1      -6.696   9.735   4.997  0.00  0.00    +0.000 A 
ATOM     28  N   UNL     1      -5.901   9.609   6.093  0.00  0.00    +0.000 NA
ATOM     29  C   UNL     1      -4.942   8.754   5.962  0.00  0.00    +0.000 A 
ATOM     30  N   UNL     1      -4.709   8.007   4.838  0.00  0.00    +0.000 N 
ATOM     31  C   UNL     1      -5.496   8.085   3.715  0.00  0.00    +0.000 A 
ATOM     32  O   UNL     1      -5.288   7.369   2.741  0.00  0.00    +0.000 OA
ATOM     33  C   UNL     1      -6.581   9.043   3.804  0.00  0.00    +0.000 A 
ATOM     34  H   UNL     1      -3.954   7.339   4.802  0.00  0.00    +0.000 HD
ENDBRANCH  21  24
ENDBRANCH  19  20
ENDBRANCH   4  19
TORSDOF 8
