REMARK  Name = 
REMARK  12 active torsions:
REMARK  status: ('A' for Active; 'I' for Inactive)
REMARK    1  A    between atoms: C_1  and  C_2
REMARK    2  A    between atoms: C_2  and  C_3
REMARK    3  A    between atoms: C_2  and  C_17
REMARK    4  A    between atoms: C_3  and  N_4
REMARK    5  A    between atoms: C_8  and  O_10
REMARK    6  A    between atoms: O_10  and  C_11
REMARK    7  A    between atoms: C_11  and  C_12
REMARK    8  A    between atoms: C_11  and  C_13
REMARK    9  A    between atoms: C_11  and  C_14
REMARK   10  A    between atoms: C_20  and  C_21
REMARK   11  A    between atoms: C_21  and  N_22
REMARK   12  A    between atoms: C_23  and  C_25
REMARK                            x       y       z     vdW  Elec       q    Type
REMARK                         _______ _______ _______ _____ _____    ______ ____
ROOT
ATOM      1  C   UNL     1       3.141   0.848  -1.335  0.00  0.00    +0.000 A 
ATOM      2  C   UNL     1       2.404   1.966  -1.776  0.00  0.00    +0.000 A 
ATOM      3  C   UNL     1       2.754   2.692  -2.903  0.00  0.00    +0.000 A 
ATOM      4  C   UNL     1       3.882   2.348  -3.631  0.00  0.00    +0.000 A 
ATOM      5  C   UNL     1       4.695   1.309  -3.157  0.00  0.00    +0.000 A 
ATOM      6  C   UNL     1       4.329   0.571  -2.028  0.00  0.00    +0.000 A 
ENDROOT
BRANCH   1   8
ATOM      7  C   UNL     1       3.212  -1.432  -0.138  0.00  0.00    +0.000 C 
ATOM      8  C   UNL     1       2.689   0.020  -0.127  0.00  0.00    +0.000 C 
BRANCH   8   9
ATOM      9  C   UNL     1       1.136  -0.056   0.033  0.00  0.00    +0.000 C 
BRANCH   9  10
ATOM     10  N   UNL     1       0.449   1.227   0.264  0.00  0.00    +0.000 NA
ATOM     11  C   UNL     1       0.883   1.959   1.467  0.00  0.00    +0.000 C 
ATOM     12  C   UNL     1       0.420   1.295   2.768  0.00  0.00    +0.000 C 
ATOM     13  N   UNL     1      -1.018   1.059   2.726  0.00  0.00    +0.000 N 
ATOM     14  C   UNL     1      -1.897   1.415   3.722  0.00  0.00    +0.000 C 
ATOM     15  O   UNL     1      -3.088   1.160   3.658  0.00  0.00    +0.000 OA
ATOM     16  C   UNL     1      -1.553   0.421   1.522  0.00  0.00    +0.000 C 
ATOM     17  C   UNL     1      -1.014   1.093   0.253  0.00  0.00    +0.000 C 
BRANCH  14  18
ATOM     18  O   UNL     1      -1.310   2.096   4.743  0.00  0.00    +0.000 OA
BRANCH  18  19
ATOM     19  C   UNL     1      -2.164   2.597   5.801  0.00  0.00    +0.000 C 
ATOM     20  C   UNL     1      -2.834   1.439   6.553  0.00  0.00    +0.000 C 
ATOM     21  C   UNL     1      -1.246   3.346   6.782  0.00  0.00    +0.000 C 
ATOM     22  C   UNL     1      -3.178   3.611   5.251  0.00  0.00    +0.000 C 
ENDBRANCH  18  19
ENDBRANCH  14  18
ENDBRANCH   9  10
ENDBRANCH   8   9
ENDBRANCH   1   8
BRANCH   4  23
ATOM     23  C   UNL     1       4.240   3.123  -4.859  0.00  0.00    +0.000 C 
BRANCH  23  24
ATOM     24  N   UNL     1       5.060   4.252  -4.519  0.00  0.00    +0.000 N 
ATOM     25  C   UNL     1       5.456   5.146  -5.474  0.00  0.00    +0.000 C 
ATOM     26  O   UNL     1       5.106   5.046  -6.647  0.00  0.00    +0.000 OA
ATOM     27  H   UNL     1       5.523   4.231  -3.616  0.00  0.00    +0.000 HD
BRANCH  25  28
ATOM     28  C   UNL     1       6.273   6.268  -5.008  0.00  0.00    +0.000 A 
ATOM     29  C   UNL     1       6.294   7.447  -5.739  0.00  0.00    +0.000 A 
ATOM     30  S   UNL     1       7.262   8.664  -5.040  0.00  0.00    +0.000 S 
ATOM     31  C   UNL     1       7.720   7.641  -3.759  0.00  0.00    +0.000 A 
ATOM     32  N   UNL     1       8.580   8.069  -2.797  0.00  0.00    +0.000 NA
ATOM     33  C   UNL     1       8.863   7.183  -1.901  0.00  0.00    +0.000 A 
ATOM     34  N   UNL     1       8.359   5.909  -1.876  0.00  0.00    +0.000 N 
ATOM     35  C   UNL     1       7.463   5.443  -2.808  0.00  0.00    +0.000 A 
ATOM     36  O   UNL     1       6.991   4.313  -2.726  0.00  0.00    +0.000 OA
ATOM     37  C   UNL     1       7.126   6.395  -3.850  0.00  0.00    +0.000 A 
ATOM     38  H   UNL     1       8.606   5.268  -1.136  0.00  0.00    +0.000 HD
ENDBRANCH  25  28
ENDBRANCH  23  24
ENDBRANCH   4  23
TORSDOF 8
