REMARK  Name = 
REMARK  7 active torsions:
REMARK  status: ('A' for Active; 'I' for Inactive)
REMARK    1  A    between atoms: C_1  and  C_2
REMARK    2  A    between atoms: C_2  and  N_3
REMARK    3  A    between atoms: C_2  and  C_16
REMARK    4  A    between atoms: C_4  and  C_6
REMARK    5  A    between atoms: C_19  and  O_20
REMARK    6  A    between atoms: O_20  and  C_21
REMARK    7  A    between atoms: C_21  and  C_22
REMARK                            x       y       z     vdW  Elec       q    Type
REMARK                         _______ _______ _______ _____ _____    ______ ____
ROOT
ATOM      1  C   UNL     1       3.580  -0.350  -1.200  0.00  0.00    +0.000 C 
ATOM      2  C   UNL     1       2.573   0.078  -0.125  0.00  0.00    +0.000 C 
ENDROOT
BRANCH   2   3
ATOM      3  C   UNL     1       2.987  -0.505   1.217  0.00  0.00    +0.000 A 
ATOM      4  C   UNL     1       3.313   0.312   2.307  0.00  0.00    +0.000 A 
ATOM      5  C   UNL     1       3.612  -0.256   3.551  0.00  0.00    +0.000 A 
ATOM      6  C   UNL     1       3.575  -1.641   3.723  0.00  0.00    +0.000 A 
ATOM      7  C   UNL     1       3.322  -2.461   2.624  0.00  0.00    +0.000 A 
ATOM      8  C   UNL     1       3.013  -1.898   1.390  0.00  0.00    +0.000 A 
BRANCH   6   9
ATOM      9  O   UNL     1       3.777  -2.101   4.997  0.00  0.00    +0.000 OA
BRANCH   9  10
ATOM     10  C   UNL     1       3.219  -3.395   5.246  0.00  0.00    +0.000 C 
BRANCH  10  11
ATOM     11  C   UNL     1       2.952  -3.584   6.717  0.00  0.00    +0.000 A 
ATOM     12  C   UNL     1       2.137  -2.676   7.406  0.00  0.00    +0.000 A 
ATOM     13  C   UNL     1       1.807  -2.898   8.742  0.00  0.00    +0.000 A 
ATOM     14  C   UNL     1       2.286  -4.028   9.399  0.00  0.00    +0.000 A 
ATOM     15  C   UNL     1       3.102  -4.936   8.724  0.00  0.00    +0.000 A 
ATOM     16  C   UNL     1       3.432  -4.717   7.387  0.00  0.00    +0.000 A 
ENDBRANCH  10  11
ENDBRANCH   9  10
ENDBRANCH   6   9
ENDBRANCH   2   3
BRANCH   2  17
ATOM     17  N   UNL     1       1.211  -0.358  -0.413  0.00  0.00    +0.000 N 
ATOM     18  C   UNL     1       0.523  -0.012  -1.542  0.00  0.00    +0.000 C 
ATOM     19  O   UNL     1       1.014   0.669  -2.438  0.00  0.00    +0.000 OA
ATOM     20  H   UNL     1       0.669  -0.654   0.394  0.00  0.00    +0.000 HD
BRANCH  18  21
ATOM     21  C   UNL     1      -0.831  -0.566  -1.675  0.00  0.00    +0.000 A 
ATOM     22  C   UNL     1      -1.361  -0.782  -2.940  0.00  0.00    +0.000 A 
ATOM     23  S   UNL     1      -2.930  -1.448  -2.920  0.00  0.00    +0.000 S 
ATOM     24  C   UNL     1      -2.975  -1.430  -1.220  0.00  0.00    +0.000 A 
ATOM     25  N   UNL     1      -4.081  -1.845  -0.545  0.00  0.00    +0.000 NA
ATOM     26  C   UNL     1      -3.991  -1.742   0.740  0.00  0.00    +0.000 A 
ATOM     27  N   UNL     1      -2.891  -1.276   1.411  0.00  0.00    +0.000 N 
ATOM     28  C   UNL     1      -1.735  -0.888   0.773  0.00  0.00    +0.000 A 
ATOM     29  O   UNL     1      -0.738  -0.546   1.398  0.00  0.00    +0.000 OA
ATOM     30  C   UNL     1      -1.797  -0.952  -0.674  0.00  0.00    +0.000 A 
ATOM     31  H   UNL     1      -2.879  -1.239   2.419  0.00  0.00    +0.000 HD
ENDBRANCH  18  21
ENDBRANCH   2  17
TORSDOF 6
