REMARK  Name = 
REMARK  8 active torsions:
REMARK  status: ('A' for Active; 'I' for Inactive)
REMARK    1  A    between atoms: C_2  and  C_22
REMARK    2  A    between atoms: N_3  and  C_4
REMARK    3  A    between atoms: C_4  and  C_5
REMARK    4  A    between atoms: C_8  and  C_9
REMARK    5  A    between atoms: C_9  and  C_10
REMARK    6  A    between atoms: C_10  and  N_11
REMARK    7  A    between atoms: N_11  and  C_12
REMARK    8  A    between atoms: C_12  and  C_13
REMARK                            x       y       z     vdW  Elec       q    Type
REMARK                         _______ _______ _______ _____ _____    ______ ____
ROOT
ATOM      1  C   UNL     1       3.285  -3.145  -1.694  0.00  0.00    +0.000 A 
ATOM      2  C   UNL     1       4.454  -2.745  -2.334  0.00  0.00    +0.000 A 
ATOM      3  C   UNL     1       5.313  -3.717  -2.845  0.00  0.00    +0.000 A 
ATOM      4  C   UNL     1       5.006  -5.070  -2.689  0.00  0.00    +0.000 A 
ATOM      5  C   UNL     1       3.832  -5.376  -2.011  0.00  0.00    +0.000 A 
ATOM      6  N   UNL     1       2.977  -4.453  -1.510  0.00  0.00    +0.000 NA
ENDROOT
BRANCH   1   7
ATOM      7  C   UNL     1       2.319  -2.114  -1.156  0.00  0.00    +0.000 C 
BRANCH   7  10
ATOM      8  O   UNL     1       1.001  -0.138   0.299  0.00  0.00    +0.000 OA
ATOM      9  C   UNL     1       1.919  -0.749   0.838  0.00  0.00    +0.000 C 
ATOM     10  N   UNL     1       2.683  -1.672   0.169  0.00  0.00    +0.000 N 
ATOM     11  H   UNL     1       3.204  -2.350   0.715  0.00  0.00    +0.000 HD
BRANCH   9  12
ATOM     12  C   UNL     1       2.304  -0.489   2.228  0.00  0.00    +0.000 A 
ATOM     13  C   UNL     1       2.059   0.745   2.813  0.00  0.00    +0.000 A 
ATOM     14  S   UNL     1       2.612   0.853   4.426  0.00  0.00    +0.000 S 
ATOM     15  C   UNL     1       3.152  -0.761   4.411  0.00  0.00    +0.000 A 
ATOM     16  N   UNL     1       3.722  -1.330   5.508  0.00  0.00    +0.000 NA
ATOM     17  C   UNL     1       4.053  -2.566   5.357  0.00  0.00    +0.000 A 
ATOM     18  N   UNL     1       3.874  -3.290   4.208  0.00  0.00    +0.000 N 
ATOM     19  C   UNL     1       3.353  -2.749   3.066  0.00  0.00    +0.000 A 
ATOM     20  O   UNL     1       3.293  -3.395   2.027  0.00  0.00    +0.000 OA
ATOM     21  C   UNL     1       2.935  -1.363   3.185  0.00  0.00    +0.000 A 
ATOM     22  H   UNL     1       4.176  -4.250   4.139  0.00  0.00    +0.000 HD
ENDBRANCH   9  12
ENDBRANCH   7  10
ENDBRANCH   1   7
BRANCH   4  23
ATOM     23  C   UNL     1       5.881  -6.157  -3.258  0.00  0.00    +0.000 C 
BRANCH  23  24
ATOM     24  C   UNL     1       7.304  -6.139  -2.682  0.00  0.00    +0.000 C 
BRANCH  24  25
ATOM     25  N   UNL     1       8.110  -7.221  -3.256  0.00  0.00    +0.000 NA
ATOM     26  H   UNL     1       8.167  -7.112  -4.268  0.00  0.00    +0.000 HD
BRANCH  25  27
ATOM     27  C   UNL     1       9.467  -7.200  -2.708  0.00  0.00    +0.000 C 
BRANCH  27  28
ATOM     28  C   UNL     1      10.318  -8.292  -3.313  0.00  0.00    +0.000 A 
ATOM     29  C   UNL     1       9.964  -9.643  -3.165  0.00  0.00    +0.000 A 
ATOM     30  C   UNL     1      10.747 -10.651  -3.732  0.00  0.00    +0.000 A 
ATOM     31  C   UNL     1      11.899 -10.321  -4.445  0.00  0.00    +0.000 A 
ATOM     32  C   UNL     1      12.266  -8.984  -4.581  0.00  0.00    +0.000 A 
ATOM     33 CL   UNL     1      13.697  -8.574  -5.445  0.00  0.00    +0.000 Cl
ATOM     34  C   UNL     1      11.485  -7.973  -4.022  0.00  0.00    +0.000 A 
ENDBRANCH  27  28
ENDBRANCH  25  27
ENDBRANCH  24  25
ENDBRANCH  23  24
ENDBRANCH   4  23
TORSDOF 8
