REMARK  Name = 
REMARK  5 active torsions:
REMARK  status: ('A' for Active; 'I' for Inactive)
REMARK    1  A    between atoms: C_2  and  C_4
REMARK    2  A    between atoms: C_7  and  O_8
REMARK    3  A    between atoms: O_8  and  C_9
REMARK    4  A    between atoms: C_9  and  C_10
REMARK    5  A    between atoms: C_15  and  C_16
REMARK                            x       y       z     vdW  Elec       q    Type
REMARK                         _______ _______ _______ _____ _____    ______ ____
ROOT
ATOM      1  O   UNL     1       5.580  -4.327   1.349  0.00  0.00    +0.000 OA
ENDROOT
BRANCH   1   5
ATOM      2  C   UNL     1       2.836  -1.502   0.139  0.00  0.00    +0.000 A 
ATOM      3  C   UNL     1       4.148  -1.115   0.418  0.00  0.00    +0.000 A 
ATOM      4  C   UNL     1       5.068  -2.077   0.841  0.00  0.00    +0.000 A 
ATOM      5  C   UNL     1       4.647  -3.393   0.944  0.00  0.00    +0.000 A 
ATOM      6  N   UNL     1       3.381  -3.793   0.692  0.00  0.00    +0.000 NA
ATOM      7  C   UNL     1       2.499  -2.837   0.313  0.00  0.00    +0.000 A 
BRANCH   2   9
ATOM      8  N   UNL     1       2.185   0.536  -1.012  0.00  0.00    +0.000 N 
ATOM      9  C   UNL     1       1.785  -0.568  -0.313  0.00  0.00    +0.000 C 
ATOM     10  O   UNL     1       0.599  -0.794  -0.111  0.00  0.00    +0.000 OA
ATOM     11  H   UNL     1       1.445   1.097  -1.415  0.00  0.00    +0.000 HD
ATOM     12  H   UNL     1       3.106   0.618  -1.418  0.00  0.00    +0.000 HD
ENDBRANCH   2   9
ENDBRANCH   1   5
BRANCH   1  13
ATOM     13  C   UNL     1       5.202  -5.644   0.928  0.00  0.00    +0.000 C 
BRANCH  13  14
ATOM     14  C   UNL     1       6.165  -6.728   1.393  0.00  0.00    +0.000 A 
ATOM     15  N   UNL     1       7.149  -6.359   2.261  0.00  0.00    +0.000 NA
ATOM     16  C   UNL     1       7.987  -7.308   2.729  0.00  0.00    +0.000 A 
ATOM     17  C   UNL     1       7.906  -8.639   2.375  0.00  0.00    +0.000 A 
ATOM     18  C   UNL     1       6.908  -9.015   1.488  0.00  0.00    +0.000 A 
ATOM     19  C   UNL     1       6.009  -8.059   0.980  0.00  0.00    +0.000 A 
BRANCH  19  20
ATOM     20  C   UNL     1       4.943  -8.530   0.027  0.00  0.00    +0.000 C 
ATOM     21  F   UNL     1       4.077  -7.577  -0.406  0.00  0.00    +0.000 F 
ATOM     22  F   UNL     1       5.477  -9.075  -1.102  0.00  0.00    +0.000 F 
ATOM     23  F   UNL     1       4.164  -9.507   0.572  0.00  0.00    +0.000 F 
ENDBRANCH  19  20
ENDBRANCH  13  14
ENDBRANCH   1  13
TORSDOF 5
