REMARK  Name = 
REMARK  6 active torsions:
REMARK  status: ('A' for Active; 'I' for Inactive)
REMARK    1  A    between atoms: N_1  and  C_2
REMARK    2  A    between atoms: C_2  and  C_3
REMARK    3  A    between atoms: C_7  and  N_8
REMARK    4  A    between atoms: N_8  and  C_9
REMARK    5  A    between atoms: C_9  and  C_10
REMARK    6  A    between atoms: C_10  and  C_11
REMARK                            x       y       z     vdW  Elec       q    Type
REMARK                         _______ _______ _______ _____ _____    ______ ____
ROOT
ATOM      1  C   UNL     1       3.208  -0.743  -1.064  0.00  0.00    +0.000 A 
ATOM      2  C   UNL     1       3.738  -0.032  -2.144  0.00  0.00    +0.000 A 
ATOM      3  C   UNL     1       3.979  -0.677  -3.353  0.00  0.00    +0.000 A 
ATOM      4  C   UNL     1       3.714  -2.043  -3.486  0.00  0.00    +0.000 A 
ATOM      5  C   UNL     1       3.235  -2.801  -2.411  0.00  0.00    +0.000 A 
ATOM      6  C   UNL     1       2.942  -2.118  -1.220  0.00  0.00    +0.000 A 
ENDROOT
BRANCH   5   7
ATOM      7  N   UNL     1       2.916  -4.169  -2.515  0.00  0.00    +0.000 N 
ATOM      8  H   UNL     1       2.880  -4.592  -1.589  0.00  0.00    +0.000 HD
BRANCH   7   9
ATOM      9  C   UNL     1       3.691  -4.966  -3.472  0.00  0.00    +0.000 C 
BRANCH   9  10
ATOM     10  C   UNL     1       3.262  -6.438  -3.435  0.00  0.00    +0.000 C 
BRANCH  10  11
ATOM     11  C   UNL     1       4.018  -7.261  -4.448  0.00  0.00    +0.000 A 
ATOM     12  C   UNL     1       5.219  -7.900  -4.132  0.00  0.00    +0.000 A 
ATOM     13  C   UNL     1       5.900  -8.617  -5.114  0.00  0.00    +0.000 A 
ATOM     14  C   UNL     1       5.355  -8.667  -6.386  0.00  0.00    +0.000 A 
ATOM     15  N   UNL     1       4.201  -8.061  -6.731  0.00  0.00    +0.000 NA
ATOM     16  C   UNL     1       3.560  -7.375  -5.758  0.00  0.00    +0.000 A 
ENDBRANCH  10  11
ENDBRANCH   9  10
ENDBRANCH   7   9
ENDBRANCH   5   7
BRANCH   1  17
ATOM     17  C   UNL     1       2.908  -0.044   0.237  0.00  0.00    +0.000 C 
BRANCH  17  18
ATOM     18  N   UNL     1       3.667  -0.617   1.343  0.00  0.00    +0.000 NA
ATOM     19  H   UNL     1       3.520  -0.049   2.175  0.00  0.00    +0.000 HD
ATOM     20  H   UNL     1       4.660  -0.555   1.123  0.00  0.00    +0.000 HD
ENDBRANCH  17  18
ENDBRANCH   1  17
TORSDOF 6
