REMARK  Name = 
REMARK  7 active torsions:
REMARK  status: ('A' for Active; 'I' for Inactive)
REMARK    1  A    between atoms: C_2  and  C_3
REMARK    2  A    between atoms: C_3  and  N_4
REMARK    3  A    between atoms: C_5  and  C_7
REMARK    4  A    between atoms: N_17  and  C_18
REMARK    5  A    between atoms: C_18  and  C_19
REMARK    6  A    between atoms: C_22  and  C_23
REMARK    7  A    between atoms: C_23  and  N_24
REMARK                            x       y       z     vdW  Elec       q    Type
REMARK                         _______ _______ _______ _____ _____    ______ ____
ROOT
ATOM      1  O   UNL     1       2.118  -1.263   0.338  0.00  0.00    +0.000 OA
ATOM      2  C   UNL     1       2.077  -0.436  -0.547  0.00  0.00    +0.000 C 
ATOM      3  N   UNL     1       3.195  -0.081  -1.281  0.00  0.00    +0.000 N 
ATOM      4  H   UNL     1       3.092   0.670  -1.948  0.00  0.00    +0.000 HD
ENDROOT
BRANCH   2   5
ATOM      5  C   UNL     1       0.792   0.337  -0.893  0.00  0.00    +0.000 C 
BRANCH   5   6
ATOM      6  N   UNL     1       0.645   1.539  -0.104  0.00  0.00    +0.000 N 
ATOM      7  C   UNL     1       1.096   2.747  -0.551  0.00  0.00    +0.000 C 
ATOM      8  O   UNL     1       1.700   2.841  -1.618  0.00  0.00    +0.000 OA
ATOM      9  H   UNL     1       0.341   1.420   0.857  0.00  0.00    +0.000 HD
BRANCH   7  10
ATOM     10  C   UNL     1       0.861   3.916   0.298  0.00  0.00    +0.000 A 
ATOM     11  C   UNL     1       1.314   5.167  -0.100  0.00  0.00    +0.000 A 
ATOM     12  S   UNL     1       0.957   6.408   1.015  0.00  0.00    +0.000 S 
ATOM     13  C   UNL     1       0.203   5.312   2.075  0.00  0.00    +0.000 A 
ATOM     14  N   UNL     1      -0.299   5.724   3.270  0.00  0.00    +0.000 NA
ATOM     15  C   UNL     1      -0.811   4.780   3.987  0.00  0.00    +0.000 A 
ATOM     16  N   UNL     1      -0.879   3.464   3.613  0.00  0.00    +0.000 N 
ATOM     17  C   UNL     1      -0.422   3.008   2.406  0.00  0.00    +0.000 A 
ATOM     18  O   UNL     1      -0.524   1.824   2.099  0.00  0.00    +0.000 OA
ATOM     19  C   UNL     1       0.200   4.022   1.575  0.00  0.00    +0.000 A 
ATOM     20  H   UNL     1      -1.305   2.776   4.214  0.00  0.00    +0.000 HD
ENDBRANCH   7  10
ENDBRANCH   5   6
ENDBRANCH   2   5
BRANCH   3  21
ATOM     21  C   UNL     1       4.499  -0.689  -1.098  0.00  0.00    +0.000 C 
BRANCH  21  22
ATOM     22  C   UNL     1       5.007  -1.358  -2.359  0.00  0.00    +0.000 A 
ATOM     23  C   UNL     1       5.746  -0.637  -3.304  0.00  0.00    +0.000 A 
ATOM     24  C   UNL     1       6.234  -1.252  -4.471  0.00  0.00    +0.000 A 
ATOM     25  C   UNL     1       5.979  -2.608  -4.738  0.00  0.00    +0.000 A 
ATOM     26  C   UNL     1       5.245  -3.327  -3.782  0.00  0.00    +0.000 A 
ATOM     27  C   UNL     1       4.764  -2.715  -2.613  0.00  0.00    +0.000 A 
BRANCH  25  28
ATOM     28  C   UNL     1       6.393  -3.283  -6.031  0.00  0.00    +0.000 C 
BRANCH  28  29
ATOM     29  N   UNL     1       7.710  -3.885  -6.020  0.00  0.00    +0.000 N 
ATOM     30  C   UNL     1       8.171  -4.526  -7.148  0.00  0.00    +0.000 C 
ATOM     31  O   UNL     1       7.501  -4.662  -8.167  0.00  0.00    +0.000 OA
ATOM     32  N   UNL     1       9.466  -4.985  -7.034  0.00  0.00    +0.000 N 
ATOM     33  C   UNL     1      10.335  -4.918  -5.873  0.00  0.00    +0.000 C 
ATOM     34  C   UNL     1      11.722  -4.994  -6.483  0.00  0.00    +0.000 C 
ATOM     35  C   UNL     1      11.538  -5.963  -7.649  0.00  0.00    +0.000 C 
ATOM     36  C   UNL     1      10.076  -5.792  -8.075  0.00  0.00    +0.000 C 
ATOM     37  H   UNL     1       8.433  -3.318  -5.623  0.00  0.00    +0.000 HD
ENDBRANCH  28  29
ENDBRANCH  25  28
ENDBRANCH  21  22
ENDBRANCH   3  21
TORSDOF 7
