REMARK  Name = 
REMARK  7 active torsions:
REMARK  status: ('A' for Active; 'I' for Inactive)
REMARK    1  A    between atoms: C_2  and  C_19
REMARK    2  A    between atoms: N_3  and  C_4
REMARK    3  A    between atoms: C_4  and  C_5
REMARK    4  A    between atoms: C_8  and  O_9
REMARK    5  A    between atoms: O_9  and  C_10
REMARK    6  A    between atoms: C_10  and  C_11
REMARK    7  A    between atoms: C_11  and  N_12
REMARK                            x       y       z     vdW  Elec       q    Type
REMARK                         _______ _______ _______ _____ _____    ______ ____
ROOT
ATOM      1  O   UNL     1       1.568  -3.284   0.380  0.00  0.00    +0.000 OA
ATOM      2  C   UNL     1       2.389  -2.373   0.490  0.00  0.00    +0.000 C 
ATOM      3  N   UNL     1       2.701  -1.543  -0.552  0.00  0.00    +0.000 N 
ATOM      4  H   UNL     1       3.501  -0.923  -0.471  0.00  0.00    +0.000 HD
ENDROOT
BRANCH   2   5
ATOM      5  C   UNL     1       3.048  -2.087   1.769  0.00  0.00    +0.000 A 
ATOM      6  C   UNL     1       2.478  -2.527   2.957  0.00  0.00    +0.000 A 
ATOM      7  S   UNL     1       3.364  -2.086   4.346  0.00  0.00    +0.000 S 
ATOM      8  C   UNL     1       4.563  -1.329   3.407  0.00  0.00    +0.000 A 
ATOM      9  N   UNL     1       5.650  -0.754   3.992  0.00  0.00    +0.000 NA
ATOM     10  C   UNL     1       6.502  -0.255   3.159  0.00  0.00    +0.000 A 
ATOM     11  N   UNL     1       6.360  -0.267   1.798  0.00  0.00    +0.000 N 
ATOM     12  C   UNL     1       5.248  -0.769   1.166  0.00  0.00    +0.000 A 
ATOM     13  O   UNL     1       5.095  -0.642  -0.045  0.00  0.00    +0.000 OA
ATOM     14  C   UNL     1       4.277  -1.386   2.055  0.00  0.00    +0.000 A 
ATOM     15  H   UNL     1       7.053   0.168   1.202  0.00  0.00    +0.000 HD
ENDBRANCH   2   5
BRANCH   3  16
ATOM     16  C   UNL     1       2.175  -1.723  -1.879  0.00  0.00    +0.000 C 
BRANCH  16  17
ATOM     17  C   UNL     1       3.105  -2.526  -2.739  0.00  0.00    +0.000 A 
ATOM     18  C   UNL     1       4.128  -1.940  -3.493  0.00  0.00    +0.000 A 
ATOM     19  C   UNL     1       4.928  -2.740  -4.311  0.00  0.00    +0.000 A 
ATOM     20  C   UNL     1       4.670  -4.100  -4.353  0.00  0.00    +0.000 A 
ATOM     21  N   UNL     1       3.726  -4.698  -3.596  0.00  0.00    +0.000 NA
ATOM     22  C   UNL     1       2.977  -3.907  -2.802  0.00  0.00    +0.000 A 
BRANCH  20  23
ATOM     23  O   UNL     1       5.434  -4.872  -5.208  0.00  0.00    +0.000 OA
BRANCH  23  24
ATOM     24  C   UNL     1       4.759  -6.098  -5.541  0.00  0.00    +0.000 C 
BRANCH  24  25
ATOM     25  C   UNL     1       5.672  -6.989  -6.400  0.00  0.00    +0.000 C 
BRANCH  25  26
ATOM     26  N   UNL     1       4.993  -8.190  -6.928  0.00  0.00    +0.000 NA
ATOM     27  C   UNL     1       5.903  -8.993  -7.756  0.00  0.00    +0.000 C 
ATOM     28  C   UNL     1       6.619  -9.911  -6.779  0.00  0.00    +0.000 C 
ATOM     29  O   UNL     1       5.795  -9.974  -5.609  0.00  0.00    +0.000 OA
ATOM     30  C   UNL     1       4.659  -9.154  -5.877  0.00  0.00    +0.000 C 
ENDBRANCH  25  26
ENDBRANCH  24  25
ENDBRANCH  23  24
ENDBRANCH  20  23
ENDBRANCH  16  17
ENDBRANCH   3  16
TORSDOF 7
