REMARK  Name = 
REMARK  8 active torsions:
REMARK  status: ('A' for Active; 'I' for Inactive)
REMARK    1  A    between atoms: N_1  and  C_2
REMARK    2  A    between atoms: C_2  and  C_3
REMARK    3  A    between atoms: C_6  and  O_7
REMARK    4  A    between atoms: O_7  and  C_8
REMARK    5  A    between atoms: C_8  and  C_9
REMARK    6  A    between atoms: C_9  and  C_10
REMARK    7  A    between atoms: CA_13  and  C_14
REMARK    8  A    between atoms: C_14  and  OXT_16
REMARK                            x       y       z     vdW  Elec       q    Type
REMARK                         _______ _______ _______ _____ _____    ______ ____
ROOT
ATOM      1  O   UNL     1       3.966   3.425   4.298  0.00  0.00    +0.000 OA
ENDROOT
BRANCH   1   5
ATOM      2  C   UNL     1       3.093   0.927   1.027  0.00  0.00    +0.000 A 
ATOM      3  C   UNL     1       3.673   0.475   2.212  0.00  0.00    +0.000 A 
ATOM      4  C   UNL     1       3.936   1.372   3.256  0.00  0.00    +0.000 A 
ATOM      5  C   UNL     1       3.627   2.740   3.153  0.00  0.00    +0.000 A 
ATOM      6  C   UNL     1       3.048   3.194   1.955  0.00  0.00    +0.000 A 
ATOM      7 CL   UNL     1       2.593   4.825   1.585  0.00  0.00    +0.000 Cl
ATOM      8  C   UNL     1       2.788   2.289   0.916  0.00  0.00    +0.000 A 
BRANCH   2   9
ATOM      9  C   UNL     1       2.778  -0.006  -0.113  0.00  0.00    +0.000 C 
BRANCH   9  10
ATOM     10  N   UNL     1       3.487   0.381  -1.326  0.00  0.00    +0.000 NA
ATOM     11  H   UNL     1       3.300  -0.301  -2.057  0.00  0.00    +0.000 HD
ATOM     12  H   UNL     1       4.490   0.350  -1.150  0.00  0.00    +0.000 HD
ENDBRANCH   9  10
ENDBRANCH   2   9
ENDBRANCH   1   5
BRANCH   1  13
ATOM     13  C   UNL     1       3.687   4.818   4.359  0.00  0.00    +0.000 C 
BRANCH  13  14
ATOM     14  C   UNL     1       4.105   5.410   5.706  0.00  0.00    +0.000 C 
BRANCH  14  15
ATOM     15  C   UNL     1       3.808   6.889   5.725  0.00  0.00    +0.000 A 
ATOM     16  C   UNL     1       2.557   7.368   6.130  0.00  0.00    +0.000 A 
ATOM     17  C   UNL     1       2.275   8.728   6.048  0.00  0.00    +0.000 A 
ATOM     18  CA  UNL     1       3.264   9.567   5.559  0.00  0.00    +0.000 A 
ATOM     19  N   UNL     1       4.499   9.148   5.152  0.00  0.00    +0.000 NA
ATOM     20  C   UNL     1       4.732   7.817   5.244  0.00  0.00    +0.000 A 
BRANCH  18  21
ATOM     21  C   UNL     1       3.012  11.033   5.436  0.00  0.00    +0.000 C 
ATOM     22  O   UNL     1       1.978  11.593   5.749  0.00  0.00    +0.000 OA
BRANCH  21  23
ATOM     23  OXT UNL     1       4.101  11.658   4.927  0.00  0.00    +0.000 OA
ATOM     24  HXT UNL     1       4.797  10.981   4.759  0.00  0.00    +0.000 HD
ENDBRANCH  21  23
ENDBRANCH  18  21
ENDBRANCH  14  15
ENDBRANCH  13  14
ENDBRANCH   1  13
TORSDOF 8
