REMARK  Name = 
REMARK  3 active torsions:
REMARK  status: ('A' for Active; 'I' for Inactive)
REMARK    1  A    between atoms: C_2  and  C_4
REMARK    2  A    between atoms: N_8  and  C_9
REMARK    3  A    between atoms: C_9  and  C_10
REMARK                            x       y       z     vdW  Elec       q    Type
REMARK                         _______ _______ _______ _____ _____    ______ ____
ROOT
ATOM      1  C   UNL     1       3.595   3.475  -0.887  0.00  0.00    +0.000 A 
ATOM      2  C   UNL     1       2.817   3.806   0.219  0.00  0.00    +0.000 A 
ATOM      3  C   UNL     1       3.406   3.832   1.487  0.00  0.00    +0.000 A 
ATOM      4  C   UNL     1       4.751   3.520   1.627  0.00  0.00    +0.000 A 
ATOM      5  N   UNL     1       5.384   3.413   2.869  0.00  0.00    +0.000 N 
ATOM      6  N   UNL     1       5.515   3.196   0.561  0.00  0.00    +0.000 NA
ATOM      7  C   UNL     1       4.928   3.176  -0.666  0.00  0.00    +0.000 A 
ATOM      8  H   UNL     1       6.368   3.235   2.661  0.00  0.00    +0.000 HD
ENDROOT
BRANCH   1  10
ATOM      9  N   UNL     1       1.922   4.121  -2.524  0.00  0.00    +0.000 N 
ATOM     10  C   UNL     1       3.041   3.381  -2.253  0.00  0.00    +0.000 C 
ATOM     11  O   UNL     1       3.566   2.686  -3.112  0.00  0.00    +0.000 OA
ATOM     12  H   UNL     1       1.585   4.105  -3.478  0.00  0.00    +0.000 HD
ATOM     13  H   UNL     1       1.603   4.870  -1.928  0.00  0.00    +0.000 HD
ENDBRANCH   1  10
BRANCH   5  14
ATOM     14  C   UNL     1       5.118   4.285   4.027  0.00  0.00    +0.000 C 
ATOM     15  C   UNL     1       5.025   3.543   5.356  0.00  0.00    +0.000 C 
ATOM     16  C   UNL     1       3.827   4.254   4.825  0.00  0.00    +0.000 C 
BRANCH  14  17
ATOM     17  C   UNL     1       5.885   5.603   3.977  0.00  0.00    +0.000 A 
ATOM     18  C   UNL     1       7.177   5.727   4.522  0.00  0.00    +0.000 A 
ATOM     19  C   UNL     1       7.907   6.915   4.417  0.00  0.00    +0.000 A 
ATOM     20  C   UNL     1       7.357   8.011   3.758  0.00  0.00    +0.000 A 
ATOM     21  C   UNL     1       6.076   7.917   3.223  0.00  0.00    +0.000 A 
ATOM     22 CL   UNL     1       5.391   9.267   2.403  0.00  0.00    +0.000 Cl
ATOM     23  C   UNL     1       5.346   6.732   3.334  0.00  0.00    +0.000 A 
ENDBRANCH  14  17
ENDBRANCH   5  14
TORSDOF 3
