REMARK  Name = 
REMARK  8 active torsions:
REMARK  status: ('A' for Active; 'I' for Inactive)
REMARK    1  A    between atoms: C_1  and  C_2
REMARK    2  A    between atoms: C_2  and  C_3
REMARK    3  A    between atoms: C_2  and  C_4
REMARK    4  A    between atoms: C_2  and  C_5
REMARK    5  A    between atoms: N_7  and  C_8
REMARK    6  A    between atoms: C_8  and  C_9
REMARK    7  A    between atoms: C_12  and  C_13
REMARK    8  A    between atoms: C_13  and  N_14
REMARK                            x       y       z     vdW  Elec       q    Type
REMARK                         _______ _______ _______ _____ _____    ______ ____
ROOT
ATOM      1  C   UNL     1       2.946   1.127  -0.992  0.00  0.00    +0.000 A 
ATOM      2  C   UNL     1       2.625   2.460  -0.782  0.00  0.00    +0.000 A 
ATOM      3  N   UNL     1       3.170   3.228  -1.776  0.00  0.00    +0.000 N 
ATOM      4  C   UNL     1       3.797   2.419  -2.698  0.00  0.00    +0.000 A 
ATOM      5  C   UNL     1       4.445   2.738  -3.907  0.00  0.00    +0.000 A 
ATOM      6  C   UNL     1       5.028   1.711  -4.646  0.00  0.00    +0.000 A 
ATOM      7  C   UNL     1       4.976   0.401  -4.197  0.00  0.00    +0.000 A 
ATOM      8  C   UNL     1       4.323   0.090  -2.997  0.00  0.00    +0.000 A 
ATOM      9  C   UNL     1       3.705   1.100  -2.222  0.00  0.00    +0.000 A 
ENDROOT
BRANCH   1  11
ATOM     10  C   UNL     1       0.959  -0.089  -0.052  0.00  0.00    +0.000 C 
ATOM     11  C   UNL     1       2.503  -0.002  -0.054  0.00  0.00    +0.000 C 
ATOM     12  C   UNL     1       2.983   0.289   1.387  0.00  0.00    +0.000 C 
ATOM     13  C   UNL     1       3.037  -1.394  -0.431  0.00  0.00    +0.000 C 
ENDBRANCH   1  11
BRANCH   3  14
ATOM     14  C   UNL     1       3.063   4.684  -1.831  0.00  0.00    +0.000 C 
BRANCH  14  15
ATOM     15  C   UNL     1       4.193   5.344  -1.079  0.00  0.00    +0.000 A 
ATOM     16  C   UNL     1       5.397   5.655  -1.725  0.00  0.00    +0.000 A 
ATOM     17  C   UNL     1       6.485   6.153  -1.003  0.00  0.00    +0.000 A 
ATOM     18  C   UNL     1       6.396   6.361   0.380  0.00  0.00    +0.000 A 
ATOM     19  C   UNL     1       5.180   6.081   1.019  0.00  0.00    +0.000 A 
ATOM     20  C   UNL     1       4.089   5.585   0.298  0.00  0.00    +0.000 A 
BRANCH  18  21
ATOM     21  C   UNL     1       7.634   6.747   1.154  0.00  0.00    +0.000 C 
BRANCH  21  22
ATOM     22  N   UNL     1       7.358   7.575   2.323  0.00  0.00    +0.000 NA
ATOM     23  H   UNL     1       6.945   8.451   2.011  0.00  0.00    +0.000 HD
ATOM     24  H   UNL     1       8.242   7.815   2.770  0.00  0.00    +0.000 HD
ENDBRANCH  21  22
ENDBRANCH  18  21
ENDBRANCH  14  15
ENDBRANCH   3  14
TORSDOF 5
