REMARK  Name = 
REMARK  5 active torsions:
REMARK  status: ('A' for Active; 'I' for Inactive)
REMARK    1  A    between atoms: C_2  and  C_4
REMARK    2  A    between atoms: C_7  and  N_8
REMARK    3  A    between atoms: N_8  and  C_9
REMARK    4  A    between atoms: C_9  and  C_10
REMARK    5  A    between atoms: C_14  and  C_15
REMARK                            x       y       z     vdW  Elec       q    Type
REMARK                         _______ _______ _______ _____ _____    ______ ____
ROOT
ATOM      1  C   UNL     1       4.485  -5.867   1.700  0.00  0.00    +0.000 C 
ENDROOT
BRANCH   1   2
ATOM      2  C   UNL     1       5.190  -6.956   2.485  0.00  0.00    +0.000 A 
ATOM      3  C   UNL     1       6.178  -6.648   3.424  0.00  0.00    +0.000 A 
ATOM      4  C   UNL     1       6.796  -7.667   4.146  0.00  0.00    +0.000 A 
ATOM      5  C   UNL     1       6.423  -9.000   3.945  0.00  0.00    +0.000 A 
ATOM      6  C   UNL     1       5.421  -9.351   3.024  0.00  0.00    +0.000 A 
ATOM      7  C   UNL     1       4.836  -8.305   2.287  0.00  0.00    +0.000 A 
BRANCH   6   8
ATOM      8  C   UNL     1       4.965 -10.753   2.865  0.00  0.00    +0.000 A 
ATOM      9  C   UNL     1       4.544 -11.260   1.620  0.00  0.00    +0.000 A 
ATOM     10  C   UNL     1       4.072 -12.572   1.481  0.00  0.00    +0.000 A 
ATOM     11  C   UNL     1       4.024 -13.413   2.588  0.00  0.00    +0.000 A 
ATOM     12  C   UNL     1       4.443 -12.933   3.819  0.00  0.00    +0.000 A 
ATOM     13  F   UNL     1       4.396 -13.736   4.891  0.00  0.00    +0.000 F 
ATOM     14  C   UNL     1       4.902 -11.626   3.966  0.00  0.00    +0.000 A 
ENDBRANCH   6   8
ENDBRANCH   1   2
BRANCH   1  15
ATOM     15  N   UNL     1       3.049  -6.003   1.917  0.00  0.00    +0.000 N 
ATOM     16  H   UNL     1       2.824  -6.028   2.907  0.00  0.00    +0.000 HD
BRANCH  15  20
ATOM     17  C   UNL     1       0.507  -3.452  -0.057  0.00  0.00    +0.000 A 
ATOM     18  C   UNL     1       1.880  -3.331  -0.204  0.00  0.00    +0.000 A 
ATOM     19  N   UNL     1       2.763  -4.145   0.440  0.00  0.00    +0.000 NA
ATOM     20  C   UNL     1       2.233  -5.087   1.248  0.00  0.00    +0.000 A 
ATOM     21  C   UNL     1       0.839  -5.194   1.378  0.00  0.00    +0.000 A 
ATOM     22  N   UNL     1      -0.058  -4.391   0.749  0.00  0.00    +0.000 NA
BRANCH  17  24
ATOM     23  N   UNL     1      -1.744  -2.716  -0.566  0.00  0.00    +0.000 N 
ATOM     24  C   UNL     1      -0.406  -2.543  -0.801  0.00  0.00    +0.000 C 
ATOM     25  O   UNL     1       0.009  -1.691  -1.577  0.00  0.00    +0.000 OA
ATOM     26  H   UNL     1      -2.413  -2.138  -1.049  0.00  0.00    +0.000 HD
ATOM     27  H   UNL     1      -2.056  -3.431   0.082  0.00  0.00    +0.000 HD
ENDBRANCH  17  24
ENDBRANCH  15  20
ENDBRANCH   1  15
TORSDOF 5
