REMARK  Name = 
REMARK  6 active torsions:
REMARK  status: ('A' for Active; 'I' for Inactive)
REMARK    1  A    between atoms: C_2  and  C_4
REMARK    2  A    between atoms: N_8  and  C_9
REMARK    3  A    between atoms: C_9  and  C_10
REMARK    4  A    between atoms: C_10  and  C_13
REMARK    5  A    between atoms: C_17  and  N_18
REMARK    6  A    between atoms: N_18  and  C_19
REMARK                            x       y       z     vdW  Elec       q    Type
REMARK                         _______ _______ _______ _____ _____    ______ ____
ROOT
ATOM      1  C   UNL     1       6.489  -4.010   5.492  0.00  0.00    +0.000 C 
ATOM      2  F   UNL     1       7.314  -3.910   4.404  0.00  0.00    +0.000 F 
ATOM      3  F   UNL     1       7.082  -3.246   6.459  0.00  0.00    +0.000 F 
ENDROOT
BRANCH   1   4
ATOM      4  C   UNL     1       6.325  -5.449   5.945  0.00  0.00    +0.000 A 
ATOM      5  C   UNL     1       6.348  -6.503   5.024  0.00  0.00    +0.000 A 
ATOM      6  C   UNL     1       6.188  -7.820   5.458  0.00  0.00    +0.000 A 
ATOM      7  C   UNL     1       5.995  -8.098   6.814  0.00  0.00    +0.000 A 
ATOM      8  C   UNL     1       5.975  -7.065   7.752  0.00  0.00    +0.000 A 
ATOM      9  C   UNL     1       6.145  -5.747   7.307  0.00  0.00    +0.000 A 
BRANCH   8  10
ATOM     10  N   UNL     1       5.803  -7.285   9.136  0.00  0.00    +0.000 N 
ATOM     11  H   UNL     1       6.639  -6.967   9.627  0.00  0.00    +0.000 HD
BRANCH  10  12
ATOM     12  C   UNL     1       5.238  -8.460   9.735  0.00  0.00    +0.000 C 
ATOM     13  C   UNL     1       3.716  -8.569   9.493  0.00  0.00    +0.000 C 
ATOM     14  C   UNL     1       3.526  -8.805  11.000  0.00  0.00    +0.000 C 
ATOM     15  C   UNL     1       4.932  -8.232  11.233  0.00  0.00    +0.000 C 
ENDBRANCH  10  12
ENDBRANCH   8  10
ENDBRANCH   1   4
BRANCH   1  16
ATOM     16  C   UNL     1       5.123  -3.374   5.119  0.00  0.00    +0.000 C 
BRANCH  16  21
ATOM     17  C   UNL     1       2.102   0.405   3.451  0.00  0.00    +0.000 A 
ATOM     18  C   UNL     1       1.819  -0.611   4.357  0.00  0.00    +0.000 A 
ATOM     19  C   UNL     1       2.857  -1.435   4.800  0.00  0.00    +0.000 A 
ATOM     20  C   UNL     1       4.146  -1.242   4.320  0.00  0.00    +0.000 A 
ATOM     21  N   UNL     1       5.239  -1.949   4.775  0.00  0.00    +0.000 N 
ATOM     22  N   UNL     1       4.424  -0.280   3.418  0.00  0.00    +0.000 NA
ATOM     23  C   UNL     1       3.406   0.518   2.998  0.00  0.00    +0.000 A 
ATOM     24  H   UNL     1       6.042  -1.708   4.193  0.00  0.00    +0.000 HD
BRANCH  17  26
ATOM     25  N   UNL     1       0.007   1.593   3.775  0.00  0.00    +0.000 N 
ATOM     26  C   UNL     1       1.081   1.354   2.961  0.00  0.00    +0.000 C 
ATOM     27  O   UNL     1       1.207   1.936   1.893  0.00  0.00    +0.000 OA
ATOM     28  H   UNL     1      -0.617   2.334   3.483  0.00  0.00    +0.000 HD
ATOM     29  H   UNL     1       0.006   1.347   4.755  0.00  0.00    +0.000 HD
ENDBRANCH  17  26
ENDBRANCH  16  21
ENDBRANCH   1  16
TORSDOF 6
