REMARK  Name = 
REMARK  7 active torsions:
REMARK  status: ('A' for Active; 'I' for Inactive)
REMARK    1  A    between atoms: C_1  and  N_2
REMARK    2  A    between atoms: C_6  and  C_7
REMARK    3  A    between atoms: N_9  and  C_10
REMARK    4  A    between atoms: C_10  and  C_11
REMARK    5  A    between atoms: C_14  and  C_15
REMARK    6  A    between atoms: C_15  and  N_16
REMARK    7  A    between atoms: C_17  and  C_19
REMARK                            x       y       z     vdW  Elec       q    Type
REMARK                         _______ _______ _______ _____ _____    ______ ____
ROOT
ATOM      1  C   UNL     1      -3.626  -4.423   0.212  0.00  0.00    +0.000 C 
ATOM      2  C   UNL     1      -4.172  -3.243   1.028  0.00  0.00    +0.000 C 
ATOM      3  C   UNL     1      -5.689  -3.322   1.190  0.00  0.00    +0.000 C 
ATOM      4  C   UNL     1      -6.126  -4.635   1.858  0.00  0.00    +0.000 C 
ATOM      5  C   UNL     1      -5.578  -5.831   1.062  0.00  0.00    +0.000 C 
ATOM      6  C   UNL     1      -4.063  -5.750   0.857  0.00  0.00    +0.000 C 
ENDROOT
BRANCH   1   7
ATOM      7  C   UNL     1      -2.093  -4.371   0.087  0.00  0.00    +0.000 C 
BRANCH   7  10
ATOM      8  C   UNL     1      -1.417  -3.002  -1.895  0.00  0.00    +0.000 C 
ATOM      9  O   UNL     1      -1.627  -3.914  -2.689  0.00  0.00    +0.000 OA
ATOM     10  N   UNL     1      -1.614  -3.152  -0.538  0.00  0.00    +0.000 N 
ATOM     11  H   UNL     1      -1.461  -2.361   0.065  0.00  0.00    +0.000 HD
BRANCH   8  17
ATOM     12  C   UNL     1      -0.748  -2.090  -4.797  0.00  0.00    +0.000 C 
ATOM     13  N   UNL     1      -0.664  -1.301  -3.588  0.00  0.00    +0.000 N 
ATOM     14  N   UNL     1      -0.248  -0.019  -3.693  0.00  0.00    +0.000 NA
ATOM     15  C   UNL     1      -0.253   0.425  -2.441  0.00  0.00    +0.000 A 
ATOM     16  C   UNL     1      -0.670  -0.560  -1.534  0.00  0.00    +0.000 A 
ATOM     17  C   UNL     1      -0.946  -1.689  -2.294  0.00  0.00    +0.000 A 
ENDBRANCH   8  17
ENDBRANCH   7  10
ENDBRANCH   1   7
BRANCH   4  18
ATOM     18  C   UNL     1      -7.657  -4.731   1.984  0.00  0.00    +0.000 C 
BRANCH  18  19
ATOM     19  N   UNL     1      -8.218  -3.672   2.800  0.00  0.00    +0.000 N 
ATOM     20  C   UNL     1      -9.560  -3.593   3.070  0.00  0.00    +0.000 C 
ATOM     21  O   UNL     1     -10.350  -4.433   2.646  0.00  0.00    +0.000 OA
ATOM     22  H   UNL     1      -7.588  -2.967   3.170  0.00  0.00    +0.000 HD
BRANCH  20  23
ATOM     23  C   UNL     1     -10.021  -2.452   3.882  0.00  0.00    +0.000 A 
ATOM     24  C   UNL     1     -11.381  -2.317   4.140  0.00  0.00    +0.000 A 
ATOM     25  S   UNL     1     -11.778  -0.949   5.072  0.00  0.00    +0.000 S 
ATOM     26  C   UNL     1     -10.148  -0.475   5.167  0.00  0.00    +0.000 A 
ATOM     27  N   UNL     1      -9.796   0.658   5.832  0.00  0.00    +0.000 NA
ATOM     28  C   UNL     1      -8.530   0.906   5.835  0.00  0.00    +0.000 A 
ATOM     29  N   UNL     1      -7.583   0.119   5.237  0.00  0.00    +0.000 N 
ATOM     30  C   UNL     1      -7.890  -1.040   4.562  0.00  0.00    +0.000 A 
ATOM     31  O   UNL     1      -7.007  -1.726   4.059  0.00  0.00    +0.000 OA
ATOM     32  C   UNL     1      -9.306  -1.358   4.510  0.00  0.00    +0.000 A 
ATOM     33  H   UNL     1      -6.605   0.363   5.286  0.00  0.00    +0.000 HD
ENDBRANCH  20  23
ENDBRANCH  18  19
ENDBRANCH   4  18
TORSDOF 6
