REMARK  Name = 
REMARK  2 active torsions:
REMARK  status: ('A' for Active; 'I' for Inactive)
REMARK    1  A    between atoms: C_4  and  C_5
REMARK    2  A    between atoms: C_5  and  N_6
REMARK                            x       y       z     vdW  Elec       q    Type
REMARK                         _______ _______ _______ _____ _____    ______ ____
ROOT
ATOM      1  N   UNL     1      -3.677  -0.809  -0.215  0.00  0.00    +0.000 N 
ATOM      2  C   UNL     1      -4.132  -1.489   0.890  0.00  0.00    +0.000 A 
ATOM      3  C   UNL     1      -4.946  -2.509   0.457  0.00  0.00    +0.000 A 
ATOM      4  C   UNL     1      -4.997  -2.450  -0.962  0.00  0.00    +0.000 A 
ATOM      5  C   UNL     1      -5.654  -3.204  -1.944  0.00  0.00    +0.000 A 
ATOM      6  C   UNL     1      -5.445  -2.824  -3.260  0.00  0.00    +0.000 A 
ATOM      7  N   UNL     1      -4.661  -1.797  -3.650  0.00  0.00    +0.000 NA
ATOM      8  C   UNL     1      -4.024  -1.064  -2.709  0.00  0.00    +0.000 A 
ATOM      9  C   UNL     1      -4.192  -1.381  -1.363  0.00  0.00    +0.000 A 
ENDROOT
BRANCH   1  10
ATOM     10  C   UNL     1      -2.857   0.399  -0.156  0.00  0.00    +0.000 C 
BRANCH  10  14
ATOM     11  C   UNL     1       1.428  -0.154   0.067  0.00  0.00    +0.000 A 
ATOM     12  C   UNL     1       0.647  -1.123  -0.558  0.00  0.00    +0.000 A 
ATOM     13  C   UNL     1      -0.740  -0.973  -0.626  0.00  0.00    +0.000 A 
ATOM     14  C   UNL     1      -1.370   0.145  -0.056  0.00  0.00    +0.000 A 
ATOM     15  C   UNL     1      -0.564   1.118   0.562  0.00  0.00    +0.000 A 
ATOM     16  C   UNL     1       0.823   0.968   0.625  0.00  0.00    +0.000 A 
ENDBRANCH  10  14
ENDBRANCH   1  10
TORSDOF 2
