REMARK  Name = 
REMARK  3 active torsions:
REMARK  status: ('A' for Active; 'I' for Inactive)
REMARK    1  A    between atoms: C_2  and  C_4
REMARK    2  A    between atoms: N_8  and  C_9
REMARK    3  A    between atoms: C_9  and  C_10
REMARK                            x       y       z     vdW  Elec       q    Type
REMARK                         _______ _______ _______ _____ _____    ______ ____
ROOT
ATOM      1  C   UNL     1       2.918  -0.148   1.678  0.00  0.00    +0.000 A 
ATOM      2  C   UNL     1       4.223  -0.290   1.216  0.00  0.00    +0.000 A 
ATOM      3  C   UNL     1       5.167  -0.900   2.038  0.00  0.00    +0.000 A 
ATOM      4  C   UNL     1       4.793  -1.387   3.291  0.00  0.00    +0.000 A 
ATOM      5  N   UNL     1       5.773  -2.037   4.050  0.00  0.00    +0.000 N 
ATOM      6  N   UNL     1       3.535  -1.249   3.752  0.00  0.00    +0.000 NA
ATOM      7  C   UNL     1       2.635  -0.616   2.955  0.00  0.00    +0.000 A 
ATOM      8  H   UNL     1       6.481  -1.355   4.314  0.00  0.00    +0.000 HD
ENDROOT
BRANCH   1  10
ATOM      9  N   UNL     1       1.950   0.448  -0.471  0.00  0.00    +0.000 N 
ATOM     10  C   UNL     1       1.847   0.496   0.893  0.00  0.00    +0.000 C 
ATOM     11  O   UNL     1       0.888   1.028   1.435  0.00  0.00    +0.000 OA
ATOM     12  H   UNL     1       1.160   0.808  -0.993  0.00  0.00    +0.000 HD
ATOM     13  H   UNL     1       2.575  -0.185  -0.949  0.00  0.00    +0.000 HD
ENDBRANCH   1  10
BRANCH   5  14
ATOM     14  C   UNL     1       5.296  -2.773   5.210  0.00  0.00    +0.000 C 
BRANCH  14  15
ATOM     15  C   UNL     1       6.392  -3.709   5.676  0.00  0.00    +0.000 A 
ATOM     16  C   UNL     1       6.252  -5.092   5.448  0.00  0.00    +0.000 A 
ATOM     17  C   UNL     1       7.245  -5.992   5.844  0.00  0.00    +0.000 A 
ATOM     18  C   UNL     1       8.400  -5.527   6.464  0.00  0.00    +0.000 A 
ATOM     19  C   UNL     1       8.561  -4.160   6.692  0.00  0.00    +0.000 A 
ATOM     20  C   UNL     1       7.567  -3.257   6.302  0.00  0.00    +0.000 A 
ATOM     21 CL   UNL     1       7.845  -1.579   6.607  0.00  0.00    +0.000 Cl
ENDBRANCH  14  15
ENDBRANCH   5  14
TORSDOF 3
