REMARK  Name = 
REMARK  5 active torsions:
REMARK  status: ('A' for Active; 'I' for Inactive)
REMARK    1  A    between atoms: N_1  and  C_2
REMARK    2  A    between atoms: C_2  and  C_3
REMARK    3  A    between atoms: C_5  and  C_6
REMARK    4  A    between atoms: C_6  and  N_7
REMARK    5  A    between atoms: C_12  and  C_13
REMARK                            x       y       z     vdW  Elec       q    Type
REMARK                         _______ _______ _______ _____ _____    ______ ____
ROOT
ATOM      1  N   UNL     1       7.182  -1.503   2.384  0.00  0.00    +0.000 N 
ATOM      2  C   UNL     1       7.817  -0.604   1.561  0.00  0.00    +0.000 A 
ATOM      3  C   UNL     1       8.804   0.018   2.285  0.00  0.00    +0.000 A 
ATOM      4  C   UNL     1       8.733  -0.474   3.613  0.00  0.00    +0.000 A 
ATOM      5  C   UNL     1       9.462  -0.174   4.780  0.00  0.00    +0.000 A 
ATOM      6  C   UNL     1       9.132  -0.803   5.988  0.00  0.00    +0.000 A 
ATOM      7  C   UNL     1       8.099  -1.752   6.010  0.00  0.00    +0.000 A 
ATOM      8  C   UNL     1       7.377  -2.084   4.854  0.00  0.00    +0.000 A 
ATOM      9  C   UNL     1       7.705  -1.421   3.662  0.00  0.00    +0.000 A 
ENDROOT
BRANCH   6  10
ATOM     10  C   UNL     1       9.836  -0.484   7.263  0.00  0.00    +0.000 C 
ATOM     11  N   UNL     1      10.830   0.456   7.255  0.00  0.00    +0.000 N 
ATOM     12  O   UNL     1       9.533  -1.040   8.317  0.00  0.00    +0.000 OA
ATOM     13  H   UNL     1      11.136   0.978   6.448  0.00  0.00    +0.000 HD
ATOM     14  H   UNL     1      11.269   0.659   8.139  0.00  0.00    +0.000 HD
ENDBRANCH   6  10
BRANCH   1  15
ATOM     15  C   UNL     1       6.156  -2.431   1.924  0.00  0.00    +0.000 C 
BRANCH  15  18
ATOM     16  C   UNL     1       2.937  -0.640   1.197  0.00  0.00    +0.000 C 
ATOM     17  C   UNL     1       4.453  -0.628   1.299  0.00  0.00    +0.000 C 
ATOM     18  C   UNL     1       4.732  -1.900   2.072  0.00  0.00    +0.000 C 
ATOM     19  C   UNL     1       3.681  -2.834   1.487  0.00  0.00    +0.000 C 
ATOM     20  O   UNL     1       2.543  -2.027   1.135  0.00  0.00    +0.000 OA
BRANCH  16  21
ATOM     21  C   UNL     1       2.400   0.150  -0.007  0.00  0.00    +0.000 C 
BRANCH  21  22
ATOM     22  N   UNL     1       2.883  -0.374  -1.290  0.00  0.00    +0.000 NA
ATOM     23  H   UNL     1       2.427   0.125  -2.051  0.00  0.00    +0.000 HD
ATOM     24  H   UNL     1       2.581  -1.348  -1.358  0.00  0.00    +0.000 HD
ENDBRANCH  21  22
ENDBRANCH  16  21
ENDBRANCH  15  18
ENDBRANCH   1  15
TORSDOF 5
