REMARK  Name = 
REMARK  8 active torsions:
REMARK  status: ('A' for Active; 'I' for Inactive)
REMARK    1  A    between atoms: C_1  and  C_2
REMARK    2  A    between atoms: C_2  and  N_3
REMARK    3  A    between atoms: N_3  and  C_4
REMARK    4  A    between atoms: C_4  and  C_5
REMARK    5  A    between atoms: C_8  and  C_9
REMARK    6  A    between atoms: C_9  and  N_10
REMARK    7  A    between atoms: C_11  and  C_13
REMARK    8  A    between atoms: C_20  and  C_22
REMARK                            x       y       z     vdW  Elec       q    Type
REMARK                         _______ _______ _______ _____ _____    ______ ____
ROOT
ATOM      1  C   UNL     1       2.048  -1.977   1.455  0.00  0.00    +0.000 C 
ENDROOT
BRANCH   1   2
ATOM      2  C   UNL     1       0.592  -1.600   1.290  0.00  0.00    +0.000 A 
ATOM      3  C   UNL     1      -0.253  -2.362   0.464  0.00  0.00    +0.000 A 
ATOM      4  C   UNL     1      -1.591  -2.000   0.274  0.00  0.00    +0.000 A 
ATOM      5  C   UNL     1      -2.110  -0.857   0.894  0.00  0.00    +0.000 A 
ATOM      6  C   UNL     1      -1.297  -0.156   1.795  0.00  0.00    +0.000 A 
ATOM      7  C   UNL     1       0.042  -0.519   1.986  0.00  0.00    +0.000 A 
BRANCH   5   8
ATOM      8  C   UNL     1      -3.486  -0.347   0.547  0.00  0.00    +0.000 C 
BRANCH   8   9
ATOM      9  N   UNL     1      -4.526  -0.900   1.373  0.00  0.00    +0.000 N 
ATOM     10  C   UNL     1      -5.825  -0.464   1.240  0.00  0.00    +0.000 C 
ATOM     11  O   UNL     1      -6.150   0.420   0.453  0.00  0.00    +0.000 OA
ATOM     12  H   UNL     1      -4.317  -1.697   1.955  0.00  0.00    +0.000 HD
BRANCH  10  13
ATOM     13  C   UNL     1      -6.788  -1.124   2.079  0.00  0.00    +0.000 A 
ATOM     14  C   UNL     1      -6.681  -2.096   3.055  0.00  0.00    +0.000 A 
ATOM     15  C   UNL     1      -7.996  -2.310   3.504  0.00  0.00    +0.000 A 
ATOM     16  N   UNL     1      -8.881  -1.539   2.870  0.00  0.00    +0.000 NA
ATOM     17  N   UNL     1      -8.124  -0.822   2.020  0.00  0.00    +0.000 N 
ATOM     18  H   UNL     1      -8.574  -0.139   1.415  0.00  0.00    +0.000 HD
ENDBRANCH  10  13
ENDBRANCH   8   9
ENDBRANCH   5   8
ENDBRANCH   1   2
BRANCH   1  19
ATOM     19  N   UNL     1       3.076  -1.277   0.664  0.00  0.00    +0.000 N 
ATOM     20  C   UNL     1       4.463  -1.405   0.904  0.00  0.00    +0.000 C 
ATOM     21  O   UNL     1       5.291  -0.834   0.199  0.00  0.00    +0.000 OA
BRANCH  20  22
ATOM     22  C   UNL     1       4.934  -2.274   1.992  0.00  0.00    +0.000 A 
ATOM     23  C   UNL     1       4.534  -3.588   2.165  0.00  0.00    +0.000 A 
ATOM     24  S   UNL     1       5.278  -4.361   3.490  0.00  0.00    +0.000 S 
ATOM     25  C   UNL     1       6.284  -3.020   3.773  0.00  0.00    +0.000 A 
ATOM     26  N   UNL     1       7.247  -3.062   4.731  0.00  0.00    +0.000 NA
ATOM     27  C   UNL     1       7.988  -2.006   4.780  0.00  0.00    +0.000 A 
ATOM     28  N   UNL     1       7.829  -0.899   3.983  0.00  0.00    +0.000 N 
ATOM     29  C   UNL     1       6.787  -0.761   3.087  0.00  0.00    +0.000 A 
ATOM     30  O   UNL     1       6.560   0.317   2.547  0.00  0.00    +0.000 OA
ATOM     31  C   UNL     1       5.994  -1.967   2.924  0.00  0.00    +0.000 A 
ATOM     32  H   UNL     1       8.412  -0.087   4.111  0.00  0.00    +0.000 HD
ENDBRANCH  20  22
BRANCH  19  34
ATOM     33  C   UNL     1       2.788   1.033  -0.208  0.00  0.00    +0.000 C 
ATOM     34  C   UNL     1       2.698  -0.461  -0.496  0.00  0.00    +0.000 C 
ENDBRANCH  19  34
ENDBRANCH   1  19
TORSDOF 7
