REMARK  Name = 
REMARK  6 active torsions:
REMARK  status: ('A' for Active; 'I' for Inactive)
REMARK    1  A    between atoms: N_1  and  C_2
REMARK    2  A    between atoms: C_2  and  C_3
REMARK    3  A    between atoms: C_3  and  C_4
REMARK    4  A    between atoms: C_4  and  C_5
REMARK    5  A    between atoms: N_7  and  C_8
REMARK    6  A    between atoms: C_8  and  C_9
REMARK                            x       y       z     vdW  Elec       q    Type
REMARK                         _______ _______ _______ _____ _____    ______ ____
ROOT
ATOM      1  C   UNL     1       4.961   1.710   2.166  0.00  0.00    +0.000 A 
ATOM      2  C   UNL     1       4.801   3.081   2.220  0.00  0.00    +0.000 A 
ATOM      3  N   UNL     1       5.256   3.531   3.433  0.00  0.00    +0.000 N 
ATOM      4  C   UNL     1       5.723   2.470   4.183  0.00  0.00    +0.000 A 
ATOM      5  C   UNL     1       6.257   2.419   5.482  0.00  0.00    +0.000 A 
ATOM      6  C   UNL     1       6.628   1.174   5.997  0.00  0.00    +0.000 A 
ATOM      7  C   UNL     1       6.480   0.015   5.243  0.00  0.00    +0.000 A 
ATOM      8  C   UNL     1       5.946   0.075   3.951  0.00  0.00    +0.000 A 
ATOM      9  C   UNL     1       5.557   1.317   3.407  0.00  0.00    +0.000 A 
ENDROOT
BRANCH   1  10
ATOM     10  C   UNL     1       4.536   0.826   1.034  0.00  0.00    +0.000 C 
BRANCH  10  11
ATOM     11  C   UNL     1       5.264   1.149  -0.272  0.00  0.00    +0.000 C 
BRANCH  11  12
ATOM     12  C   UNL     1       4.762   0.268  -1.413  0.00  0.00    +0.000 C 
BRANCH  12  13
ATOM     13  N   UNL     1       5.457   0.602  -2.651  0.00  0.00    +0.000 NA
ATOM     14  H   UNL     1       5.172  -0.042  -3.387  0.00  0.00    +0.000 HD
ATOM     15  H   UNL     1       6.460   0.474  -2.528  0.00  0.00    +0.000 HD
ENDBRANCH  12  13
ENDBRANCH  11  12
ENDBRANCH  10  11
ENDBRANCH   1  10
BRANCH   3  16
ATOM     16  C   UNL     1       5.066   4.897   3.909  0.00  0.00    +0.000 C 
BRANCH  16  17
ATOM     17  C   UNL     1       6.232   5.807   3.643  0.00  0.00    +0.000 A 
ATOM     18  C   UNL     1       6.922   6.423   4.693  0.00  0.00    +0.000 A 
ATOM     19  C   UNL     1       7.908   7.367   4.417  0.00  0.00    +0.000 A 
ATOM     20  C   UNL     1       8.180   7.663   3.093  0.00  0.00    +0.000 A 
ATOM     21  N   UNL     1       7.556   7.075   2.053  0.00  0.00    +0.000 NA
ATOM     22  C   UNL     1       6.604   6.160   2.349  0.00  0.00    +0.000 A 
ENDBRANCH  16  17
ENDBRANCH   3  16
TORSDOF 6
