REMARK  Name = 
REMARK  5 active torsions:
REMARK  status: ('A' for Active; 'I' for Inactive)
REMARK    1  A    between atoms: N_1  and  C_2
REMARK    2  A    between atoms: C_2  and  C_3
REMARK    3  A    between atoms: C_7  and  C_8
REMARK    4  A    between atoms: C_8  and  N_9
REMARK    5  A    between atoms: C_14  and  C_15
REMARK                            x       y       z     vdW  Elec       q    Type
REMARK                         _______ _______ _______ _____ _____    ______ ____
ROOT
ATOM      1  N   UNL     1       4.215   0.447  -5.701  0.00  0.00    +0.000 N 
ATOM      2  C   UNL     1       4.803   1.434  -6.457  0.00  0.00    +0.000 A 
ATOM      3  C   UNL     1       5.200   0.874  -7.653  0.00  0.00    +0.000 A 
ATOM      4  C   UNL     1       4.836  -0.499  -7.629  0.00  0.00    +0.000 A 
ATOM      5  C   UNL     1       4.988  -1.591  -8.507  0.00  0.00    +0.000 A 
ATOM      6  C   UNL     1       4.484  -2.832  -8.104  0.00  0.00    +0.000 A 
ATOM      7  C   UNL     1       3.827  -2.910  -6.878  0.00  0.00    +0.000 A 
ATOM      8  N   UNL     1       3.640  -1.885  -6.008  0.00  0.00    +0.000 NA
ATOM      9  C   UNL     1       4.184  -0.723  -6.420  0.00  0.00    +0.000 A 
ENDROOT
BRANCH   6  10
ATOM     10  C   UNL     1       4.621  -4.079  -8.892  0.00  0.00    +0.000 C 
ATOM     11  N   UNL     1       5.287  -4.036 -10.084  0.00  0.00    +0.000 N 
ATOM     12  O   UNL     1       4.158  -5.145  -8.490  0.00  0.00    +0.000 OA
ATOM     13  H   UNL     1       5.716  -3.214 -10.483  0.00  0.00    +0.000 HD
ATOM     14  H   UNL     1       5.387  -4.909 -10.585  0.00  0.00    +0.000 HD
ENDBRANCH   6  10
BRANCH   1  15
ATOM     15  C   UNL     1       3.658   0.639  -4.370  0.00  0.00    +0.000 C 
BRANCH  15  20
ATOM     16  C   UNL     1       2.943  -0.250  -1.425  0.00  0.00    +0.000 C 
ATOM     17  C   UNL     1       3.492  -1.688  -1.472  0.00  0.00    +0.000 C 
ATOM     18  C   UNL     1       4.203  -2.017  -2.778  0.00  0.00    +0.000 C 
ATOM     19  C   UNL     1       5.257  -0.972  -3.130  0.00  0.00    +0.000 C 
ATOM     20  C   UNL     1       4.665   0.442  -3.211  0.00  0.00    +0.000 C 
ATOM     21  C   UNL     1       4.017   0.774  -1.851  0.00  0.00    +0.000 C 
BRANCH  16  22
ATOM     22  C   UNL     1       2.391   0.030  -0.015  0.00  0.00    +0.000 C 
BRANCH  22  23
ATOM     23  N   UNL     1       1.846   1.375   0.109  0.00  0.00    +0.000 NA
ATOM     24  H   UNL     1       1.416   1.480   1.030  0.00  0.00    +0.000 HD
ATOM     25  H   UNL     1       1.097   1.509  -0.571  0.00  0.00    +0.000 HD
ENDBRANCH  22  23
ENDBRANCH  16  22
ENDBRANCH  15  20
ENDBRANCH   1  15
TORSDOF 5
