REMARK  Name = 
REMARK  5 active torsions:
REMARK  status: ('A' for Active; 'I' for Inactive)
REMARK    1  A    between atoms: C_2  and  C_3
REMARK    2  A    between atoms: N_7  and  C_8
REMARK    3  A    between atoms: C_8  and  C_9
REMARK    4  A    between atoms: C_13  and  C_14
REMARK    5  A    between atoms: C_24  and  N_25
REMARK                            x       y       z     vdW  Elec       q    Type
REMARK                         _______ _______ _______ _____ _____    ______ ____
ROOT
ATOM      1  C   UNL     1       8.688  -0.886  -0.060  0.00  0.00    +0.000 C 
ATOM      2  C   UNL     1       9.082  -1.960  -1.068  0.00  0.00    +0.000 C 
ATOM      3  C   UNL     1       8.686  -2.350   0.316  0.00  0.00    +0.000 C 
ENDROOT
BRANCH   1   8
ATOM      4  C   UNL     1       4.293   1.239   1.600  0.00  0.00    +0.000 A 
ATOM      5  N   UNL     1       4.837   0.078   2.060  0.00  0.00    +0.000 NA
ATOM      6  C   UNL     1       5.943  -0.343   1.393  0.00  0.00    +0.000 A 
ATOM      7  C   UNL     1       6.495   0.352   0.325  0.00  0.00    +0.000 A 
ATOM      8  N   UNL     1       7.507  -0.129  -0.501  0.00  0.00    +0.000 N 
ATOM      9  N   UNL     1       5.964   1.532  -0.077  0.00  0.00    +0.000 NA
ATOM     10  C   UNL     1       4.864   1.981   0.562  0.00  0.00    +0.000 A 
ATOM     11  H   UNL     1       7.710   0.642  -1.138  0.00  0.00    +0.000 HD
BRANCH  10  12
ATOM     12  N   UNL     1       4.327   3.154   0.036  0.00  0.00    +0.000 N 
ATOM     13  H   UNL     1       4.976   3.511  -0.664  0.00  0.00    +0.000 HD
ATOM     14  H   UNL     1       4.087   3.854   0.730  0.00  0.00    +0.000 HD
ENDBRANCH  10  12
BRANCH   4  16
ATOM     15  N   UNL     1       2.081   2.020   2.715  0.00  0.00    +0.000 NA
ATOM     16  C   UNL     1       3.072   1.653   2.224  0.00  0.00    +0.000 C 
ENDBRANCH   4  16
ENDBRANCH   1   8
BRANCH   1  17
ATOM     17  C   UNL     1       9.765   0.021   0.519  0.00  0.00    +0.000 A 
ATOM     18  C   UNL     1       9.984   0.138   1.899  0.00  0.00    +0.000 A 
ATOM     19  C   UNL     1      10.852   1.103   2.410  0.00  0.00    +0.000 A 
ATOM     20  C   UNL     1      11.500   1.987   1.543  0.00  0.00    +0.000 A 
ATOM     21  C   UNL     1      11.316   1.914   0.155  0.00  0.00    +0.000 A 
ATOM     22  C   UNL     1      10.475   0.896  -0.327  0.00  0.00    +0.000 A 
BRANCH  21  23
ATOM     23  C   UNL     1      11.894   2.922  -0.766  0.00  0.00    +0.000 A 
ATOM     24  C   UNL     1      12.318   2.576  -2.063  0.00  0.00    +0.000 A 
ATOM     25  C   UNL     1      12.793   3.552  -2.955  0.00  0.00    +0.000 A 
ATOM     26  C   UNL     1      12.868   4.881  -2.558  0.00  0.00    +0.000 A 
ATOM     27  C   UNL     1      12.463   5.244  -1.280  0.00  0.00    +0.000 A 
ATOM     28  C   UNL     1      11.980   4.275  -0.397  0.00  0.00    +0.000 A 
ENDBRANCH  21  23
ENDBRANCH   1  17
TORSDOF 5
