REMARK  Name = 
REMARK  6 active torsions:
REMARK  status: ('A' for Active; 'I' for Inactive)
REMARK    1  A    between atoms: C_2  and  C_3
REMARK    2  A    between atoms: C_6  and  N_7
REMARK    3  A    between atoms: N_7  and  C_8
REMARK    4  A    between atoms: C_8  and  C_9
REMARK    5  A    between atoms: C_12  and  O_13
REMARK    6  A    between atoms: O_13  and  C_14
REMARK                            x       y       z     vdW  Elec       q    Type
REMARK                         _______ _______ _______ _____ _____    ______ ____
ROOT
ATOM      1  C   UNL     1       8.641  -0.861  -0.604  0.00  0.00    +0.000 C 
ATOM      2  C   UNL     1       8.477  -2.033  -1.573  0.00  0.00    +0.000 C 
ATOM      3  C   UNL     1       8.744  -2.301  -0.132  0.00  0.00    +0.000 C 
ENDROOT
BRANCH   1   4
ATOM      4  C   UNL     1       9.944  -0.079  -0.698  0.00  0.00    +0.000 A 
ATOM      5  C   UNL     1      10.727   0.165   0.439  0.00  0.00    +0.000 A 
ATOM      6  C   UNL     1      12.022   0.678   0.326  0.00  0.00    +0.000 A 
ATOM      7  C   UNL     1      12.558   0.966  -0.930  0.00  0.00    +0.000 A 
ATOM      8  C   UNL     1      11.740   0.881  -2.052  0.00  0.00    +0.000 A 
ATOM      9  C   UNL     1      10.452   0.355  -1.934  0.00  0.00    +0.000 A 
BRANCH   7  10
ATOM     10  O   UNL     1      13.858   1.367  -0.941  0.00  0.00    +0.000 OA
BRANCH  10  11
ATOM     11  C   UNL     1      14.690   0.917  -2.006  0.00  0.00    +0.000 C 
ATOM     12  F   UNL     1      14.074   0.132  -2.914  0.00  0.00    +0.000 F 
ATOM     13  F   UNL     1      15.197   1.995  -2.646  0.00  0.00    +0.000 F 
ATOM     14  F   UNL     1      15.722   0.213  -1.487  0.00  0.00    +0.000 F 
ENDBRANCH  10  11
ENDBRANCH   7  10
ENDBRANCH   1   4
BRANCH   1  15
ATOM     15  N   UNL     1       7.463  -0.022  -0.431  0.00  0.00    +0.000 N 
ATOM     16  H   UNL     1       7.013   0.372  -1.247  0.00  0.00    +0.000 HD
BRANCH  15  20
ATOM     17  C   UNL     1       4.795   0.227   2.668  0.00  0.00    +0.000 A 
ATOM     18  C   UNL     1       4.510   0.695   1.398  0.00  0.00    +0.000 A 
ATOM     19  N   UNL     1       5.401   0.609   0.377  0.00  0.00    +0.000 NA
ATOM     20  C   UNL     1       6.597   0.037   0.649  0.00  0.00    +0.000 A 
ATOM     21  C   UNL     1       6.875  -0.416   1.936  0.00  0.00    +0.000 A 
ATOM     22  N   UNL     1       5.988  -0.337   2.971  0.00  0.00    +0.000 NA
BRANCH  17  24
ATOM     23  N   UNL     1       3.002   0.438   4.531  0.00  0.00    +0.000 NA
ATOM     24  C   UNL     1       3.823   0.333   3.717  0.00  0.00    +0.000 C 
ENDBRANCH  17  24
ENDBRANCH  15  20
ENDBRANCH   1  15
TORSDOF 6
