REMARK  Name = 
REMARK  8 active torsions:
REMARK  status: ('A' for Active; 'I' for Inactive)
REMARK    1  A    between atoms: C_1  and  C_2
REMARK    2  A    between atoms: C_2  and  N_3
REMARK    3  A    between atoms: C_2  and  C_25
REMARK    4  A    between atoms: N_3  and  C_4
REMARK    5  A    between atoms: C_4  and  C_5
REMARK    6  A    between atoms: C_8  and  C_9
REMARK    7  A    between atoms: C_9  and  N_10
REMARK    8  A    between atoms: C_11  and  C_13
REMARK                            x       y       z     vdW  Elec       q    Type
REMARK                         _______ _______ _______ _____ _____    ______ ____
ROOT
ATOM      1  C   UNL     1       2.986   2.789  -2.382  0.00  0.00    +0.000 A 
ATOM      2  C   UNL     1       2.188   3.897  -2.057  0.00  0.00    +0.000 A 
ATOM      3  C   UNL     1       2.553   5.184  -2.453  0.00  0.00    +0.000 A 
ATOM      4  C   UNL     1       3.735   5.396  -3.175  0.00  0.00    +0.000 A 
ATOM      5  C   UNL     1       4.562   4.301  -3.453  0.00  0.00    +0.000 A 
ATOM      6  C   UNL     1       4.189   3.010  -3.068  0.00  0.00    +0.000 A 
ENDROOT
BRANCH   1   7
ATOM      7  C   UNL     1       2.562   1.389  -2.000  0.00  0.00    +0.000 C 
BRANCH   7   8
ATOM      8  N   UNL     1       1.287   1.040  -2.629  0.00  0.00    +0.000 NA
ATOM      9  H   UNL     1       0.590   1.731  -2.352  0.00  0.00    +0.000 HD
BRANCH   8  11
ATOM     10  C   UNL     1       1.706  -1.418  -2.716  0.00  0.00    +0.000 C 
ATOM     11  C   UNL     1       0.772  -0.288  -2.269  0.00  0.00    +0.000 C 
BRANCH  11  12
ATOM     12  C   UNL     1      -0.598  -0.523  -2.887  0.00  0.00    +0.000 A 
ATOM     13  C   UNL     1      -0.971   0.001  -4.132  0.00  0.00    +0.000 A 
ATOM     14  C   UNL     1      -2.216  -0.305  -4.673  0.00  0.00    +0.000 A 
ATOM     15  C   UNL     1      -3.057  -1.137  -3.954  0.00  0.00    +0.000 A 
ATOM     16  N   UNL     1      -2.741  -1.664  -2.752  0.00  0.00    +0.000 NA
ATOM     17  C   UNL     1      -1.525  -1.347  -2.251  0.00  0.00    +0.000 A 
ENDBRANCH  11  12
ENDBRANCH   8  11
ENDBRANCH   7   8
ENDBRANCH   1   7
BRANCH   4  18
ATOM     18  C   UNL     1       4.128   6.778  -3.629  0.00  0.00    +0.000 C 
BRANCH  18  19
ATOM     19  N   UNL     1       4.928   7.446  -2.637  0.00  0.00    +0.000 N 
ATOM     20  C   UNL     1       5.348   8.736  -2.818  0.00  0.00    +0.000 C 
ATOM     21  O   UNL     1       5.041   9.392  -3.810  0.00  0.00    +0.000 OA
ATOM     22  H   UNL     1       5.392   6.859  -1.950  0.00  0.00    +0.000 HD
BRANCH  20  23
ATOM     23  C   UNL     1       6.137   9.323  -1.727  0.00  0.00    +0.000 A 
ATOM     24  C   UNL     1       6.160  10.701  -1.557  0.00  0.00    +0.000 A 
ATOM     25  S   UNL     1       7.083  11.209  -0.217  0.00  0.00    +0.000 S 
ATOM     26  C   UNL     1       7.523   9.606   0.153  0.00  0.00    +0.000 A 
ATOM     27  N   UNL     1       8.350   9.334   1.200  0.00  0.00    +0.000 NA
ATOM     28  C   UNL     1       8.622   8.082   1.348  0.00  0.00    +0.000 A 
ATOM     29  N   UNL     1       8.141   7.075   0.551  0.00  0.00    +0.000 N 
ATOM     30  C   UNL     1       7.277   7.302  -0.497  0.00  0.00    +0.000 A 
ATOM     31  O   UNL     1       6.833   6.373  -1.159  0.00  0.00    +0.000 OA
ATOM     32  C   UNL     1       6.958   8.696  -0.720  0.00  0.00    +0.000 A 
ATOM     33  H   UNL     1       8.385   6.112   0.731  0.00  0.00    +0.000 HD
ENDBRANCH  20  23
ENDBRANCH  18  19
ENDBRANCH   4  18
TORSDOF 7
