REMARK  Name = 
REMARK  5 active torsions:
REMARK  status: ('A' for Active; 'I' for Inactive)
REMARK    1  A    between atoms: C_2  and  C_4
REMARK    2  A    between atoms: C_7  and  S_8
REMARK    3  A    between atoms: S_8  and  C_9
REMARK    4  A    between atoms: C_9  and  C_10
REMARK    5  A    between atoms: C_15  and  C_16
REMARK                            x       y       z     vdW  Elec       q    Type
REMARK                         _______ _______ _______ _____ _____    ______ ____
ROOT
ATOM      1  C   UNL     1       5.576   5.396   5.439  0.00  0.00    +0.000 A 
ATOM      2  C   UNL     1       5.248   6.746   5.279  0.00  0.00    +0.000 A 
ATOM      3  C   UNL     1       5.901   7.715   6.034  0.00  0.00    +0.000 A 
ATOM      4  C   UNL     1       6.892   7.343   6.942  0.00  0.00    +0.000 A 
ATOM      5  F   UNL     1       7.502   8.330   7.616  0.00  0.00    +0.000 F 
ATOM      6  C   UNL     1       7.260   6.000   7.143  0.00  0.00    +0.000 A 
ATOM      7  C   UNL     1       6.577   5.039   6.367  0.00  0.00    +0.000 A 
ENDROOT
BRANCH   6   8
ATOM      8  C   UNL     1       8.310   5.602   8.116  0.00  0.00    +0.000 A 
ATOM      9  C   UNL     1       8.509   6.306   9.322  0.00  0.00    +0.000 A 
ATOM     10  C   UNL     1       9.507   5.944  10.237  0.00  0.00    +0.000 A 
ATOM     11  C   UNL     1      10.322   4.850   9.975  0.00  0.00    +0.000 A 
ATOM     12  C   UNL     1      10.135   4.136   8.802  0.00  0.00    +0.000 A 
ATOM     13  F   UNL     1      10.913   3.076   8.546  0.00  0.00    +0.000 F 
ATOM     14  C   UNL     1       9.154   4.501   7.880  0.00  0.00    +0.000 A 
ENDBRANCH   6   8
BRANCH   1  15
ATOM     15  C   UNL     1       4.874   4.337   4.617  0.00  0.00    +0.000 C 
BRANCH  15  16
ATOM     16  S   UNL     1       5.750   4.019   3.051  0.00  0.00    +0.000 S 
BRANCH  16  20
ATOM     17  C   UNL     1       2.953   0.988   1.155  0.00  0.00    +0.000 A 
ATOM     18  C   UNL     1       4.098   1.383   0.464  0.00  0.00    +0.000 A 
ATOM     19  C   UNL     1       4.959   2.313   1.050  0.00  0.00    +0.000 A 
ATOM     20  C   UNL     1       4.654   2.822   2.312  0.00  0.00    +0.000 A 
ATOM     21  N   UNL     1       3.550   2.450   2.993  0.00  0.00    +0.000 NA
ATOM     22  C   UNL     1       2.720   1.552   2.399  0.00  0.00    +0.000 A 
BRANCH  17  24
ATOM     23  N   UNL     1       2.399  -0.871  -0.319  0.00  0.00    +0.000 N 
ATOM     24  C   UNL     1       1.965   0.032   0.612  0.00  0.00    +0.000 C 
ATOM     25  O   UNL     1       0.804   0.028   1.001  0.00  0.00    +0.000 OA
ATOM     26  H   UNL     1       1.729  -1.575  -0.608  0.00  0.00    +0.000 HD
ATOM     27  H   UNL     1       3.376  -1.063  -0.489  0.00  0.00    +0.000 HD
ENDBRANCH  17  24
ENDBRANCH  16  20
ENDBRANCH  15  16
ENDBRANCH   1  15
TORSDOF 5
