REMARK  Name = 
REMARK  6 active torsions:
REMARK  status: ('A' for Active; 'I' for Inactive)
REMARK    1  A    between atoms: C_1  and  C_2
REMARK    2  A    between atoms: N_7  and  C_8
REMARK    3  A    between atoms: C_12  and  C_13
REMARK    4  A    between atoms: C_13  and  C_14
REMARK    5  A    between atoms: C_14  and  N_15
REMARK    6  A    between atoms: C_19  and  C_20
REMARK                            x       y       z     vdW  Elec       q    Type
REMARK                         _______ _______ _______ _____ _____    ______ ____
ROOT
ATOM      1  C   UNL     1       6.616  -4.688   0.009  0.00  0.00    +0.000 C 
ENDROOT
BRANCH   1   6
ATOM      2  C   UNL     1       3.623  -2.310   0.380  0.00  0.00    +0.000 A 
ATOM      3  C   UNL     1       3.239  -2.623   1.691  0.00  0.00    +0.000 A 
ATOM      4  C   UNL     1       3.929  -3.570   2.459  0.00  0.00    +0.000 A 
ATOM      5  C   UNL     1       5.032  -4.237   1.931  0.00  0.00    +0.000 A 
ATOM      6  C   UNL     1       5.466  -3.937   0.641  0.00  0.00    +0.000 A 
ATOM      7  C   UNL     1       4.766  -2.970  -0.106  0.00  0.00    +0.000 A 
BRANCH   2  14
ATOM      8  C   UNL     1       0.675  -0.442   0.021  0.00  0.00    +0.000 C 
ATOM      9  C   UNL     1       2.190  -0.256   0.151  0.00  0.00    +0.000 C 
ATOM     10  C   UNL     1       2.658   1.018  -0.597  0.00  0.00    +0.000 C 
ATOM     11  O   UNL     1       2.532   0.897  -2.026  0.00  0.00    +0.000 OA
ATOM     12  C   UNL     1       3.323  -0.206  -2.501  0.00  0.00    +0.000 C 
ATOM     13  C   UNL     1       2.871  -1.530  -1.875  0.00  0.00    +0.000 C 
ATOM     14  N   UNL     1       2.902  -1.429  -0.404  0.00  0.00    +0.000 N 
ENDBRANCH   2  14
ENDBRANCH   1   6
BRANCH   1  15
ATOM     15  C   UNL     1       6.103  -5.891  -0.795  0.00  0.00    +0.000 C 
BRANCH  15  16
ATOM     16  N   UNL     1       7.195  -6.573  -1.479  0.00  0.00    +0.000 N 
ATOM     17  C   UNL     1       6.913  -7.694  -2.245  0.00  0.00    +0.000 A 
ATOM     18  C   UNL     1       5.738  -7.842  -2.974  0.00  0.00    +0.000 A 
ATOM     19  C   UNL     1       5.546  -8.978  -3.760  0.00  0.00    +0.000 A 
ATOM     20  C   UNL     1       6.543  -9.948  -3.834  0.00  0.00    +0.000 A 
ATOM     21  C   UNL     1       7.687  -9.718  -3.087  0.00  0.00    +0.000 A 
ATOM     22  N   UNL     1       7.887  -8.627  -2.297  0.00  0.00    +0.000 NA
ATOM     23  H   UNL     1       8.018  -6.787  -0.917  0.00  0.00    +0.000 HD
BRANCH  20  24
ATOM     24  C   UNL     1       6.320 -11.135  -4.694  0.00  0.00    +0.000 C 
ATOM     25  N   UNL     1       7.310 -12.068  -4.817  0.00  0.00    +0.000 N 
ATOM     26  O   UNL     1       5.262 -11.290  -5.297  0.00  0.00    +0.000 OA
ATOM     27  H   UNL     1       8.228 -12.023  -4.397  0.00  0.00    +0.000 HD
ATOM     28  H   UNL     1       7.115 -12.850  -5.432  0.00  0.00    +0.000 HD
ENDBRANCH  20  24
ENDBRANCH  15  16
ENDBRANCH   1  15
TORSDOF 5
