REMARK  Name = 
REMARK  6 active torsions:
REMARK  status: ('A' for Active; 'I' for Inactive)
REMARK    1  A    between atoms: N_1  and  C_2
REMARK    2  A    between atoms: C_2  and  C_3
REMARK    3  A    between atoms: C_6  and  C_7
REMARK    4  A    between atoms: C_7  and  O_8
REMARK    5  A    between atoms: O_8  and  C_9
REMARK    6  A    between atoms: C_12  and  C_13
REMARK                            x       y       z     vdW  Elec       q    Type
REMARK                         _______ _______ _______ _____ _____    ______ ____
ROOT
ATOM      1  O   UNL     1       3.358   4.573   4.435  0.00  0.00    +0.000 OA
ENDROOT
BRANCH   1   2
ATOM      2  C   UNL     1       3.603   5.529   5.377  0.00  0.00    +0.000 A 
ATOM      3  C   UNL     1       4.022   5.277   6.684  0.00  0.00    +0.000 A 
ATOM      4  C   UNL     1       4.238   6.341   7.569  0.00  0.00    +0.000 A 
ATOM      5  C   UNL     1       4.044   7.670   7.164  0.00  0.00    +0.000 A 
ATOM      6  C   UNL     1       3.622   7.924   5.858  0.00  0.00    +0.000 A 
ATOM      7  C   UNL     1       3.399   6.861   4.978  0.00  0.00    +0.000 A 
ATOM      8 CL   UNL     1       2.863   7.245   3.377  0.00  0.00    +0.000 Cl
BRANCH   5   9
ATOM      9  C   UNL     1       4.299   8.750   8.160  0.00  0.00    +0.000 C 
ATOM     10  N   UNL     1       4.118  10.051   7.781  0.00  0.00    +0.000 N 
ATOM     11  O   UNL     1       4.664   8.490   9.299  0.00  0.00    +0.000 OA
ATOM     12  H   UNL     1       3.823  10.369   6.873  0.00  0.00    +0.000 HD
ATOM     13  H   UNL     1       4.302  10.756   8.485  0.00  0.00    +0.000 HD
ENDBRANCH   5   9
ENDBRANCH   1   2
BRANCH   1  14
ATOM     14  C   UNL     1       3.648   3.210   4.739  0.00  0.00    +0.000 C 
BRANCH  14  18
ATOM     15  C   UNL     1       2.820   0.771   1.246  0.00  0.00    +0.000 A 
ATOM     16  C   UNL     1       3.269   2.089   1.101  0.00  0.00    +0.000 A 
ATOM     17  C   UNL     1       3.551   2.873   2.221  0.00  0.00    +0.000 A 
ATOM     18  C   UNL     1       3.372   2.364   3.515  0.00  0.00    +0.000 A 
ATOM     19  C   UNL     1       2.960   1.033   3.660  0.00  0.00    +0.000 A 
ATOM     20  C   UNL     1       2.681   0.246   2.538  0.00  0.00    +0.000 A 
BRANCH  15  21
ATOM     21  C   UNL     1       2.454  -0.048   0.035  0.00  0.00    +0.000 C 
BRANCH  21  22
ATOM     22  N   UNL     1       3.570  -0.173  -0.894  0.00  0.00    +0.000 NA
ATOM     23  H   UNL     1       3.324  -0.841  -1.621  0.00  0.00    +0.000 HD
ATOM     24  H   UNL     1       4.367  -0.565  -0.395  0.00  0.00    +0.000 HD
ENDBRANCH  21  22
ENDBRANCH  15  21
ENDBRANCH  14  18
ENDBRANCH   1  14
TORSDOF 6
