REMARK  Name = 
REMARK  9 active torsions:
REMARK  status: ('A' for Active; 'I' for Inactive)
REMARK    1  A    between atoms: C_1  and  C_2
REMARK    2  A    between atoms: C_4  and  N_5
REMARK    3  A    between atoms: N_5  and  C_6
REMARK    4  A    between atoms: C_6  and  C_7
REMARK    5  A    between atoms: C_7  and  C_8
REMARK    6  A    between atoms: C_7  and  C_9
REMARK    7  A    between atoms: C_13  and  O_14
REMARK    8  A    between atoms: O_14  and  C_15
REMARK    9  A    between atoms: C_22  and  C_23
REMARK                            x       y       z     vdW  Elec       q    Type
REMARK                         _______ _______ _______ _____ _____    ______ ____
ROOT
ATOM      1  N   UNL     1       3.686  -3.577   1.389  0.00  0.00    +0.000 N 
ATOM      2  H   UNL     1       4.161  -3.243   0.555  0.00  0.00    +0.000 HD
ENDROOT
BRANCH   1   6
ATOM      3  C   UNL     1       4.813  -4.157   6.170  0.00  0.00    +0.000 C 
ATOM      4  C   UNL     1       5.106  -3.549   4.827  0.00  0.00    +0.000 A 
ATOM      5  C   UNL     1       4.269  -3.875   3.744  0.00  0.00    +0.000 A 
ATOM      6  C   UNL     1       4.507  -3.348   2.476  0.00  0.00    +0.000 A 
ATOM      7  N   UNL     1       5.537  -2.512   2.254  0.00  0.00    +0.000 NA
ATOM      8  C   UNL     1       6.331  -2.186   3.308  0.00  0.00    +0.000 A 
ATOM      9  C   UNL     1       6.158  -2.653   4.607  0.00  0.00    +0.000 A 
BRANCH   9  10
ATOM     10  C   UNL     1       7.080  -2.217   5.688  0.00  0.00    +0.000 C 
ATOM     11  N   UNL     1       7.627  -0.965   5.590  0.00  0.00    +0.000 N 
ATOM     12  O   UNL     1       7.337  -2.919   6.656  0.00  0.00    +0.000 OA
ATOM     13  H   UNL     1       7.296  -0.256   4.953  0.00  0.00    +0.000 HD
ATOM     14  H   UNL     1       8.169  -0.656   6.389  0.00  0.00    +0.000 HD
ENDBRANCH   9  10
ENDBRANCH   1   6
BRANCH   1  15
ATOM     15  C   UNL     1       2.927  -4.814   1.273  0.00  0.00    +0.000 C 
BRANCH  15  16
ATOM     16  C   UNL     1       2.062  -4.849  -0.010  0.00  0.00    +0.000 C 
ATOM     17  C   UNL     1       1.141  -3.623  -0.103  0.00  0.00    +0.000 C 
BRANCH  16  18
ATOM     18  C   UNL     1       1.313  -6.179  -0.054  0.00  0.00    +0.000 A 
ATOM     19  C   UNL     1       1.937  -7.305  -0.613  0.00  0.00    +0.000 A 
ATOM     20  C   UNL     1       1.330  -8.563  -0.549  0.00  0.00    +0.000 A 
ATOM     21  C   UNL     1       0.083  -8.719   0.062  0.00  0.00    +0.000 A 
ATOM     22  C   UNL     1      -0.564  -7.608   0.591  0.00  0.00    +0.000 A 
ATOM     23  C   UNL     1       0.052  -6.352   0.539  0.00  0.00    +0.000 A 
BRANCH  22  24
ATOM     24  O   UNL     1      -1.777  -7.630   1.234  0.00  0.00    +0.000 OA
BRANCH  24  25
ATOM     25  C   UNL     1      -2.683  -8.731   1.011  0.00  0.00    +0.000 C 
ATOM     26  C   UNL     1      -3.357  -8.830  -0.381  0.00  0.00    +0.000 C 
ATOM     27  C   UNL     1      -4.682  -9.151   0.329  0.00  0.00    +0.000 C 
ATOM     28  C   UNL     1      -4.104  -8.495   1.591  0.00  0.00    +0.000 C 
ENDBRANCH  24  25
ENDBRANCH  22  24
ENDBRANCH  16  18
ENDBRANCH  15  16
ENDBRANCH   1  15
TORSDOF 7
