REMARK  Name = 
REMARK  8 active torsions:
REMARK  status: ('A' for Active; 'I' for Inactive)
REMARK    1  A    between atoms: C_1  and  C_2
REMARK    2  A    between atoms: C_2  and  C_3
REMARK    3  A    between atoms: C_7  and  C_8
REMARK    4  A    between atoms: C_8  and  C_9
REMARK    5  A    between atoms: C_9  and  N_10
REMARK    6  A    between atoms: N_10  and  C_11
REMARK    7  A    between atoms: C_14  and  C_15
REMARK    8  A    between atoms: C_23  and  O_24
REMARK                            x       y       z     vdW  Elec       q    Type
REMARK                         _______ _______ _______ _____ _____    ______ ____
ROOT
ATOM      1  C   UNL     1       2.949   0.364   1.503  0.00  0.00    +0.000 A 
ATOM      2  C   UNL     1       2.714   1.639   2.039  0.00  0.00    +0.000 A 
ATOM      3  C   UNL     1       3.036   1.934   3.369  0.00  0.00    +0.000 A 
ATOM      4  C   UNL     1       3.589   0.959   4.200  0.00  0.00    +0.000 A 
ATOM      5  C   UNL     1       3.845  -0.321   3.704  0.00  0.00    +0.000 A 
ATOM      6  C   UNL     1       3.544  -0.579   2.354  0.00  0.00    +0.000 A 
ENDROOT
BRANCH   1   8
ATOM      7  C   UNL     1       0.938   0.078   0.079  0.00  0.00    +0.000 C 
ATOM      8  C   UNL     1       2.484  -0.017   0.077  0.00  0.00    +0.000 C 
ATOM      9  C   UNL     1       3.096   0.960  -0.961  0.00  0.00    +0.000 C 
ATOM     10  C   UNL     1       2.792   0.591  -2.419  0.00  0.00    +0.000 C 
ATOM     11  C   UNL     1       3.165  -0.848  -2.767  0.00  0.00    +0.000 C 
ATOM     12  C   UNL     1       2.571  -1.843  -1.778  0.00  0.00    +0.000 C 
ATOM     13  C   UNL     1       2.887  -1.472  -0.329  0.00  0.00    +0.000 C 
BRANCH  11  14
ATOM     14  O   UNL     1       4.582  -0.995  -2.814  0.00  0.00    +0.000 OA
ATOM     15  H   UNL     1       4.958  -0.729  -1.959  0.00  0.00    +0.000 HD
ENDBRANCH  11  14
ENDBRANCH   1   8
BRANCH   5  16
ATOM     16  C   UNL     1       4.381  -1.405   4.631  0.00  0.00    +0.000 C 
BRANCH  16  17
ATOM     17  C   UNL     1       4.639  -2.738   3.915  0.00  0.00    +0.000 C 
BRANCH  17  18
ATOM     18  N   UNL     1       5.098  -3.813   4.795  0.00  0.00    +0.000 N 
ATOM     19  H   UNL     1       4.495  -3.927   5.609  0.00  0.00    +0.000 HD
BRANCH  18  20
ATOM     20  C   UNL     1       5.322  -5.049   4.146  0.00  0.00    +0.000 A 
ATOM     21  C   UNL     1       5.775  -5.148   2.823  0.00  0.00    +0.000 A 
ATOM     22  C   UNL     1       6.066  -6.387   2.255  0.00  0.00    +0.000 A 
ATOM     23  C   UNL     1       5.927  -7.515   3.043  0.00  0.00    +0.000 A 
ATOM     24  N   UNL     1       5.516  -7.485   4.343  0.00  0.00    +0.000 NA
ATOM     25  C   UNL     1       5.246  -6.254   4.852  0.00  0.00    +0.000 A 
BRANCH  23  26
ATOM     26  C   UNL     1       6.279  -8.854   2.473  0.00  0.00    +0.000 C 
ATOM     27  N   UNL     1       6.133  -9.910   3.326  0.00  0.00    +0.000 N 
ATOM     28  O   UNL     1       6.680  -9.000   1.323  0.00  0.00    +0.000 OA
ATOM     29  H   UNL     1       5.837  -9.739   4.281  0.00  0.00    +0.000 HD
ATOM     30  H   UNL     1       6.402 -10.836   3.026  0.00  0.00    +0.000 HD
ENDBRANCH  23  26
ENDBRANCH  18  20
ENDBRANCH  17  18
ENDBRANCH  16  17
ENDBRANCH   5  16
TORSDOF 7
