REMARK  Name = 
REMARK  6 active torsions:
REMARK  status: ('A' for Active; 'I' for Inactive)
REMARK    1  A    between atoms: N_1  and  C_2
REMARK    2  A    between atoms: C_2  and  C_3
REMARK    3  A    between atoms: C_3  and  C_4
REMARK    4  A    between atoms: C_7  and  C_8
REMARK    5  A    between atoms: C_8  and  N_9
REMARK    6  A    between atoms: C_16  and  C_17
REMARK                            x       y       z     vdW  Elec       q    Type
REMARK                         _______ _______ _______ _____ _____    ______ ____
ROOT
ATOM      1  N   UNL     1       9.247  -0.745  -2.287  0.00  0.00    +0.000 N 
ATOM      2  C   UNL     1       8.428  -0.405  -3.346  0.00  0.00    +0.000 A 
ATOM      3  C   UNL     1       9.173   0.184  -4.324  0.00  0.00    +0.000 A 
ATOM      4  C   UNL     1      10.515   0.170  -3.897  0.00  0.00    +0.000 A 
ATOM      5  C   UNL     1      11.675   0.657  -4.515  0.00  0.00    +0.000 A 
ATOM      6  N   UNL     1      12.881   0.532  -3.940  0.00  0.00    +0.000 NA
ATOM      7  C   UNL     1      12.934  -0.063  -2.730  0.00  0.00    +0.000 A 
ATOM      8  C   UNL     1      11.844  -0.540  -1.989  0.00  0.00    +0.000 A 
ATOM      9  C   UNL     1      10.577  -0.436  -2.618  0.00  0.00    +0.000 A 
ENDROOT
BRANCH   8  10
ATOM     10  C   UNL     1      12.132  -1.120  -0.672  0.00  0.00    +0.000 C 
ATOM     11  N   UNL     1      13.217  -0.607   0.015  0.00  0.00    +0.000 N 
ATOM     12  O   UNL     1      11.475  -2.032  -0.192  0.00  0.00    +0.000 OA
ATOM     13  H   UNL     1      13.732   0.216  -0.265  0.00  0.00    +0.000 HD
ATOM     14  H   UNL     1      13.476  -1.042   0.893  0.00  0.00    +0.000 HD
ENDBRANCH   8  10
BRANCH   1  15
ATOM     15  C   UNL     1       8.723  -1.262  -1.006  0.00  0.00    +0.000 C 
BRANCH  15  19
ATOM     16  C   UNL     1       4.357  -1.243  -1.004  0.00  0.00    +0.000 A 
ATOM     17  C   UNL     1       5.066  -2.383  -1.400  0.00  0.00    +0.000 A 
ATOM     18  C   UNL     1       6.467  -2.407  -1.354  0.00  0.00    +0.000 A 
ATOM     19  C   UNL     1       7.195  -1.282  -0.926  0.00  0.00    +0.000 A 
ATOM     20  C   UNL     1       6.476  -0.143  -0.525  0.00  0.00    +0.000 A 
ATOM     21  C   UNL     1       5.073  -0.129  -0.552  0.00  0.00    +0.000 A 
BRANCH  16  22
ATOM     22  C   UNL     1       2.847  -1.228  -1.054  0.00  0.00    +0.000 C 
BRANCH  22  23
ATOM     23  C   UNL     1       2.222  -1.730   0.253  0.00  0.00    +0.000 C 
BRANCH  23  24
ATOM     24  N   UNL     1       0.760  -1.721   0.173  0.00  0.00    +0.000 NA
ATOM     25  H   UNL     1       0.375  -2.100   1.037  0.00  0.00    +0.000 HD
ATOM     26  H   UNL     1       0.454  -2.346  -0.572  0.00  0.00    +0.000 HD
ENDBRANCH  23  24
ENDBRANCH  22  23
ENDBRANCH  16  22
ENDBRANCH  15  19
ENDBRANCH   1  15
TORSDOF 6
