REMARK  Name = 
REMARK  6 active torsions:
REMARK  status: ('A' for Active; 'I' for Inactive)
REMARK    1  A    between atoms: N_1  and  C_2
REMARK    2  A    between atoms: C_2  and  C_3
REMARK    3  A    between atoms: C_3  and  C_4
REMARK    4  A    between atoms: C_4  and  C_5
REMARK    5  A    between atoms: C_8  and  C_9
REMARK    6  A    between atoms: C_9  and  N_10
REMARK                            x       y       z     vdW  Elec       q    Type
REMARK                         _______ _______ _______ _____ _____    ______ ____
ROOT
ATOM      1  C   UNL     1       4.903   2.728  -1.321  0.00  0.00    +0.000 A 
ATOM      2  C   UNL     1       4.253   3.949  -1.103  0.00  0.00    +0.000 A 
ATOM      3  C   UNL     1       4.747   5.132  -1.669  0.00  0.00    +0.000 A 
ATOM      4  C   UNL     1       5.892   5.121  -2.475  0.00  0.00    +0.000 A 
ATOM      5  C   UNL     1       6.556   3.904  -2.674  0.00  0.00    +0.000 A 
ATOM      6  C   UNL     1       6.060   2.723  -2.108  0.00  0.00    +0.000 A 
ENDROOT
BRANCH   1   7
ATOM      7  C   UNL     1       4.402   1.453  -0.683  0.00  0.00    +0.000 C 
BRANCH   7   8
ATOM      8  C   UNL     1       2.972   1.062  -1.085  0.00  0.00    +0.000 C 
BRANCH   8   9
ATOM      9  C   UNL     1       2.560  -0.258  -0.427  0.00  0.00    +0.000 C 
BRANCH   9  10
ATOM     10  N   UNL     1       1.192  -0.612  -0.792  0.00  0.00    +0.000 NA
ATOM     11  H   UNL     1       0.950  -1.508  -0.369  0.00  0.00    +0.000 HD
ATOM     12  H   UNL     1       1.128  -0.747  -1.800  0.00  0.00    +0.000 HD
ENDBRANCH   9  10
ENDBRANCH   8   9
ENDBRANCH   7   8
ENDBRANCH   1   7
BRANCH   4  13
ATOM     13  C   UNL     1       6.374   6.390  -3.138  0.00  0.00    +0.000 C 
BRANCH  13  14
ATOM     14  N   UNL     1       7.379   7.119  -2.365  0.00  0.00    +0.000 N 
ATOM     15  C   UNL     1       7.067   7.768  -1.186  0.00  0.00    +0.000 A 
ATOM     16  C   UNL     1       8.164   8.478  -0.780  0.00  0.00    +0.000 A 
ATOM     17  C   UNL     1       9.004   8.582  -1.916  0.00  0.00    +0.000 A 
ATOM     18  C   UNL     1      10.071   9.444  -2.241  0.00  0.00    +0.000 A 
ATOM     19  C   UNL     1      10.742   9.279  -3.450  0.00  0.00    +0.000 A 
ATOM     20  C   UNL     1      10.460   8.181  -4.256  0.00  0.00    +0.000 A 
ATOM     21  C   UNL     1       9.412   7.300  -3.942  0.00  0.00    +0.000 A 
ATOM     22 CL   UNL     1       9.236   5.887  -4.909  0.00  0.00    +0.000 Cl
ATOM     23  C   UNL     1       8.590   7.589  -2.830  0.00  0.00    +0.000 A 
ENDBRANCH  13  14
ENDBRANCH   4  13
TORSDOF 6
