REMARK  Name = 
REMARK  8 active torsions:
REMARK  status: ('A' for Active; 'I' for Inactive)
REMARK    1  A    between atoms: C_2  and  C_4
REMARK    2  A    between atoms: N_8  and  C_9
REMARK    3  A    between atoms: C_9  and  C_10
REMARK    4  A    between atoms: C_10  and  C_11
REMARK    5  A    between atoms: C_10  and  C_13
REMARK    6  A    between atoms: C_11  and  O_12
REMARK    7  A    between atoms: C_17  and  C_18
REMARK    8  A    between atoms: C_21  and  C_22
REMARK                            x       y       z     vdW  Elec       q    Type
REMARK                         _______ _______ _______ _____ _____    ______ ____
ROOT
ATOM      1  C   UNL     1       6.239  -6.486  -2.767  0.00  0.00    +0.000 C 
ENDROOT
BRANCH   1   2
ATOM      2  C   UNL     1       6.021  -7.287  -4.057  0.00  0.00    +0.000 A 
ATOM      3  C   UNL     1       7.053  -7.433  -4.999  0.00  0.00    +0.000 A 
ATOM      4  C   UNL     1       6.871  -8.224  -6.135  0.00  0.00    +0.000 A 
ATOM      5  C   UNL     1       5.670  -8.895  -6.336  0.00  0.00    +0.000 A 
ATOM      6  C   UNL     1       4.618  -8.801  -5.411  0.00  0.00    +0.000 A 
ATOM      7  C   UNL     1       4.809  -7.957  -4.302  0.00  0.00    +0.000 A 
BRANCH   6   8
ATOM      8  C   UNL     1       3.397  -9.625  -5.548  0.00  0.00    +0.000 A 
ATOM      9  C   UNL     1       3.476 -10.916  -6.108  0.00  0.00    +0.000 A 
ATOM     10  C   UNL     1       2.351 -11.737  -6.203  0.00  0.00    +0.000 A 
ATOM     11  C   UNL     1       1.108 -11.296  -5.741  0.00  0.00    +0.000 A 
ATOM     12  C   UNL     1       1.016 -10.019  -5.173  0.00  0.00    +0.000 A 
ATOM     13  C   UNL     1       2.146  -9.196  -5.088  0.00  0.00    +0.000 A 
BRANCH  11  14
ATOM     14  C   UNL     1      -0.110 -12.173  -5.849  0.00  0.00    +0.000 C 
ATOM     15  F   UNL     1       0.137 -13.378  -6.440  0.00  0.00    +0.000 F 
ATOM     16  F   UNL     1      -0.660 -12.459  -4.638  0.00  0.00    +0.000 F 
ATOM     17  F   UNL     1      -1.100 -11.597  -6.585  0.00  0.00    +0.000 F 
ENDBRANCH  11  14
ENDBRANCH   6   8
ENDBRANCH   1   2
BRANCH   1  18
ATOM     18  C   UNL     1       5.275  -5.283  -2.673  0.00  0.00    +0.000 C 
BRANCH  18  23
ATOM     19  C   UNL     1       3.409  -1.038  -0.526  0.00  0.00    +0.000 A 
ATOM     20  C   UNL     1       3.429  -1.433  -1.858  0.00  0.00    +0.000 A 
ATOM     21  C   UNL     1       4.141  -2.579  -2.219  0.00  0.00    +0.000 A 
ATOM     22  C   UNL     1       4.800  -3.322  -1.246  0.00  0.00    +0.000 A 
ATOM     23  N   UNL     1       5.577  -4.426  -1.525  0.00  0.00    +0.000 N 
ATOM     24  N   UNL     1       4.773  -2.955   0.054  0.00  0.00    +0.000 NA
ATOM     25  C   UNL     1       4.102  -1.819   0.385  0.00  0.00    +0.000 A 
ATOM     26  H   UNL     1       5.806  -4.859  -0.636  0.00  0.00    +0.000 HD
BRANCH  19  28
ATOM     27  N   UNL     1       1.637   0.599  -0.786  0.00  0.00    +0.000 N 
ATOM     28  C   UNL     1       2.726   0.189  -0.068  0.00  0.00    +0.000 C 
ATOM     29  O   UNL     1       3.100   0.797   0.926  0.00  0.00    +0.000 OA
ATOM     30  H   UNL     1       1.120   1.386  -0.414  0.00  0.00    +0.000 HD
ATOM     31  H   UNL     1       1.162  -0.002  -1.445  0.00  0.00    +0.000 HD
ENDBRANCH  19  28
ENDBRANCH  18  23
ENDBRANCH   1  18
BRANCH   1  32
ATOM     32  C   UNL     1       6.157  -7.388  -1.516  0.00  0.00    +0.000 C 
BRANCH  32  33
ATOM     33  O   UNL     1       4.846  -7.888  -1.263  0.00  0.00    +0.000 OA
ATOM     34  H   UNL     1       4.281  -7.143  -0.997  0.00  0.00    +0.000 HD
ENDBRANCH  32  33
ENDBRANCH   1  32
TORSDOF 8
