REMARK  Name = 
REMARK  7 active torsions:
REMARK  status: ('A' for Active; 'I' for Inactive)
REMARK    1  A    between atoms: C_2  and  C_19
REMARK    2  A    between atoms: N_3  and  C_4
REMARK    3  A    between atoms: C_4  and  C_5
REMARK    4  A    between atoms: C_8  and  C_9
REMARK    5  A    between atoms: C_9  and  N_10
REMARK    6  A    between atoms: N_10  and  C_11
REMARK    7  A    between atoms: C_11  and  C_12
REMARK                            x       y       z     vdW  Elec       q    Type
REMARK                         _______ _______ _______ _____ _____    ______ ____
ROOT
ATOM      1  C   UNL     1       0.796  16.613  -4.611  0.00  0.00    +0.000 C 
ENDROOT
BRANCH   1   2
ATOM      2  C   UNL     1       1.486  15.312  -4.324  0.00  0.00    +0.000 A 
ATOM      3  C   UNL     1       2.460  15.223  -3.330  0.00  0.00    +0.000 A 
ATOM      4  C   UNL     1       3.045  13.993  -3.043  0.00  0.00    +0.000 A 
ATOM      5  C   UNL     1       2.656  12.873  -3.773  0.00  0.00    +0.000 A 
ATOM      6  N   UNL     1       1.747  12.941  -4.781  0.00  0.00    +0.000 NA
ATOM      7  C   UNL     1       1.193  14.153  -5.034  0.00  0.00    +0.000 A 
BRANCH   5   8
ATOM      8  C   UNL     1       3.249  11.513  -3.442  0.00  0.00    +0.000 C 
BRANCH   8   9
ATOM      9  N   UNL     1       3.897  10.827  -4.572  0.00  0.00    +0.000 NA
ATOM     10  H   UNL     1       3.196  10.767  -5.316  0.00  0.00    +0.000 HD
BRANCH   9  11
ATOM     11  C   UNL     1       5.054  11.577  -5.087  0.00  0.00    +0.000 C 
BRANCH  11  12
ATOM     12  C   UNL     1       5.673  10.848  -6.307  0.00  0.00    +0.000 C 
ATOM     13  C   UNL     1       6.886  11.565  -6.877  0.00  0.00    +0.000 C 
ATOM     14  C   UNL     1       8.054  11.023  -6.075  0.00  0.00    +0.000 C 
ATOM     15  C   UNL     1       7.587   9.669  -5.558  0.00  0.00    +0.000 C 
ATOM     16  N   UNL     1       6.193   9.511  -5.975  0.00  0.00    +0.000 NA
ATOM     17  H   UNL     1       5.629   9.129  -5.211  0.00  0.00    +0.000 HD
ENDBRANCH  11  12
ENDBRANCH   9  11
ENDBRANCH   8   9
ENDBRANCH   5   8
ENDBRANCH   1   2
BRANCH   1  20
ATOM     18  O   UNL     1       2.732  18.644  -4.224  0.00  0.00    +0.000 OA
ATOM     19  C   UNL     1       2.435  18.305  -5.366  0.00  0.00    +0.000 C 
ATOM     20  N   UNL     1       1.474  17.366  -5.631  0.00  0.00    +0.000 N 
ATOM     21  H   UNL     1       1.382  17.011  -6.576  0.00  0.00    +0.000 HD
BRANCH  19  22
ATOM     22  C   UNL     1       3.063  18.926  -6.542  0.00  0.00    +0.000 A 
ATOM     23  C   UNL     1       3.657  20.176  -6.436  0.00  0.00    +0.000 A 
ATOM     24  S   UNL     1       4.309  20.748  -7.906  0.00  0.00    +0.000 S 
ATOM     25  C   UNL     1       3.861  19.325  -8.725  0.00  0.00    +0.000 A 
ATOM     26  N   UNL     1       4.153  19.150 -10.041  0.00  0.00    +0.000 NA
ATOM     27  C   UNL     1       3.791  18.008 -10.523  0.00  0.00    +0.000 A 
ATOM     28  N   UNL     1       3.153  17.027  -9.810  0.00  0.00    +0.000 N 
ATOM     29  C   UNL     1       2.772  17.190  -8.502  0.00  0.00    +0.000 A 
ATOM     30  O   UNL     1       2.083  16.345  -7.936  0.00  0.00    +0.000 OA
ATOM     31  C   UNL     1       3.198  18.437  -7.895  0.00  0.00    +0.000 A 
ATOM     32  H   UNL     1       2.867  16.166 -10.253  0.00  0.00    +0.000 HD
ENDBRANCH  19  22
ENDBRANCH   1  20
TORSDOF 7
