REMARK  Name = 
REMARK  6 active torsions:
REMARK  status: ('A' for Active; 'I' for Inactive)
REMARK    1  A    between atoms: N_1  and  C_2
REMARK    2  A    between atoms: C_2  and  C_3
REMARK    3  A    between atoms: C_3  and  C_4
REMARK    4  A    between atoms: C_7  and  C_8
REMARK    5  A    between atoms: C_8  and  N_9
REMARK    6  A    between atoms: C_16  and  C_17
REMARK                            x       y       z     vdW  Elec       q    Type
REMARK                         _______ _______ _______ _____ _____    ______ ____
ROOT
ATOM      1  N   UNL     1       9.755  -1.551   1.589  0.00  0.00    +0.000 N 
ATOM      2  C   UNL     1      10.294  -2.809   1.641  0.00  0.00    +0.000 A 
ATOM      3  N   UNL     1      10.531  -3.181   2.877  0.00  0.00    +0.000 NA
ATOM      4  C   UNL     1      10.168  -2.108   3.650  0.00  0.00    +0.000 A 
ATOM      5  C   UNL     1      10.109  -2.000   5.044  0.00  0.00    +0.000 A 
ATOM      6  C   UNL     1       9.699  -0.786   5.597  0.00  0.00    +0.000 A 
ATOM      7  F   UNL     1       9.578  -0.731   6.934  0.00  0.00    +0.000 F 
ATOM      8  C   UNL     1       9.413   0.330   4.804  0.00  0.00    +0.000 A 
ATOM      9  C   UNL     1       9.472   0.231   3.401  0.00  0.00    +0.000 A 
ATOM     10  C   UNL     1       9.798  -1.023   2.861  0.00  0.00    +0.000 A 
ENDROOT
BRANCH   8  11
ATOM     11  C   UNL     1       9.011   1.638   5.389  0.00  0.00    +0.000 C 
ATOM     12  N   UNL     1       8.773   1.696   6.732  0.00  0.00    +0.000 N 
ATOM     13  O   UNL     1       8.882   2.637   4.690  0.00  0.00    +0.000 OA
ATOM     14  H   UNL     1       8.863   0.893   7.343  0.00  0.00    +0.000 HD
ATOM     15  H   UNL     1       8.498   2.581   7.134  0.00  0.00    +0.000 HD
ENDBRANCH   8  11
BRANCH   1  16
ATOM     16  C   UNL     1       9.014  -1.022   0.453  0.00  0.00    +0.000 C 
BRANCH  16  20
ATOM     17  C   UNL     1       4.808  -1.536   1.375  0.00  0.00    +0.000 A 
ATOM     18  C   UNL     1       5.398  -0.269   1.428  0.00  0.00    +0.000 A 
ATOM     19  C   UNL     1       6.744  -0.098   1.089  0.00  0.00    +0.000 A 
ATOM     20  C   UNL     1       7.526  -1.187   0.683  0.00  0.00    +0.000 A 
ATOM     21  C   UNL     1       6.918  -2.450   0.593  0.00  0.00    +0.000 A 
ATOM     22  C   UNL     1       5.573  -2.622   0.933  0.00  0.00    +0.000 A 
BRANCH  17  23
ATOM     23  C   UNL     1       3.371  -1.733   1.804  0.00  0.00    +0.000 C 
BRANCH  23  24
ATOM     24  C   UNL     1       2.380  -1.561   0.649  0.00  0.00    +0.000 C 
BRANCH  24  25
ATOM     25  N   UNL     1       1.002  -1.748   1.108  0.00  0.00    +0.000 NA
ATOM     26  H   UNL     1       0.365  -1.631   0.321  0.00  0.00    +0.000 HD
ATOM     27  H   UNL     1       0.762  -1.017   1.777  0.00  0.00    +0.000 HD
ENDBRANCH  24  25
ENDBRANCH  23  24
ENDBRANCH  17  23
ENDBRANCH  16  20
ENDBRANCH   1  16
TORSDOF 6
