REMARK  Name = 
REMARK  5 active torsions:
REMARK  status: ('A' for Active; 'I' for Inactive)
REMARK    1  A    between atoms: C_2  and  C_3
REMARK    2  A    between atoms: C_6  and  C_7
REMARK    3  A    between atoms: C_11  and  C_12
REMARK    4  A    between atoms: C_12  and  N_13
REMARK    5  A    between atoms: C_17  and  C_18
REMARK                            x       y       z     vdW  Elec       q    Type
REMARK                         _______ _______ _______ _____ _____    ______ ____
ROOT
ATOM      1  C   UNL     1       6.500  -2.142  -1.615  0.00  0.00    +0.000 C 
ATOM      2  C   UNL     1       6.955  -3.589  -1.385  0.00  0.00    +0.000 C 
ATOM      3  C   UNL     1       7.876  -2.629  -2.039  0.00  0.00    +0.000 C 
ATOM      4  F   UNL     1       9.009  -2.309  -1.317  0.00  0.00    +0.000 F 
ENDROOT
BRANCH   1   5
ATOM      5  N   UNL     1       6.165  -1.411  -0.367  0.00  0.00    +0.000 N 
ATOM      6  C   UNL     1       6.635  -0.139  -0.024  0.00  0.00    +0.000 A 
ATOM      7  C   UNL     1       7.911   0.308  -0.332  0.00  0.00    +0.000 A 
ATOM      8  C   UNL     1       8.352   1.541   0.143  0.00  0.00    +0.000 A 
ATOM      9  C   UNL     1       7.507   2.318   0.926  0.00  0.00    +0.000 A 
ATOM     10  C   UNL     1       6.238   1.822   1.172  0.00  0.00    +0.000 A 
ATOM     11  N   UNL     1       5.794   0.614   0.726  0.00  0.00    +0.000 NA
ATOM     12  H   UNL     1       5.189  -1.430  -0.081  0.00  0.00    +0.000 HD
BRANCH   9  13
ATOM     13  C   UNL     1       8.000   3.613   1.436  0.00  0.00    +0.000 C 
ATOM     14  N   UNL     1       7.465   4.094   2.597  0.00  0.00    +0.000 N 
ATOM     15  O   UNL     1       8.903   4.216   0.869  0.00  0.00    +0.000 OA
ATOM     16  H   UNL     1       6.927   3.525   3.234  0.00  0.00    +0.000 HD
ATOM     17  H   UNL     1       7.939   4.901   2.988  0.00  0.00    +0.000 HD
ENDBRANCH   9  13
ENDBRANCH   1   5
BRANCH   1  22
ATOM     18  C   UNL     1       3.235  -2.421  -3.683  0.00  0.00    +0.000 A 
ATOM     19  C   UNL     1       3.539  -1.554  -4.744  0.00  0.00    +0.000 A 
ATOM     20  C   UNL     1       4.763  -0.884  -4.808  0.00  0.00    +0.000 A 
ATOM     21  C   UNL     1       5.710  -1.054  -3.799  0.00  0.00    +0.000 A 
ATOM     22  C   UNL     1       5.471  -1.922  -2.726  0.00  0.00    +0.000 A 
ATOM     23  C   UNL     1       4.232  -2.598  -2.703  0.00  0.00    +0.000 A 
BRANCH  18  27
ATOM     24  C   UNL     1      -0.604  -4.383  -3.346  0.00  0.00    +0.000 A 
ATOM     25  C   UNL     1       0.114  -4.045  -2.201  0.00  0.00    +0.000 A 
ATOM     26  C   UNL     1       1.355  -3.407  -2.320  0.00  0.00    +0.000 A 
ATOM     27  C   UNL     1       1.921  -3.104  -3.576  0.00  0.00    +0.000 A 
ATOM     28  C   UNL     1       1.177  -3.464  -4.712  0.00  0.00    +0.000 A 
ATOM     29  C   UNL     1      -0.067  -4.086  -4.593  0.00  0.00    +0.000 A 
ATOM     30  F   UNL     1      -0.740  -4.390  -5.712  0.00  0.00    +0.000 F 
BRANCH  24  32
ATOM     31  N   UNL     1      -2.910  -5.541  -3.115  0.00  0.00    +0.000 NA
ATOM     32  C   UNL     1      -1.878  -5.019  -3.238  0.00  0.00    +0.000 C 
ENDBRANCH  24  32
ENDBRANCH  18  27
ENDBRANCH   1  22
TORSDOF 5
