REMARK  Name = 
REMARK  7 active torsions:
REMARK  status: ('A' for Active; 'I' for Inactive)
REMARK    1  A    between atoms: C_2  and  C_4
REMARK    2  A    between atoms: C_7  and  O_8
REMARK    3  A    between atoms: O_8  and  C_9
REMARK    4  A    between atoms: C_9  and  C_10
REMARK    5  A    between atoms: C_13  and  C_14
REMARK    6  A    between atoms: C_14  and  N_15
REMARK    7  A    between atoms: C_16  and  C_18
REMARK                            x       y       z     vdW  Elec       q    Type
REMARK                         _______ _______ _______ _____ _____    ______ ____
ROOT
ATOM      1  C   UNL     1       5.861   3.921   5.987  0.00  0.00    +0.000 A 
ATOM      2  C   UNL     1       5.712   5.310   5.872  0.00  0.00    +0.000 A 
ATOM      3  C   UNL     1       6.481   6.177   6.657  0.00  0.00    +0.000 A 
ATOM      4  C   UNL     1       7.429   5.672   7.557  0.00  0.00    +0.000 A 
ATOM      5  C   UNL     1       7.583   4.284   7.665  0.00  0.00    +0.000 A 
ATOM      6  C   UNL     1       6.815   3.418   6.881  0.00  0.00    +0.000 A 
ENDROOT
BRANCH   1   7
ATOM      7  C   UNL     1       4.983   2.984   5.192  0.00  0.00    +0.000 C 
BRANCH   7   8
ATOM      8  O   UNL     1       5.572   2.697   3.922  0.00  0.00    +0.000 OA
BRANCH   8  12
ATOM      9  C   UNL     1       3.691   0.155   1.287  0.00  0.00    +0.000 A 
ATOM     10  C   UNL     1       3.038   0.403   2.486  0.00  0.00    +0.000 A 
ATOM     11  C   UNL     1       3.639   1.258   3.410  0.00  0.00    +0.000 A 
ATOM     12  C   UNL     1       4.868   1.845   3.114  0.00  0.00    +0.000 A 
ATOM     13  C   UNL     1       5.439   1.536   1.880  0.00  0.00    +0.000 A 
ATOM     14  N   UNL     1       4.891   0.705   0.954  0.00  0.00    +0.000 NA
BRANCH   9  16
ATOM     15  N   UNL     1       3.794  -1.017  -0.837  0.00  0.00    +0.000 N 
ATOM     16  C   UNL     1       3.064  -0.775   0.294  0.00  0.00    +0.000 C 
ATOM     17  O   UNL     1       1.972  -1.298   0.478  0.00  0.00    +0.000 OA
ATOM     18  H   UNL     1       3.433  -1.651  -1.534  0.00  0.00    +0.000 HD
ATOM     19  H   UNL     1       4.702  -0.583  -0.951  0.00  0.00    +0.000 HD
ENDBRANCH   9  16
ENDBRANCH   8  12
ENDBRANCH   7   8
ENDBRANCH   1   7
BRANCH   4  20
ATOM     20  C   UNL     1       8.245   6.596   8.424  0.00  0.00    +0.000 C 
BRANCH  20  21
ATOM     21  N   UNL     1       7.590   6.852   9.683  0.00  0.00    +0.000 N 
ATOM     22  C   UNL     1       8.122   7.734  10.589  0.00  0.00    +0.000 C 
ATOM     23  O   UNL     1       9.146   8.369  10.350  0.00  0.00    +0.000 OA
ATOM     24  H   UNL     1       6.885   6.186   9.985  0.00  0.00    +0.000 HD
BRANCH  22  25
ATOM     25  C   UNL     1       7.374   7.934  11.837  0.00  0.00    +0.000 A 
ATOM     26  C   UNL     1       7.550   9.106  12.560  0.00  0.00    +0.000 A 
ATOM     27  S   UNL     1       6.569   9.207  13.951  0.00  0.00    +0.000 S 
ATOM     28  C   UNL     1       5.914   7.663  13.667  0.00  0.00    +0.000 A 
ATOM     29  N   UNL     1       5.006   7.122  14.523  0.00  0.00    +0.000 NA
ATOM     30  C   UNL     1       4.623   5.930  14.210  0.00  0.00    +0.000 A 
ATOM     31  N   UNL     1       5.061   5.232  13.114  0.00  0.00    +0.000 N 
ATOM     32  C   UNL     1       5.946   5.754  12.200  0.00  0.00    +0.000 A 
ATOM     33  O   UNL     1       6.275   5.124  11.200  0.00  0.00    +0.000 OA
ATOM     34  C   UNL     1       6.424   7.086  12.517  0.00  0.00    +0.000 A 
ATOM     35  H   UNL     1       4.713   4.305  12.919  0.00  0.00    +0.000 HD
ENDBRANCH  22  25
ENDBRANCH  20  21
ENDBRANCH   4  20
TORSDOF 7
