REMARK  Name = 
REMARK  7 active torsions:
REMARK  status: ('A' for Active; 'I' for Inactive)
REMARK    1  A    between atoms: N_1  and  C_2
REMARK    2  A    between atoms: C_2  and  C_3
REMARK    3  A    between atoms: C_6  and  O_7
REMARK    4  A    between atoms: O_7  and  C_8
REMARK    5  A    between atoms: C_8  and  C_9
REMARK    6  A    between atoms: C_12  and  C_13
REMARK    7  A    between atoms: C_13  and  O_15
REMARK                            x       y       z     vdW  Elec       q    Type
REMARK                         _______ _______ _______ _____ _____    ______ ____
ROOT
ATOM      1  C   UNL     1       3.351   6.000  -2.078  0.00  0.00    +0.000 C 
ENDROOT
BRANCH   1   2
ATOM      2  C   UNL     1       3.934   7.221  -2.749  0.00  0.00    +0.000 A 
ATOM      3  N   UNL     1       3.192   7.831  -3.715  0.00  0.00    +0.000 NA
ATOM      4  C   UNL     1       3.678   8.985  -4.243  0.00  0.00    +0.000 A 
ATOM      5  C   UNL     1       4.885   9.561  -3.864  0.00  0.00    +0.000 A 
ATOM      6  C   UNL     1       5.628   8.933  -2.864  0.00  0.00    +0.000 A 
ATOM      7  C   UNL     1       5.142   7.753  -2.309  0.00  0.00    +0.000 A 
ATOM      8  F   UNL     1       5.828   7.171  -1.316  0.00  0.00    +0.000 F 
BRANCH   5   9
ATOM      9  C   UNL     1       5.270  10.840  -4.494  0.00  0.00    +0.000 C 
ATOM     10  O   UNL     1       4.443  11.616  -4.947  0.00  0.00    +0.000 OA
BRANCH   9  11
ATOM     11  O   UNL     1       6.597  11.065  -4.555  0.00  0.00    +0.000 OA
ATOM     12  H   UNL     1       7.182  10.329  -4.302  0.00  0.00    +0.000 HD
ENDBRANCH   9  11
ENDBRANCH   5   9
ENDBRANCH   1   2
BRANCH   1  13
ATOM     13  O   UNL     1       4.185   4.849  -2.247  0.00  0.00    +0.000 OA
BRANCH  13  17
ATOM     14  C   UNL     1       2.961   1.210  -0.551  0.00  0.00    +0.000 A 
ATOM     15  C   UNL     1       2.174   2.352  -0.366  0.00  0.00    +0.000 A 
ATOM     16  C   UNL     1       2.550   3.582  -0.911  0.00  0.00    +0.000 A 
ATOM     17  C   UNL     1       3.728   3.698  -1.651  0.00  0.00    +0.000 A 
ATOM     18  C   UNL     1       4.531   2.567  -1.823  0.00  0.00    +0.000 A 
ATOM     19  C   UNL     1       4.152   1.332  -1.279  0.00  0.00    +0.000 A 
BRANCH  14  20
ATOM     20  C   UNL     1       2.531  -0.106   0.046  0.00  0.00    +0.000 C 
BRANCH  20  21
ATOM     21  N   UNL     1       1.216  -0.511  -0.442  0.00  0.00    +0.000 NA
ATOM     22  H   UNL     1       0.980  -1.422  -0.055  0.00  0.00    +0.000 HD
ATOM     23  H   UNL     1       1.263  -0.627  -1.453  0.00  0.00    +0.000 HD
ENDBRANCH  20  21
ENDBRANCH  14  20
ENDBRANCH  13  17
ENDBRANCH   1  13
TORSDOF 7
