REMARK  Name = 
REMARK  6 active torsions:
REMARK  status: ('A' for Active; 'I' for Inactive)
REMARK    1  A    between atoms: C_1  and  C_2
REMARK    2  A    between atoms: C_9  and  C_10
REMARK    3  A    between atoms: C_10  and  S_11
REMARK    4  A    between atoms: S_11  and  C_12
REMARK    5  A    between atoms: C_16  and  C_17
REMARK    6  A    between atoms: C_22  and  C_23
REMARK                            x       y       z     vdW  Elec       q    Type
REMARK                         _______ _______ _______ _____ _____    ______ ____
ROOT
ATOM      1  C   UNL     1       1.797   1.413   0.498  0.00  0.00    +0.000 C 
ATOM      2  C   UNL     1       3.089   0.789  -0.030  0.00  0.00    +0.000 C 
ATOM      3  C   UNL     1       3.465   1.300  -1.437  0.00  0.00    +0.000 C 
ATOM      4  N   UNL     1       2.563   0.737  -2.456  0.00  0.00    +0.000 N 
ATOM      5  C   UNL     1       1.847   1.560  -3.296  0.00  0.00    +0.000 A 
ATOM      6  C   UNL     1       2.269   2.842  -3.666  0.00  0.00    +0.000 A 
ATOM      7  N   UNL     1       1.598   3.674  -4.509  0.00  0.00    +0.000 NA
ATOM      8  C   UNL     1       0.448   3.178  -5.003  0.00  0.00    +0.000 A 
ATOM      9  C   UNL     1      -0.021   1.923  -4.655  0.00  0.00    +0.000 A 
ATOM     10  N   UNL     1       0.678   1.123  -3.804  0.00  0.00    +0.000 NA
ATOM     11  C   UNL     1       2.450  -0.746  -2.395  0.00  0.00    +0.000 C 
ATOM     12  C   UNL     1       1.484  -1.423  -3.362  0.00  0.00    +0.000 C 
ATOM     13  C   UNL     1       2.124  -1.193  -0.951  0.00  0.00    +0.000 C 
ATOM     14  O   UNL     1       3.037  -0.646   0.014  0.00  0.00    +0.000 OA
ENDROOT
BRANCH   9  15
ATOM     15  C   UNL     1      -1.305   1.383  -5.227  0.00  0.00    +0.000 C 
BRANCH  15  16
ATOM     16  S   UNL     1      -2.533   0.930  -3.954  0.00  0.00    +0.000 S 
BRANCH  16  17
ATOM     17  C   UNL     1      -2.839   2.529  -3.250  0.00  0.00    +0.000 A 
ATOM     18  N   UNL     1      -3.200   2.568  -1.967  0.00  0.00    +0.000 NA
ATOM     19  C   UNL     1      -3.472   3.776  -1.493  0.00  0.00    +0.000 A 
ATOM     20  N   UNL     1      -3.433   4.914  -2.183  0.00  0.00    +0.000 NA
ATOM     21  C   UNL     1      -3.062   4.735  -3.459  0.00  0.00    +0.000 A 
ATOM     22  N   UNL     1      -2.756   3.583  -4.051  0.00  0.00    +0.000 NA
BRANCH  21  23
ATOM     23  C   UNL     1      -3.011   5.965  -4.329  0.00  0.00    +0.000 C 
ATOM     24  N   UNL     1      -3.386   7.147  -3.741  0.00  0.00    +0.000 N 
ATOM     25  O   UNL     1      -2.659   5.937  -5.505  0.00  0.00    +0.000 OA
ATOM     26  H   UNL     1      -3.676   7.178  -2.769  0.00  0.00    +0.000 HD
ATOM     27  H   UNL     1      -3.378   7.993  -4.294  0.00  0.00    +0.000 HD
ENDBRANCH  21  23
ENDBRANCH  16  17
ENDBRANCH  15  16
ENDBRANCH   9  15
TORSDOF 4
