REMARK  Name = 
REMARK  4 active torsions:
REMARK  status: ('A' for Active; 'I' for Inactive)
REMARK    1  A    between atoms: C_2  and  C_4
REMARK    2  A    between atoms: C_7  and  N_8
REMARK    3  A    between atoms: N_8  and  C_9
REMARK    4  A    between atoms: C_9  and  C_10
REMARK                            x       y       z     vdW  Elec       q    Type
REMARK                         _______ _______ _______ _____ _____    ______ ____
ROOT
ATOM      1  C   UNL     1       3.148  -0.965   0.970  0.00  0.00    +0.000 A 
ATOM      2  C   UNL     1       2.712  -1.663   2.100  0.00  0.00    +0.000 A 
ATOM      3  C   UNL     1       3.612  -2.456   2.824  0.00  0.00    +0.000 A 
ATOM      4  C   UNL     1       4.950  -2.573   2.431  0.00  0.00    +0.000 A 
ATOM      5  C   UNL     1       5.387  -1.813   1.340  0.00  0.00    +0.000 A 
ATOM      6  C   UNL     1       4.494  -1.034   0.598  0.00  0.00    +0.000 A 
ENDROOT
BRANCH   1   8
ATOM      7  N   UNL     1       1.081   0.299   0.688  0.00  0.00    +0.000 N 
ATOM      8  C   UNL     1       2.214  -0.199   0.106  0.00  0.00    +0.000 C 
ATOM      9  O   UNL     1       2.453   0.008  -1.077  0.00  0.00    +0.000 OA
ATOM     10  H   UNL     1       0.505   0.893   0.104  0.00  0.00    +0.000 HD
ATOM     11  H   UNL     1       0.968   0.367   1.688  0.00  0.00    +0.000 HD
ENDBRANCH   1   8
BRANCH   4  12
ATOM     12  N   UNL     1       5.869  -3.420   3.041  0.00  0.00    +0.000 N 
ATOM     13  H   UNL     1       6.633  -2.924   3.493  0.00  0.00    +0.000 HD
BRANCH  12  14
ATOM     14  C   UNL     1       5.409  -4.590   3.774  0.00  0.00    +0.000 C 
BRANCH  14  15
ATOM     15  C   UNL     1       6.466  -5.667   3.739  0.00  0.00    +0.000 A 
ATOM     16  C   UNL     1       6.964  -6.230   4.922  0.00  0.00    +0.000 A 
ATOM     17  C   UNL     1       7.883  -7.281   4.872  0.00  0.00    +0.000 A 
ATOM     18  C   UNL     1       8.312  -7.781   3.644  0.00  0.00    +0.000 A 
ATOM     19  C   UNL     1       7.833  -7.226   2.460  0.00  0.00    +0.000 A 
ATOM     20  C   UNL     1       6.916  -6.175   2.508  0.00  0.00    +0.000 A 
ENDBRANCH  14  15
ENDBRANCH  12  14
ENDBRANCH   4  12
TORSDOF 4
