REMARK  Name = 
REMARK  10 active torsions:
REMARK  status: ('A' for Active; 'I' for Inactive)
REMARK    1  A    between atoms: C_1  and  C_2
REMARK    2  A    between atoms: C_8  and  C_9
REMARK    3  A    between atoms: C_9  and  C_10
REMARK    4  A    between atoms: C_9  and  C_11
REMARK    5  A    between atoms: C_9  and  C_12
REMARK    6  A    between atoms: C_12  and  O_13
REMARK    7  A    between atoms: O_13  and  C_14
REMARK    8  A    between atoms: C_17  and  N_18
REMARK    9  A    between atoms: N_18  and  S_19
REMARK   10  A    between atoms: S_19  and  C_20
REMARK                            x       y       z     vdW  Elec       q    Type
REMARK                         _______ _______ _______ _____ _____    ______ ____
ROOT
ATOM      1  C   UNL     1       9.002   1.177  -0.201  0.00  0.00    +0.000 C 
ATOM      2  C   UNL     1       9.514   2.534  -0.723  0.00  0.00    +0.000 C 
ATOM      3  C   UNL     1       9.514   0.967   1.244  0.00  0.00    +0.000 C 
ENDROOT
BRANCH   1  11
ATOM      4  C   UNL     1       1.191   0.102   0.432  0.00  0.00    +0.000 C 
ATOM      5  C   UNL     1       2.673  -0.115   0.287  0.00  0.00    +0.000 C 
ATOM      6  O   UNL     1       3.170  -1.231   0.397  0.00  0.00    +0.000 OA
ATOM      7  N   UNL     1       3.368   1.045   0.026  0.00  0.00    +0.000 N 
ATOM      8  C   UNL     1       4.758   1.080  -0.099  0.00  0.00    +0.000 A 
ATOM      9  C   UNL     1       5.493   0.097  -0.752  0.00  0.00    +0.000 A 
ATOM     10  N   UNL     1       6.847   0.124  -0.832  0.00  0.00    +0.000 NA
ATOM     11  C   UNL     1       7.470   1.152  -0.204  0.00  0.00    +0.000 A 
ATOM     12  C   UNL     1       6.713   2.134   0.438  0.00  0.00    +0.000 A 
ATOM     13  N   UNL     1       5.357   2.147   0.468  0.00  0.00    +0.000 NA
ATOM     14  H   UNL     1       2.976   1.920   0.345  0.00  0.00    +0.000 HD
ENDBRANCH   1  11
BRANCH   1  15
ATOM     15  C   UNL     1       9.559   0.046  -1.101  0.00  0.00    +0.000 C 
BRANCH  15  16
ATOM     16  O   UNL     1      10.999   0.037  -1.121  0.00  0.00    +0.000 OA
BRANCH  16  17
ATOM     17  C   UNL     1      11.495  -0.978  -1.919  0.00  0.00    +0.000 A 
ATOM     18  C   UNL     1      12.874  -1.084  -2.039  0.00  0.00    +0.000 A 
ATOM     19  C   UNL     1      13.395  -2.103  -2.844  0.00  0.00    +0.000 A 
ATOM     20  C   UNL     1      12.521  -2.978  -3.482  0.00  0.00    +0.000 A 
ATOM     21  C   UNL     1      11.159  -2.781  -3.306  0.00  0.00    +0.000 A 
ATOM     22  N   UNL     1      10.630  -1.809  -2.538  0.00  0.00    +0.000 NA
BRANCH  20  23
ATOM     23  N   UNL     1      12.996  -3.997  -4.361  0.00  0.00    +0.000 N 
ATOM     24  H   UNL     1      13.855  -4.469  -4.071  0.00  0.00    +0.000 HD
BRANCH  23  25
ATOM     25  S   UNL     1      13.102  -3.604  -6.005  0.00  0.00    +0.000 S 
ATOM     26  C   UNL     1      11.495  -4.079  -6.607  0.00  0.00    +0.000 C 
ATOM     27  O   UNL     1      13.264  -2.178  -6.151  0.00  0.00    +0.000 OA
ATOM     28  O   UNL     1      14.069  -4.533  -6.552  0.00  0.00    +0.000 OA
ENDBRANCH  23  25
ENDBRANCH  20  23
ENDBRANCH  16  17
ENDBRANCH  15  16
ENDBRANCH   1  15
TORSDOF 6
