REMARK  Name = 
REMARK  4 active torsions:
REMARK  status: ('A' for Active; 'I' for Inactive)
REMARK    1  A    between atoms: C_2  and  C_4
REMARK    2  A    between atoms: N_8  and  C_9
REMARK    3  A    between atoms: C_9  and  C_10
REMARK    4  A    between atoms: C_14  and  C_15
REMARK                            x       y       z     vdW  Elec       q    Type
REMARK                         _______ _______ _______ _____ _____    ______ ____
ROOT
ATOM      1  C   UNL     1       7.789   0.214   1.530  0.00  0.00    +0.000 A 
ATOM      2  C   UNL     1       7.243  -0.569   2.542  0.00  0.00    +0.000 A 
ATOM      3  C   UNL     1       6.425   0.031   3.499  0.00  0.00    +0.000 A 
ATOM      4  C   UNL     1       6.180   1.398   3.445  0.00  0.00    +0.000 A 
ATOM      5  N   UNL     1       5.325   2.048   4.308  0.00  0.00    +0.000 N 
ATOM      6  N   UNL     1       6.713   2.168   2.475  0.00  0.00    +0.000 NA
ATOM      7  C   UNL     1       7.509   1.571   1.547  0.00  0.00    +0.000 A 
ATOM      8  H   UNL     1       5.393   3.045   4.127  0.00  0.00    +0.000 HD
ENDROOT
BRANCH   1  10
ATOM      9  N   UNL     1       8.469  -1.667   0.154  0.00  0.00    +0.000 N 
ATOM     10  C   UNL     1       8.645  -0.348   0.467  0.00  0.00    +0.000 C 
ATOM     11  O   UNL     1       9.461   0.344  -0.131  0.00  0.00    +0.000 OA
ATOM     12  H   UNL     1       8.995  -2.019  -0.635  0.00  0.00    +0.000 HD
ATOM     13  H   UNL     1       7.653  -2.191   0.439  0.00  0.00    +0.000 HD
ENDBRANCH   1  10
BRANCH   5  14
ATOM     14  C   UNL     1       5.171   1.660   5.694  0.00  0.00    +0.000 C 
BRANCH  14  15
ATOM     15  C   UNL     1       6.206   2.285   6.591  0.00  0.00    +0.000 A 
ATOM     16  C   UNL     1       7.136   1.508   7.282  0.00  0.00    +0.000 A 
ATOM     17  C   UNL     1       7.993   2.137   8.168  0.00  0.00    +0.000 A 
ATOM     18  N   UNL     1       7.987   3.466   8.408  0.00  0.00    +0.000 NA
ATOM     19  C   UNL     1       7.103   4.232   7.721  0.00  0.00    +0.000 A 
ATOM     20  C   UNL     1       6.207   3.668   6.811  0.00  0.00    +0.000 A 
BRANCH  19  21
ATOM     21  C   UNL     1       7.102   5.675   8.038  0.00  0.00    +0.000 A 
ATOM     22  C   UNL     1       6.758   6.649   7.081  0.00  0.00    +0.000 A 
ATOM     23  C   UNL     1       6.717   8.008   7.407  0.00  0.00    +0.000 A 
ATOM     24  C   UNL     1       7.029   8.425   8.697  0.00  0.00    +0.000 A 
ATOM     25  C   UNL     1       7.390   7.486   9.658  0.00  0.00    +0.000 A 
ATOM     26  C   UNL     1       7.429   6.128   9.330  0.00  0.00    +0.000 A 
ENDBRANCH  19  21
ENDBRANCH  14  15
ENDBRANCH   5  14
TORSDOF 4
