REMARK  Name = 
REMARK  7 active torsions:
REMARK  status: ('A' for Active; 'I' for Inactive)
REMARK    1  A    between atoms: C_1  and  C_2
REMARK    2  A    between atoms: C_2  and  C_3
REMARK    3  A    between atoms: C_2  and  C_4
REMARK    4  A    between atoms: C_2  and  C_5
REMARK    5  A    between atoms: C_7  and  C_8
REMARK    6  A    between atoms: C_8  and  N_9
REMARK    7  A    between atoms: C_14  and  C_15
REMARK                            x       y       z     vdW  Elec       q    Type
REMARK                         _______ _______ _______ _____ _____    ______ ____
ROOT
ATOM      1  N   UNL     1       2.684   5.039   1.390  0.00  0.00    +0.000 N 
ATOM      2  C   UNL     1       1.874   4.674   2.439  0.00  0.00    +0.000 A 
ATOM      3  C   UNL     1       2.585   4.842   3.604  0.00  0.00    +0.000 A 
ATOM      4  C   UNL     1       3.861   5.363   3.259  0.00  0.00    +0.000 A 
ATOM      5  C   UNL     1       4.997   5.719   4.018  0.00  0.00    +0.000 A 
ATOM      6  C   UNL     1       6.140   6.213   3.370  0.00  0.00    +0.000 A 
ATOM      7  C   UNL     1       6.131   6.369   1.978  0.00  0.00    +0.000 A 
ATOM      8  C   UNL     1       5.016   6.024   1.206  0.00  0.00    +0.000 A 
ATOM      9  C   UNL     1       3.893   5.507   1.868  0.00  0.00    +0.000 A 
ENDROOT
BRANCH   6  10
ATOM     10  C   UNL     1       7.390   6.576   4.100  0.00  0.00    +0.000 C 
ATOM     11  N   UNL     1       7.434   6.415   5.457  0.00  0.00    +0.000 N 
ATOM     12  O   UNL     1       8.375   7.005   3.509  0.00  0.00    +0.000 OA
ATOM     13  H   UNL     1       6.686   6.058   6.028  0.00  0.00    +0.000 HD
ATOM     14  H   UNL     1       8.305   6.654   5.913  0.00  0.00    +0.000 HD
ENDBRANCH   6  10
BRANCH   1  15
ATOM     15  C   UNL     1       2.307   4.921  -0.018  0.00  0.00    +0.000 C 
BRANCH  15  18
ATOM     16  C   UNL     1       2.892   1.200  -0.621  0.00  0.00    +0.000 A 
ATOM     17  C   UNL     1       2.401   2.396  -0.092  0.00  0.00    +0.000 A 
ATOM     18  C   UNL     1       2.803   3.630  -0.618  0.00  0.00    +0.000 A 
ATOM     19  C   UNL     1       3.670   3.618  -1.710  0.00  0.00    +0.000 A 
ATOM     20  C   UNL     1       4.101   2.394  -2.198  0.00  0.00    +0.000 A 
ATOM     21  N   UNL     1       3.735   1.200  -1.679  0.00  0.00    +0.000 NA
BRANCH  16  23
ATOM     22  C   UNL     1       0.967  -0.332  -0.098  0.00  0.00    +0.000 C 
ATOM     23  C   UNL     1       2.493  -0.143   0.004  0.00  0.00    +0.000 C 
ATOM     24  C   UNL     1       2.922  -0.177   1.485  0.00  0.00    +0.000 C 
ATOM     25  C   UNL     1       3.167  -1.336  -0.706  0.00  0.00    +0.000 C 
ENDBRANCH  16  23
ENDBRANCH  15  18
ENDBRANCH   1  15
TORSDOF 4
