REMARK  Name = 
REMARK  7 active torsions:
REMARK  status: ('A' for Active; 'I' for Inactive)
REMARK    1  A    between atoms: C_1  and  C_2
REMARK    2  A    between atoms: C_2  and  N_3
REMARK    3  A    between atoms: C_2  and  C_16
REMARK    4  A    between atoms: C_4  and  C_6
REMARK    5  A    between atoms: C_19  and  O_20
REMARK    6  A    between atoms: O_20  and  C_21
REMARK    7  A    between atoms: C_21  and  C_22
REMARK                            x       y       z     vdW  Elec       q    Type
REMARK                         _______ _______ _______ _____ _____    ______ ____
ROOT
ATOM      1  C   UNL     1       1.241  -0.157  -0.916  0.00  0.00    +0.000 C 
ATOM      2  C   UNL     1       2.443   0.011   0.026  0.00  0.00    +0.000 C 
ENDROOT
BRANCH   2   3
ATOM      3  C   UNL     1       2.872  -1.289   0.679  0.00  0.00    +0.000 A 
ATOM      4  C   UNL     1       3.408  -1.284   1.978  0.00  0.00    +0.000 A 
ATOM      5  C   UNL     1       3.713  -2.486   2.627  0.00  0.00    +0.000 A 
ATOM      6  C   UNL     1       3.482  -3.701   1.986  0.00  0.00    +0.000 A 
ATOM      7  C   UNL     1       3.073  -3.708   0.654  0.00  0.00    +0.000 A 
ATOM      8  C   UNL     1       2.770  -2.514   0.008  0.00  0.00    +0.000 A 
BRANCH   6   9
ATOM      9  O   UNL     1       3.662  -4.837   2.732  0.00  0.00    +0.000 OA
BRANCH   9  10
ATOM     10  C   UNL     1       2.848  -5.934   2.302  0.00  0.00    +0.000 C 
BRANCH  10  11
ATOM     11  C   UNL     1       2.670  -6.915   3.426  0.00  0.00    +0.000 A 
ATOM     12  C   UNL     1       1.396  -7.191   3.932  0.00  0.00    +0.000 A 
ATOM     13  C   UNL     1       1.277  -8.124   4.949  0.00  0.00    +0.000 A 
ATOM     14  N   UNL     1       2.320  -8.792   5.478  0.00  0.00    +0.000 NA
ATOM     15  C   UNL     1       3.543  -8.508   4.977  0.00  0.00    +0.000 A 
ATOM     16  C   UNL     1       3.766  -7.593   3.962  0.00  0.00    +0.000 A 
ENDBRANCH  10  11
ENDBRANCH   9  10
ENDBRANCH   6   9
ENDBRANCH   2   3
BRANCH   2  17
ATOM     17  N   UNL     1       3.567   0.575  -0.687  0.00  0.00    +0.000 N 
ATOM     18  C   UNL     1       3.672   1.916  -0.938  0.00  0.00    +0.000 C 
ATOM     19  O   UNL     1       2.911   2.743  -0.445  0.00  0.00    +0.000 OA
ATOM     20  H   UNL     1       4.119  -0.076  -1.235  0.00  0.00    +0.000 HD
BRANCH  18  21
ATOM     21  C   UNL     1       4.775   2.320  -1.813  0.00  0.00    +0.000 A 
ATOM     22  C   UNL     1       5.342   3.579  -1.678  0.00  0.00    +0.000 A 
ATOM     23  S   UNL     1       6.576   3.892  -2.812  0.00  0.00    +0.000 S 
ATOM     24  C   UNL     1       6.362   2.371  -3.549  0.00  0.00    +0.000 A 
ATOM     25  N   UNL     1       7.078   2.019  -4.649  0.00  0.00    +0.000 NA
ATOM     26  C   UNL     1       6.785   0.855  -5.125  0.00  0.00    +0.000 A 
ATOM     27  N   UNL     1       5.859  -0.001  -4.586  0.00  0.00    +0.000 N 
ATOM     28  C   UNL     1       5.155   0.286  -3.440  0.00  0.00    +0.000 A 
ATOM     29  O   UNL     1       4.412  -0.544  -2.922  0.00  0.00    +0.000 OA
ATOM     30  C   UNL     1       5.403   1.611  -2.903  0.00  0.00    +0.000 A 
ATOM     31  H   UNL     1       5.709  -0.915  -4.987  0.00  0.00    +0.000 HD
ENDBRANCH  18  21
ENDBRANCH   2  17
TORSDOF 6
