REMARK  Name = 
REMARK  6 active torsions:
REMARK  status: ('A' for Active; 'I' for Inactive)
REMARK    1  A    between atoms: C_2  and  C_3
REMARK    2  A    between atoms: N_7  and  C_8
REMARK    3  A    between atoms: C_8  and  C_9
REMARK    4  A    between atoms: C_9  and  C_11
REMARK    5  A    between atoms: C_15  and  O_16
REMARK    6  A    between atoms: O_16  and  C_17
REMARK                            x       y       z     vdW  Elec       q    Type
REMARK                         _______ _______ _______ _____ _____    ______ ____
ROOT
ATOM      1  C   UNL     1      -5.858   1.118  -0.322  0.00  0.00    +0.000 C 
ATOM      2  F   UNL     1      -6.605   0.084  -0.822  0.00  0.00    +0.000 F 
ENDROOT
BRANCH   1   3
ATOM      3  C   UNL     1      -6.647   2.409  -0.259  0.00  0.00    +0.000 A 
ATOM      4  C   UNL     1      -8.033   2.389  -0.068  0.00  0.00    +0.000 A 
ATOM      5  C   UNL     1      -8.750   3.583   0.038  0.00  0.00    +0.000 A 
ATOM      6  C   UNL     1      -8.094   4.815  -0.051  0.00  0.00    +0.000 A 
ATOM      7  C   UNL     1      -6.717   4.849  -0.251  0.00  0.00    +0.000 A 
ATOM      8  C   UNL     1      -5.998   3.652  -0.347  0.00  0.00    +0.000 A 
BRANCH   7   9
ATOM      9  O   UNL     1      -5.956   5.988  -0.322  0.00  0.00    +0.000 OA
BRANCH   9  10
ATOM     10  C   UNL     1      -6.578   7.248  -0.647  0.00  0.00    +0.000 C 
ATOM     11  C   UNL     1      -7.056   7.450  -2.108  0.00  0.00    +0.000 C 
ATOM     12  C   UNL     1      -6.443   8.860  -2.073  0.00  0.00    +0.000 C 
ATOM     13  C   UNL     1      -5.562   8.393  -0.906  0.00  0.00    +0.000 C 
ENDBRANCH   9  10
ENDBRANCH   7   9
ENDBRANCH   1   3
BRANCH   1  14
ATOM     14  C   UNL     1      -5.359   0.707   1.079  0.00  0.00    +0.000 C 
BRANCH  14  19
ATOM     15  C   UNL     1      -2.856  -2.266   4.384  0.00  0.00    +0.000 A 
ATOM     16  C   UNL     1      -3.078  -0.895   4.417  0.00  0.00    +0.000 A 
ATOM     17  C   UNL     1      -3.641  -0.265   3.305  0.00  0.00    +0.000 A 
ATOM     18  C   UNL     1      -3.989  -1.014   2.187  0.00  0.00    +0.000 A 
ATOM     19  N   UNL     1      -4.467  -0.453   1.014  0.00  0.00    +0.000 N 
ATOM     20  N   UNL     1      -3.797  -2.349   2.154  0.00  0.00    +0.000 NA
ATOM     21  C   UNL     1      -3.236  -2.946   3.237  0.00  0.00    +0.000 A 
ATOM     22  H   UNL     1      -4.797  -1.215   0.420  0.00  0.00    +0.000 HD
BRANCH  15  24
ATOM     23  N   UNL     1      -1.734  -3.496   6.365  0.00  0.00    +0.000 NA
ATOM     24  C   UNL     1      -2.239  -2.950   5.477  0.00  0.00    +0.000 C 
ENDBRANCH  15  24
ENDBRANCH  14  19
ENDBRANCH   1  14
TORSDOF 6
