REMARK  Name = 
REMARK  8 active torsions:
REMARK  status: ('A' for Active; 'I' for Inactive)
REMARK    1  A    between atoms: C_1  and  C_2
REMARK    2  A    between atoms: C_2  and  C_3
REMARK    3  A    between atoms: C_7  and  C_8
REMARK    4  A    between atoms: C_8  and  C_9
REMARK    5  A    between atoms: C_9  and  N_10
REMARK    6  A    between atoms: N_10  and  C_11
REMARK    7  A    between atoms: C_14  and  C_15
REMARK    8  A    between atoms: C_23  and  O_24
REMARK                            x       y       z     vdW  Elec       q    Type
REMARK                         _______ _______ _______ _____ _____    ______ ____
ROOT
ATOM      1  C   UNL     1       4.398   2.698  -3.853  0.00  0.00    +0.000 C 
ENDROOT
BRANCH   1   6
ATOM      2  C   UNL     1       2.973   0.130  -1.393  0.00  0.00    +0.000 A 
ATOM      3  C   UNL     1       2.684  -0.924  -2.279  0.00  0.00    +0.000 A 
ATOM      4  C   UNL     1       2.963  -0.826  -3.645  0.00  0.00    +0.000 A 
ATOM      5  C   UNL     1       3.544   0.329  -4.163  0.00  0.00    +0.000 A 
ATOM      6  C   UNL     1       3.847   1.395  -3.315  0.00  0.00    +0.000 A 
ATOM      7  C   UNL     1       3.546   1.287  -1.946  0.00  0.00    +0.000 A 
BRANCH   2   9
ATOM      8  C   UNL     1       1.051  -0.089   0.172  0.00  0.00    +0.000 C 
ATOM      9  C   UNL     1       2.589   0.017   0.093  0.00  0.00    +0.000 C 
ATOM     10  C   UNL     1       3.260  -1.210   0.771  0.00  0.00    +0.000 C 
ATOM     11  C   UNL     1       4.471  -0.701   1.568  0.00  0.00    +0.000 C 
ATOM     12  C   UNL     1       4.489   0.812   1.410  0.00  0.00    +0.000 C 
ATOM     13  C   UNL     1       3.061   1.171   1.015  0.00  0.00    +0.000 C 
BRANCH  12  14
ATOM     14  O   UNL     1       5.436   1.203   0.425  0.00  0.00    +0.000 OA
ATOM     15  H   UNL     1       5.406   0.562  -0.309  0.00  0.00    +0.000 HD
ENDBRANCH  12  14
ENDBRANCH   2   9
ENDBRANCH   1   6
BRANCH   1  16
ATOM     16  C   UNL     1       3.246   3.664  -4.144  0.00  0.00    +0.000 C 
BRANCH  16  17
ATOM     17  N   UNL     1       3.724   4.965  -4.631  0.00  0.00    +0.000 N 
ATOM     18  H   UNL     1       4.409   4.874  -5.379  0.00  0.00    +0.000 HD
BRANCH  17  19
ATOM     19  C   UNL     1       2.713   5.887  -4.969  0.00  0.00    +0.000 A 
ATOM     20  C   UNL     1       2.954   6.859  -5.942  0.00  0.00    +0.000 A 
ATOM     21  C   UNL     1       1.961   7.785  -6.277  0.00  0.00    +0.000 A 
ATOM     22  C   UNL     1       0.755   7.735  -5.592  0.00  0.00    +0.000 A 
ATOM     23  N   UNL     1       0.492   6.856  -4.594  0.00  0.00    +0.000 NA
ATOM     24  C   UNL     1       1.484   5.980  -4.301  0.00  0.00    +0.000 A 
BRANCH  22  25
ATOM     25  C   UNL     1      -0.355   8.672  -5.954  0.00  0.00    +0.000 C 
ATOM     26  N   UNL     1      -1.508   8.522  -5.229  0.00  0.00    +0.000 N 
ATOM     27  O   UNL     1      -0.252   9.512  -6.836  0.00  0.00    +0.000 OA
ATOM     28  H   UNL     1      -1.554   7.809  -4.509  0.00  0.00    +0.000 HD
ATOM     29  H   UNL     1      -2.305   9.107  -5.429  0.00  0.00    +0.000 HD
ENDBRANCH  22  25
ENDBRANCH  17  19
ENDBRANCH  16  17
ENDBRANCH   1  16
TORSDOF 7
