REMARK  Name = 
REMARK  6 active torsions:
REMARK  status: ('A' for Active; 'I' for Inactive)
REMARK    1  A    between atoms: C_2  and  C_18
REMARK    2  A    between atoms: N_3  and  C_4
REMARK    3  A    between atoms: C_4  and  C_5
REMARK    4  A    between atoms: C_8  and  C_9
REMARK    5  A    between atoms: C_9  and  C_10
REMARK    6  A    between atoms: C_13  and  O_14
REMARK                            x       y       z     vdW  Elec       q    Type
REMARK                         _______ _______ _______ _____ _____    ______ ____
ROOT
ATOM      1  O   UNL     1       8.116   5.875   8.684  0.00  0.00    +0.000 OA
ATOM      2  C   UNL     1       9.164   6.488   8.507  0.00  0.00    +0.000 C 
ATOM      3  N   UNL     1       9.197   7.824   8.201  0.00  0.00    +0.000 N 
ATOM      4  H   UNL     1      10.068   8.234   7.888  0.00  0.00    +0.000 HD
ENDROOT
BRANCH   2   5
ATOM      5  C   UNL     1      10.468   5.843   8.678  0.00  0.00    +0.000 A 
ATOM      6  C   UNL     1      10.594   4.719   9.484  0.00  0.00    +0.000 A 
ATOM      7  S   UNL     1      12.187   4.107   9.555  0.00  0.00    +0.000 S 
ATOM      8  C   UNL     1      12.753   5.302   8.486  0.00  0.00    +0.000 A 
ATOM      9  N   UNL     1      14.055   5.336   8.094  0.00  0.00    +0.000 NA
ATOM     10  C   UNL     1      14.335   6.274   7.253  0.00  0.00    +0.000 A 
ATOM     11  N   UNL     1      13.436   7.197   6.784  0.00  0.00    +0.000 N 
ATOM     12  C   UNL     1      12.133   7.250   7.214  0.00  0.00    +0.000 A 
ATOM     13  O   UNL     1      11.397   8.181   6.886  0.00  0.00    +0.000 OA
ATOM     14  C   UNL     1      11.752   6.180   8.109  0.00  0.00    +0.000 A 
ATOM     15  H   UNL     1      13.729   7.934   6.160  0.00  0.00    +0.000 HD
ENDBRANCH   2   5
BRANCH   3  16
ATOM     16  C   UNL     1       8.011   8.609   7.982  0.00  0.00    +0.000 C 
BRANCH  16  17
ATOM     17  C   UNL     1       7.623   8.641   6.535  0.00  0.00    +0.000 A 
ATOM     18  C   UNL     1       6.807   7.647   5.989  0.00  0.00    +0.000 A 
ATOM     19  C   UNL     1       6.427   7.720   4.652  0.00  0.00    +0.000 A 
ATOM     20  C   UNL     1       6.862   8.796   3.886  0.00  0.00    +0.000 A 
ATOM     21  N   UNL     1       7.680   9.755   4.383  0.00  0.00    +0.000 NA
ATOM     22  C   UNL     1       8.052   9.651   5.684  0.00  0.00    +0.000 A 
BRANCH  20  23
ATOM     23  C   UNL     1       6.446   8.945   2.444  0.00  0.00    +0.000 C 
BRANCH  23  24
ATOM     24  C   UNL     1       4.930   9.117   2.222  0.00  0.00    +0.000 C 
ATOM     25  C   UNL     1       4.326  10.337   2.945  0.00  0.00    +0.000 C 
ATOM     26  C   UNL     1       3.596  11.156   1.880  0.00  0.00    +0.000 C 
ATOM     27  C   UNL     1       4.317  10.815   0.585  0.00  0.00    +0.000 C 
ATOM     28  C   UNL     1       4.607   9.327   0.731  0.00  0.00    +0.000 C 
BRANCH  27  29
ATOM     29  O   UNL     1       5.526  11.553   0.455  0.00  0.00    +0.000 OA
ATOM     30  H   UNL     1       5.963  11.611   1.322  0.00  0.00    +0.000 HD
ENDBRANCH  27  29
ENDBRANCH  23  24
ENDBRANCH  20  23
ENDBRANCH  16  17
ENDBRANCH   3  16
TORSDOF 6
