REMARK  Name = 
REMARK  7 active torsions:
REMARK  status: ('A' for Active; 'I' for Inactive)
REMARK    1  A    between atoms: C_2  and  C_19
REMARK    2  A    between atoms: N_3  and  C_4
REMARK    3  A    between atoms: C_4  and  C_5
REMARK    4  A    between atoms: C_8  and  C_9
REMARK    5  A    between atoms: C_9  and  N_10
REMARK    6  A    between atoms: N_10  and  C_11
REMARK    7  A    between atoms: C_11  and  C_12
REMARK                            x       y       z     vdW  Elec       q    Type
REMARK                         _______ _______ _______ _____ _____    ______ ____
ROOT
ATOM      1  C   UNL     1       2.388   0.101  -2.484  0.00  0.00    +0.000 C 
ENDROOT
BRANCH   1   2
ATOM      2  C   UNL     1       3.329   0.160  -3.663  0.00  0.00    +0.000 A 
ATOM      3  C   UNL     1       3.675   1.389  -4.216  0.00  0.00    +0.000 A 
ATOM      4  C   UNL     1       4.534   1.419  -5.309  0.00  0.00    +0.000 A 
ATOM      5  C   UNL     1       5.033   0.222  -5.830  0.00  0.00    +0.000 A 
ATOM      6  C   UNL     1       4.610  -0.959  -5.230  0.00  0.00    +0.000 A 
ATOM      7  N   UNL     1       3.777  -1.018  -4.168  0.00  0.00    +0.000 NA
BRANCH   5   8
ATOM      8  C   UNL     1       6.012   0.195  -6.972  0.00  0.00    +0.000 C 
BRANCH   8   9
ATOM      9  N   UNL     1       7.261   0.923  -6.712  0.00  0.00    +0.000 NA
ATOM     10  H   UNL     1       7.031   1.892  -6.485  0.00  0.00    +0.000 HD
BRANCH   9  11
ATOM     11  C   UNL     1       7.993   0.360  -5.570  0.00  0.00    +0.000 C 
BRANCH  11  12
ATOM     12  C   UNL     1       9.245   1.124  -5.331  0.00  0.00    +0.000 A 
ATOM     13  N   UNL     1       9.591   1.791  -4.250  0.00  0.00    +0.000 NA
ATOM     14  N   UNL     1      10.831   2.345  -4.472  0.00  0.00    +0.000 NA
ATOM     15  C   UNL     1      11.206   2.008  -5.683  0.00  0.00    +0.000 A 
ATOM     16  N   UNL     1      10.244   1.240  -6.260  0.00  0.00    +0.000 N 
ATOM     17  H   UNL     1      10.237   0.851  -7.191  0.00  0.00    +0.000 HD
ENDBRANCH  11  12
ENDBRANCH   9  11
ENDBRANCH   8   9
ENDBRANCH   5   8
ENDBRANCH   1   2
BRANCH   1  20
ATOM     18  O   UNL     1       0.698   2.311  -2.804  0.00  0.00    +0.000 OA
ATOM     19  C   UNL     1       0.266   1.195  -3.078  0.00  0.00    +0.000 C 
ATOM     20  N   UNL     1       1.007   0.056  -2.905  0.00  0.00    +0.000 N 
ATOM     21  H   UNL     1       0.736  -0.793  -3.391  0.00  0.00    +0.000 HD
BRANCH  19  22
ATOM     22  C   UNL     1      -1.104   1.002  -3.560  0.00  0.00    +0.000 A 
ATOM     23  C   UNL     1      -2.094   1.917  -3.228  0.00  0.00    +0.000 A 
ATOM     24  S   UNL     1      -3.623   1.528  -3.879  0.00  0.00    +0.000 S 
ATOM     25  C   UNL     1      -3.004   0.143  -4.651  0.00  0.00    +0.000 A 
ATOM     26  N   UNL     1      -3.798  -0.651  -5.418  0.00  0.00    +0.000 NA
ATOM     27  C   UNL     1      -3.186  -1.648  -5.965  0.00  0.00    +0.000 A 
ATOM     28  N   UNL     1      -1.856  -1.931  -5.808  0.00  0.00    +0.000 N 
ATOM     29  C   UNL     1      -1.028  -1.194  -4.998  0.00  0.00    +0.000 A 
ATOM     30  O   UNL     1       0.129  -1.537  -4.797  0.00  0.00    +0.000 OA
ATOM     31  C   UNL     1      -1.657  -0.036  -4.391  0.00  0.00    +0.000 A 
ATOM     32  H   UNL     1      -1.438  -2.744  -6.237  0.00  0.00    +0.000 HD
ENDBRANCH  19  22
ENDBRANCH   1  20
TORSDOF 7
