REMARK  Name = 
REMARK  7 active torsions:
REMARK  status: ('A' for Active; 'I' for Inactive)
REMARK    1  A    between atoms: C_1  and  O_2
REMARK    2  A    between atoms: O_2  and  C_3
REMARK    3  A    between atoms: C_5  and  C_6
REMARK    4  A    between atoms: C_11  and  C_12
REMARK    5  A    between atoms: C_12  and  N_13
REMARK    6  A    between atoms: N_13  and  C_14
REMARK    7  A    between atoms: C_19  and  C_20
REMARK                            x       y       z     vdW  Elec       q    Type
REMARK                         _______ _______ _______ _____ _____    ______ ____
ROOT
ATOM      1  C   UNL     1       4.474  -1.585   1.168  0.00  0.00    +0.000 C 
ENDROOT
BRANCH   1   7
ATOM      2  C   UNL     1       4.394  -0.497  -1.142  0.00  0.00    +0.000 A 
ATOM      3  C   UNL     1       4.041  -0.551  -2.497  0.00  0.00    +0.000 A 
ATOM      4  C   UNL     1       3.403  -1.676  -3.040  0.00  0.00    +0.000 A 
ATOM      5  C   UNL     1       3.129  -2.766  -2.211  0.00  0.00    +0.000 A 
ATOM      6  C   UNL     1       3.482  -2.722  -0.857  0.00  0.00    +0.000 A 
ATOM      7  C   UNL     1       4.124  -1.596  -0.309  0.00  0.00    +0.000 A 
BRANCH   4   8
ATOM      8  C   UNL     1       3.054  -1.629  -4.491  0.00  0.00    +0.000 C 
ATOM      9  N   UNL     1       2.408  -2.694  -5.050  0.00  0.00    +0.000 N 
ATOM     10  O   UNL     1       3.329  -0.654  -5.183  0.00  0.00    +0.000 OA
ATOM     11  H   UNL     1       2.113  -3.523  -4.561  0.00  0.00    +0.000 HD
ATOM     12  H   UNL     1       2.162  -2.610  -6.028  0.00  0.00    +0.000 HD
ENDBRANCH   4   8
BRANCH   2  14
ATOM     13  C   UNL     1       4.987   1.803  -1.277  0.00  0.00    +0.000 C 
ATOM     14  O   UNL     1       5.024   0.572  -0.560  0.00  0.00    +0.000 OA
ENDBRANCH   2  14
ENDBRANCH   1   7
BRANCH   1  15
ATOM     15  N   UNL     1       3.330  -1.121   1.949  0.00  0.00    +0.000 N 
ATOM     16  H   UNL     1       2.891  -0.305   1.524  0.00  0.00    +0.000 HD
BRANCH  15  17
ATOM     17  C   UNL     1       3.412  -0.990   3.337  0.00  0.00    +0.000 A 
ATOM     18  C   UNL     1       4.452  -1.508   4.111  0.00  0.00    +0.000 A 
ATOM     19  C   UNL     1       4.440  -1.397   5.506  0.00  0.00    +0.000 A 
ATOM     20  C   UNL     1       3.367  -0.793   6.169  0.00  0.00    +0.000 A 
ATOM     21 CL   UNL     1       3.497  -0.679   7.889  0.00  0.00    +0.000 Cl
ATOM     22  C   UNL     1       2.287  -0.303   5.425  0.00  0.00    +0.000 A 
ATOM     23  C   UNL     1       2.326  -0.416   4.020  0.00  0.00    +0.000 A 
BRANCH  22  24
ATOM     24  C   UNL     1       1.083   0.363   5.995  0.00  0.00    +0.000 C 
ATOM     25  N   UNL     1       0.691   0.057   7.264  0.00  0.00    +0.000 N 
ATOM     26  O   UNL     1       0.430   1.161   5.331  0.00  0.00    +0.000 OA
ATOM     27  H   UNL     1       1.235  -0.526   7.886  0.00  0.00    +0.000 HD
ATOM     28  H   UNL     1      -0.090   0.574   7.649  0.00  0.00    +0.000 HD
ENDBRANCH  22  24
ENDBRANCH  15  17
ENDBRANCH   1  15
TORSDOF 6
