REMARK  Name = 
REMARK  4 active torsions:
REMARK  status: ('A' for Active; 'I' for Inactive)
REMARK    1  A    between atoms: C_2  and  C_4
REMARK    2  A    between atoms: C_7  and  N_8
REMARK    3  A    between atoms: N_8  and  C_9
REMARK    4  A    between atoms: C_9  and  C_10
REMARK                            x       y       z     vdW  Elec       q    Type
REMARK                         _______ _______ _______ _____ _____    ______ ____
ROOT
ATOM      1  C   UNL     1       4.677   4.687  -3.960  0.00  0.00    +0.000 C 
ENDROOT
BRANCH   1   2
ATOM      2  C   UNL     1       5.443   5.401  -5.050  0.00  0.00    +0.000 A 
ATOM      3  C   UNL     1       6.144   4.702  -6.046  0.00  0.00    +0.000 A 
ATOM      4  C   UNL     1       6.695   5.432  -7.090  0.00  0.00    +0.000 A 
ATOM      5  N   UNL     1       6.554   6.757  -7.239  0.00  0.00    +0.000 NA
ATOM      6  C   UNL     1       5.838   7.434  -6.312  0.00  0.00    +0.000 A 
ATOM      7  N   UNL     1       5.491   8.741  -6.557  0.00  0.00    +0.000 N 
ATOM      8  C   UNL     1       5.307   9.713  -5.482  0.00  0.00    +0.000 C 
ATOM      9  C   UNL     1       4.238  10.746  -5.912  0.00  0.00    +0.000 C 
ATOM     10  N   UNL     1       4.493  11.373  -7.230  0.00  0.00    +0.000 NA
ATOM     11  C   UNL     1       4.731  10.316  -8.242  0.00  0.00    +0.000 C 
ATOM     12  C   UNL     1       5.848   9.326  -7.844  0.00  0.00    +0.000 C 
ATOM     13  C   UNL     1       5.327   6.774  -5.203  0.00  0.00    +0.000 A 
ATOM     14  H   UNL     1       5.346  11.925  -7.155  0.00  0.00    +0.000 HD
ENDBRANCH   1   2
BRANCH   1  15
ATOM     15  N   UNL     1       4.615   5.443  -2.707  0.00  0.00    +0.000 N 
ATOM     16  H   UNL     1       5.485   5.893  -2.437  0.00  0.00    +0.000 HD
BRANCH  15  20
ATOM     17  C   UNL     1       2.398   4.029   0.602  0.00  0.00    +0.000 A 
ATOM     18  C   UNL     1       2.518   3.234  -0.539  0.00  0.00    +0.000 A 
ATOM     19  C   UNL     1       3.259   3.687  -1.635  0.00  0.00    +0.000 A 
ATOM     20  C   UNL     1       3.919   4.922  -1.613  0.00  0.00    +0.000 A 
ATOM     21  C   UNL     1       3.770   5.717  -0.462  0.00  0.00    +0.000 A 
ATOM     22  C   UNL     1       3.012   5.283   0.633  0.00  0.00    +0.000 A 
BRANCH  17  24
ATOM     23  N   UNL     1       1.511   2.232   1.968  0.00  0.00    +0.000 N 
ATOM     24  C   UNL     1       1.594   3.583   1.767  0.00  0.00    +0.000 C 
ATOM     25  O   UNL     1       1.059   4.376   2.527  0.00  0.00    +0.000 OA
ATOM     26  H   UNL     1       1.045   1.928   2.812  0.00  0.00    +0.000 HD
ATOM     27  H   UNL     1       2.142   1.584   1.519  0.00  0.00    +0.000 HD
ENDBRANCH  17  24
ENDBRANCH  15  20
ENDBRANCH   1  15
TORSDOF 4
