REMARK  Name = 
REMARK  5 active torsions:
REMARK  status: ('A' for Active; 'I' for Inactive)
REMARK    1  A    between atoms: C_2  and  C_4
REMARK    2  A    between atoms: N_8  and  C_9
REMARK    3  A    between atoms: C_9  and  C_10
REMARK    4  A    between atoms: C_10  and  C_13
REMARK    5  A    between atoms: C_17  and  C_18
REMARK                            x       y       z     vdW  Elec       q    Type
REMARK                         _______ _______ _______ _____ _____    ______ ____
ROOT
ATOM      1  C   UNL     1       6.082  -1.279   7.057  0.00  0.00    +0.000 C 
ATOM      2  F   UNL     1       7.337  -1.402   6.528  0.00  0.00    +0.000 F 
ATOM      3  F   UNL     1       6.053  -0.047   7.643  0.00  0.00    +0.000 F 
ENDROOT
BRANCH   1   4
ATOM      4  C   UNL     1       5.771  -2.385   8.050  0.00  0.00    +0.000 A 
ATOM      5  C   UNL     1       4.956  -2.137   9.161  0.00  0.00    +0.000 A 
ATOM      6  C   UNL     1       4.625  -3.171  10.031  0.00  0.00    +0.000 A 
ATOM      7  C   UNL     1       5.091  -4.466   9.790  0.00  0.00    +0.000 A 
ATOM      8  C   UNL     1       5.894  -4.761   8.674  0.00  0.00    +0.000 A 
ATOM      9  C   UNL     1       6.241  -3.692   7.827  0.00  0.00    +0.000 A 
BRANCH   8  10
ATOM     10  C   UNL     1       6.309  -6.148   8.362  0.00  0.00    +0.000 A 
ATOM     11  C   UNL     1       7.548  -6.438   7.773  0.00  0.00    +0.000 A 
ATOM     12  C   UNL     1       7.856  -7.751   7.443  0.00  0.00    +0.000 A 
ATOM     13  N   UNL     1       7.035  -8.794   7.664  0.00  0.00    +0.000 NA
ATOM     14  C   UNL     1       5.855  -8.507   8.243  0.00  0.00    +0.000 A 
ATOM     15  F   UNL     1       5.013  -9.525   8.474  0.00  0.00    +0.000 F 
ATOM     16  C   UNL     1       5.454  -7.231   8.600  0.00  0.00    +0.000 A 
ENDBRANCH   8  10
ENDBRANCH   1   4
BRANCH   1  17
ATOM     17  C   UNL     1       5.055  -1.317   5.893  0.00  0.00    +0.000 C 
BRANCH  17  22
ATOM     18  C   UNL     1       2.890   0.226   1.540  0.00  0.00    +0.000 A 
ATOM     19  C   UNL     1       2.315  -0.388   2.646  0.00  0.00    +0.000 A 
ATOM     20  C   UNL     1       3.083  -0.570   3.797  0.00  0.00    +0.000 A 
ATOM     21  C   UNL     1       4.409  -0.148   3.821  0.00  0.00    +0.000 A 
ATOM     22  N   UNL     1       5.195  -0.197   4.956  0.00  0.00    +0.000 N 
ATOM     23  N   UNL     1       4.986   0.414   2.741  0.00  0.00    +0.000 NA
ATOM     24  C   UNL     1       4.226   0.585   1.626  0.00  0.00    +0.000 A 
ATOM     25  H   UNL     1       6.151   0.052   4.702  0.00  0.00    +0.000 HD
BRANCH  18  27
ATOM     26  N   UNL     1       0.786   0.696   0.425  0.00  0.00    +0.000 N 
ATOM     27  C   UNL     1       2.137   0.508   0.301  0.00  0.00    +0.000 C 
ATOM     28  O   UNL     1       2.698   0.608  -0.782  0.00  0.00    +0.000 OA
ATOM     29  H   UNL     1       0.299   0.999  -0.413  0.00  0.00    +0.000 HD
ATOM     30  H   UNL     1       0.340   0.872   1.311  0.00  0.00    +0.000 HD
ENDBRANCH  18  27
ENDBRANCH  17  22
ENDBRANCH   1  17
TORSDOF 5
