REMARK  Name = 
REMARK  7 active torsions:
REMARK  status: ('A' for Active; 'I' for Inactive)
REMARK    1  A    between atoms: N_1  and  C_2
REMARK    2  A    between atoms: C_2  and  C_3
REMARK    3  A    between atoms: C_3  and  O_4
REMARK    4  A    between atoms: O_4  and  C_5
REMARK    5  A    between atoms: C_8  and  C_9
REMARK    6  A    between atoms: C_9  and  N_10
REMARK    7  A    between atoms: C_15  and  C_16
REMARK                            x       y       z     vdW  Elec       q    Type
REMARK                         _______ _______ _______ _____ _____    ______ ____
ROOT
ATOM      1  N   UNL     1       7.246   2.948   7.157  0.00  0.00    +0.000 N 
ATOM      2  C   UNL     1       6.534   4.118   7.122  0.00  0.00    +0.000 A 
ATOM      3  N   UNL     1       6.766   4.865   8.176  0.00  0.00    +0.000 NA
ATOM      4  C   UNL     1       7.655   4.150   8.933  0.00  0.00    +0.000 A 
ATOM      5  C   UNL     1       8.349   4.541  10.084  0.00  0.00    +0.000 A 
ATOM      6  C   UNL     1       9.272   3.657  10.665  0.00  0.00    +0.000 A 
ATOM      7  C   UNL     1       9.394   2.351  10.165  0.00  0.00    +0.000 A 
ATOM      8  C   UNL     1       8.702   1.941   9.011  0.00  0.00    +0.000 A 
ATOM      9  C   UNL     1       7.889   2.892   8.381  0.00  0.00    +0.000 A 
ENDROOT
BRANCH   6  10
ATOM     10  C   UNL     1      10.144   4.216  11.741  0.00  0.00    +0.000 C 
ATOM     11  N   UNL     1      11.064   3.404  12.340  0.00  0.00    +0.000 N 
ATOM     12  O   UNL     1      10.087   5.397  12.064  0.00  0.00    +0.000 OA
ATOM     13  H   UNL     1      11.197   2.425  12.151  0.00  0.00    +0.000 HD
ATOM     14  H   UNL     1      11.681   3.847  13.010  0.00  0.00    +0.000 HD
ENDBRANCH   6  10
BRANCH   1  15
ATOM     15  C   UNL     1       7.616   2.162   5.983  0.00  0.00    +0.000 C 
BRANCH  15  19
ATOM     16  C   UNL     1       4.413   1.341   3.178  0.00  0.00    +0.000 A 
ATOM     17  C   UNL     1       5.202   2.479   3.024  0.00  0.00    +0.000 A 
ATOM     18  C   UNL     1       6.234   2.747   3.935  0.00  0.00    +0.000 A 
ATOM     19  C   UNL     1       6.490   1.887   5.017  0.00  0.00    +0.000 A 
ATOM     20  C   UNL     1       5.693   0.749   5.163  0.00  0.00    +0.000 A 
ATOM     21  C   UNL     1       4.666   0.487   4.249  0.00  0.00    +0.000 A 
BRANCH  16  22
ATOM     22  O   UNL     1       3.357   0.973   2.396  0.00  0.00    +0.000 OA
BRANCH  22  23
ATOM     23  C   UNL     1       3.272   1.537   1.084  0.00  0.00    +0.000 C 
BRANCH  23  24
ATOM     24  C   UNL     1       1.967   1.034   0.448  0.00  0.00    +0.000 C 
BRANCH  24  25
ATOM     25  N   UNL     1       1.801   1.476  -0.935  0.00  0.00    +0.000 NA
ATOM     26  H   UNL     1       0.897   1.146  -1.277  0.00  0.00    +0.000 HD
ATOM     27  H   UNL     1       2.501   1.024  -1.525  0.00  0.00    +0.000 HD
ENDBRANCH  24  25
ENDBRANCH  23  24
ENDBRANCH  22  23
ENDBRANCH  16  22
ENDBRANCH  15  19
ENDBRANCH   1  15
TORSDOF 7
