REMARK  Name = 
REMARK  4 active torsions:
REMARK  status: ('A' for Active; 'I' for Inactive)
REMARK    1  A    between atoms: C_2  and  C_4
REMARK    2  A    between atoms: N_8  and  C_9
REMARK    3  A    between atoms: C_9  and  C_10
REMARK    4  A    between atoms: C_14  and  N_15
REMARK                            x       y       z     vdW  Elec       q    Type
REMARK                         _______ _______ _______ _____ _____    ______ ____
ROOT
ATOM      1  C   UNL     1       7.860  -1.850  -0.984  0.00  0.00    +0.000 A 
ATOM      2  C   UNL     1       7.736  -3.196  -1.309  0.00  0.00    +0.000 A 
ATOM      3  C   UNL     1       7.046  -4.045  -0.440  0.00  0.00    +0.000 A 
ATOM      4  C   UNL     1       6.494  -3.538   0.731  0.00  0.00    +0.000 A 
ATOM      5  N   UNL     1       5.795  -4.287   1.632  0.00  0.00    +0.000 N 
ATOM      6  N   UNL     1       6.629  -2.239   1.064  0.00  0.00    +0.000 NA
ATOM      7  C   UNL     1       7.309  -1.425   0.213  0.00  0.00    +0.000 A 
ATOM      8  H   UNL     1       5.486  -3.764   2.441  0.00  0.00    +0.000 HD
ENDROOT
BRANCH   1  10
ATOM      9  N   UNL     1       8.632  -1.148  -3.178  0.00  0.00    +0.000 N 
ATOM     10  C   UNL     1       8.567  -0.876  -1.839  0.00  0.00    +0.000 C 
ATOM     11  O   UNL     1       9.047   0.151  -1.377  0.00  0.00    +0.000 OA
ATOM     12  H   UNL     1       9.030  -0.425  -3.764  0.00  0.00    +0.000 HD
ATOM     13  H   UNL     1       8.046  -1.840  -3.624  0.00  0.00    +0.000 HD
ENDBRANCH   1  10
BRANCH   5  14
ATOM     14  C   UNL     1       5.433  -5.678   1.518  0.00  0.00    +0.000 C 
BRANCH  14  15
ATOM     15  C   UNL     1       6.460  -6.624   2.082  0.00  0.00    +0.000 A 
ATOM     16  C   UNL     1       6.247  -7.992   1.956  0.00  0.00    +0.000 A 
ATOM     17  N   UNL     1       7.090  -8.936   2.415  0.00  0.00    +0.000 NA
ATOM     18  C   UNL     1       8.205  -8.488   3.047  0.00  0.00    +0.000 A 
ATOM     19  C   UNL     1       8.549  -7.149   3.254  0.00  0.00    +0.000 A 
ATOM     20  C   UNL     1       7.629  -6.222   2.750  0.00  0.00    +0.000 A 
BRANCH  19  21
ATOM     21  N   UNL     1       9.700  -6.771   3.909  0.00  0.00    +0.000 N 
ATOM     22  C   UNL     1       9.821  -5.532   4.693  0.00  0.00    +0.000 C 
ATOM     23  C   UNL     1      10.947  -4.654   4.129  0.00  0.00    +0.000 C 
ATOM     24  O   UNL     1      12.188  -5.379   4.051  0.00  0.00    +0.000 OA
ATOM     25  C   UNL     1      12.042  -6.527   3.198  0.00  0.00    +0.000 C 
ATOM     26  C   UNL     1      10.967  -7.496   3.725  0.00  0.00    +0.000 C 
ENDBRANCH  19  21
ENDBRANCH  14  15
ENDBRANCH   5  14
TORSDOF 4
