REMARK  Name = 
REMARK  8 active torsions:
REMARK  status: ('A' for Active; 'I' for Inactive)
REMARK    1  A    between atoms: C_1  and  O_2
REMARK    2  A    between atoms: O_2  and  C_3
REMARK    3  A    between atoms: C_8  and  C_9
REMARK    4  A    between atoms: N_11  and  C_12
REMARK    5  A    between atoms: C_12  and  C_13
REMARK    6  A    between atoms: C_16  and  C_17
REMARK    7  A    between atoms: C_17  and  N_18
REMARK    8  A    between atoms: C_19  and  C_21
REMARK                            x       y       z     vdW  Elec       q    Type
REMARK                         _______ _______ _______ _____ _____    ______ ____
ROOT
ATOM      1  C   UNL     1       2.823  -1.017   4.152  0.00  0.00    +0.000 C 
ATOM      2  C   UNL     1       3.252   0.446   4.339  0.00  0.00    +0.000 C 
ATOM      3  C   UNL     1       2.355   1.196   5.320  0.00  0.00    +0.000 C 
ATOM      4  C   UNL     1       2.277   0.493   6.683  0.00  0.00    +0.000 C 
ATOM      5  C   UNL     1       1.827  -0.965   6.497  0.00  0.00    +0.000 C 
ATOM      6  C   UNL     1       2.720  -1.723   5.514  0.00  0.00    +0.000 C 
ENDROOT
BRANCH   1   7
ATOM      7  C   UNL     1       3.807  -1.765   3.232  0.00  0.00    +0.000 C 
BRANCH   7  10
ATOM      8  C   UNL     1       3.066  -1.541   0.877  0.00  0.00    +0.000 C 
ATOM      9  O   UNL     1       2.224  -2.428   0.994  0.00  0.00    +0.000 OA
ATOM     10  N   UNL     1       3.893  -1.175   1.913  0.00  0.00    +0.000 N 
ATOM     11  H   UNL     1       4.540  -0.410   1.756  0.00  0.00    +0.000 HD
BRANCH   8  17
ATOM     12  C   UNL     1       4.091   0.272  -0.655  0.00  0.00    +0.000 A 
ATOM     13  C   UNL     1       4.042   0.951  -1.880  0.00  0.00    +0.000 A 
ATOM     14  C   UNL     1       3.128   0.590  -2.869  0.00  0.00    +0.000 A 
ATOM     15  C   UNL     1       2.267  -0.479  -2.655  0.00  0.00    +0.000 A 
ATOM     16  C   UNL     1       2.301  -1.164  -1.442  0.00  0.00    +0.000 A 
ATOM     17  C   UNL     1       3.194  -0.791  -0.417  0.00  0.00    +0.000 A 
BRANCH  12  19
ATOM     18  C   UNL     1       5.522   1.911   0.301  0.00  0.00    +0.000 C 
ATOM     19  O   UNL     1       5.023   0.575   0.311  0.00  0.00    +0.000 OA
ENDBRANCH  12  19
ENDBRANCH   8  17
ENDBRANCH   7  10
ENDBRANCH   1   7
BRANCH   4  20
ATOM     20  C   UNL     1       1.325   1.224   7.651  0.00  0.00    +0.000 C 
BRANCH  20  21
ATOM     21  N   UNL     1       1.732   2.586   7.919  0.00  0.00    +0.000 N 
ATOM     22  C   UNL     1       2.610   2.907   8.927  0.00  0.00    +0.000 C 
ATOM     23  O   UNL     1       3.112   2.058   9.656  0.00  0.00    +0.000 OA
ATOM     24  H   UNL     1       1.183   3.324   7.497  0.00  0.00    +0.000 HD
BRANCH  22  25
ATOM     25  C   UNL     1       2.972   4.322   9.044  0.00  0.00    +0.000 A 
ATOM     26  C   UNL     1       4.206   4.685   9.567  0.00  0.00    +0.000 A 
ATOM     27  S   UNL     1       4.469   6.368   9.592  0.00  0.00    +0.000 S 
ATOM     28  C   UNL     1       2.922   6.675   8.950  0.00  0.00    +0.000 A 
ATOM     29  N   UNL     1       2.489   7.946   8.737  0.00  0.00    +0.000 NA
ATOM     30  C   UNL     1       1.284   8.028   8.275  0.00  0.00    +0.000 A 
ATOM     31  N   UNL     1       0.479   6.951   8.001  0.00  0.00    +0.000 N 
ATOM     32  C   UNL     1       0.878   5.651   8.182  0.00  0.00    +0.000 A 
ATOM     33  O   UNL     1       0.145   4.712   7.897  0.00  0.00    +0.000 OA
ATOM     34  C   UNL     1       2.225   5.507   8.706  0.00  0.00    +0.000 A 
ATOM     35  H   UNL     1      -0.455   7.085   7.634  0.00  0.00    +0.000 HD
ENDBRANCH  22  25
ENDBRANCH  20  21
ENDBRANCH   4  20
TORSDOF 7
