REMARK  Name = 
REMARK  8 active torsions:
REMARK  status: ('A' for Active; 'I' for Inactive)
REMARK    1  A    between atoms: C_2  and  C_4
REMARK    2  A    between atoms: N_8  and  C_9
REMARK    3  A    between atoms: C_9  and  C_10
REMARK    4  A    between atoms: C_10  and  C_13
REMARK    5  A    between atoms: C_17  and  O_18
REMARK    6  A    between atoms: O_18  and  C_19
REMARK    7  A    between atoms: N_21  and  C_22
REMARK    8  A    between atoms: C_22  and  C_23
REMARK                            x       y       z     vdW  Elec       q    Type
REMARK                         _______ _______ _______ _____ _____    ______ ____
ROOT
ATOM      1  C   UNL     1       6.071   4.578   5.497  0.00  0.00    +0.000 C 
ATOM      2  F   UNL     1       5.097   3.939   4.781  0.00  0.00    +0.000 F 
ATOM      3  F   UNL     1       7.206   3.843   5.300  0.00  0.00    +0.000 F 
ENDROOT
BRANCH   1   4
ATOM      4  C   UNL     1       5.718   4.655   6.977  0.00  0.00    +0.000 A 
ATOM      5  C   UNL     1       5.496   3.480   7.706  0.00  0.00    +0.000 A 
ATOM      6  C   UNL     1       5.201   3.547   9.072  0.00  0.00    +0.000 A 
ATOM      7  C   UNL     1       5.125   4.779   9.736  0.00  0.00    +0.000 A 
ATOM      8  C   UNL     1       5.331   5.950   9.022  0.00  0.00    +0.000 A 
ATOM      9  C   UNL     1       5.623   5.879   7.663  0.00  0.00    +0.000 A 
BRANCH   8  10
ATOM     10  O   UNL     1       5.334   7.228   9.513  0.00  0.00    +0.000 OA
BRANCH  10  11
ATOM     11  C   UNL     1       4.589   7.530  10.714  0.00  0.00    +0.000 C 
ATOM     12  C   UNL     1       3.053   7.475  10.649  0.00  0.00    +0.000 C 
ATOM     13  N   UNL     1       2.959   8.852  11.176  0.00  0.00    +0.000 NA
ATOM     14  C   UNL     1       4.413   9.038  11.004  0.00  0.00    +0.000 C 
BRANCH  13  15
ATOM     15  C   UNL     1       2.617   8.838  12.608  0.00  0.00    +0.000 C 
BRANCH  15  16
ATOM     16  C   UNL     1       2.465  10.250  13.173  0.00  0.00    +0.000 C 
ATOM     17  F   UNL     1       2.146  10.153  14.495  0.00  0.00    +0.000 F 
ENDBRANCH  15  16
ENDBRANCH  13  15
ENDBRANCH  10  11
ENDBRANCH   8  10
ENDBRANCH   1   4
BRANCH   1  18
ATOM     18  C   UNL     1       6.281   5.982   4.880  0.00  0.00    +0.000 C 
BRANCH  18  23
ATOM     19  C   UNL     1       7.341   9.568   1.475  0.00  0.00    +0.000 A 
ATOM     20  C   UNL     1       7.531   9.561   2.851  0.00  0.00    +0.000 A 
ATOM     21  C   UNL     1       7.300   8.380   3.555  0.00  0.00    +0.000 A 
ATOM     22  C   UNL     1       6.878   7.234   2.875  0.00  0.00    +0.000 A 
ATOM     23  N   UNL     1       6.737   6.004   3.494  0.00  0.00    +0.000 N 
ATOM     24  N   UNL     1       6.653   7.247   1.550  0.00  0.00    +0.000 NA
ATOM     25  C   UNL     1       6.879   8.405   0.877  0.00  0.00    +0.000 A 
ATOM     26  H   UNL     1       6.294   5.341   2.860  0.00  0.00    +0.000 HD
BRANCH  19  28
ATOM     27  N   UNL     1       8.564  11.625   1.099  0.00  0.00    +0.000 N 
ATOM     28  C   UNL     1       7.608  10.763   0.647  0.00  0.00    +0.000 C 
ATOM     29  O   UNL     1       7.018  10.953  -0.406  0.00  0.00    +0.000 OA
ATOM     30  H   UNL     1       8.813  12.387   0.482  0.00  0.00    +0.000 HD
ATOM     31  H   UNL     1       9.238  11.368   1.812  0.00  0.00    +0.000 HD
ENDBRANCH  19  28
ENDBRANCH  18  23
ENDBRANCH   1  18
TORSDOF 8
