REMARK  Name = 
REMARK  7 active torsions:
REMARK  status: ('A' for Active; 'I' for Inactive)
REMARK    1  A    between atoms: N_1  and  C_2
REMARK    2  A    between atoms: C_2  and  C_3
REMARK    3  A    between atoms: C_2  and  C_19
REMARK    4  A    between atoms: C_3  and  C_4
REMARK    5  A    between atoms: C_7  and  C_8
REMARK    6  A    between atoms: C_8  and  C_9
REMARK    7  A    between atoms: C_9  and  C_10
REMARK                            x       y       z     vdW  Elec       q    Type
REMARK                         _______ _______ _______ _____ _____    ______ ____
ROOT
ATOM      1  C   UNL     1       0.896  -0.164   0.004  0.00  0.00    +0.000 C 
ENDROOT
BRANCH   1   2
ATOM      2  C   UNL     1       0.469  -1.555  -0.402  0.00  0.00    +0.000 A 
ATOM      3  C   UNL     1       1.423  -2.513  -0.756  0.00  0.00    +0.000 A 
ATOM      4  C   UNL     1       1.027  -3.779  -1.181  0.00  0.00    +0.000 A 
ATOM      5  C   UNL     1      -0.330  -4.130  -1.227  0.00  0.00    +0.000 A 
ATOM      6  C   UNL     1      -1.284  -3.177  -0.852  0.00  0.00    +0.000 A 
ATOM      7  C   UNL     1      -0.888  -1.901  -0.445  0.00  0.00    +0.000 A 
BRANCH   5   8
ATOM      8  C   UNL     1      -0.753  -5.498  -1.708  0.00  0.00    +0.000 C 
BRANCH   8   9
ATOM      9  C   UNL     1      -0.141  -6.615  -0.866  0.00  0.00    +0.000 C 
BRANCH   9  10
ATOM     10  C   UNL     1      -0.505  -7.993  -1.379  0.00  0.00    +0.000 C 
ATOM     11  O   UNL     1      -1.285  -8.160  -2.315  0.00  0.00    +0.000 OA
ATOM     12  N   UNL     1       0.120  -9.049  -0.749  0.00  0.00    +0.000 N 
ATOM     13  C   UNL     1       1.006  -9.002   0.401  0.00  0.00    +0.000 C 
ATOM     14  C   UNL     1       1.888 -10.221   0.207  0.00  0.00    +0.000 C 
ATOM     15  C   UNL     1       0.941 -11.243  -0.413  0.00  0.00    +0.000 C 
ATOM     16  C   UNL     1      -0.048 -10.409  -1.224  0.00  0.00    +0.000 C 
ENDBRANCH   9  10
ENDBRANCH   8   9
ENDBRANCH   5   8
ENDBRANCH   1   2
BRANCH   1  17
ATOM     17  C   UNL     1       1.655   0.622  -1.098  0.00  0.00    +0.000 C 
BRANCH  17  18
ATOM     18  C   UNL     1       2.071   2.000  -0.629  0.00  0.00    +0.000 A 
ATOM     19  C   UNL     1       3.394   2.400  -0.524  0.00  0.00    +0.000 A 
ATOM     20  S   UNL     1       3.573   3.972   0.121  0.00  0.00    +0.000 S 
ATOM     21  C   UNL     1       1.888   4.169   0.269  0.00  0.00    +0.000 A 
ATOM     22  N   UNL     1       1.351   5.295   0.809  0.00  0.00    +0.000 NA
ATOM     23  C   UNL     1       0.061   5.294   0.866  0.00  0.00    +0.000 A 
ATOM     24  N   UNL     1      -0.745   4.279   0.409  0.00  0.00    +0.000 N 
ATOM     25  C   UNL     1      -0.250   3.159  -0.216  0.00  0.00    +0.000 A 
ATOM     26  O   UNL     1      -0.999   2.339  -0.741  0.00  0.00    +0.000 OA
ATOM     27  C   UNL     1       1.199   3.074  -0.218  0.00  0.00    +0.000 A 
ATOM     28  H   UNL     1      -1.749   4.362   0.442  0.00  0.00    +0.000 HD
ENDBRANCH  17  18
BRANCH  17  29
ATOM     29  N   UNL     1       0.910   0.774  -2.345  0.00  0.00    +0.000 NA
ATOM     30  H   UNL     1       1.405   1.401  -2.974  0.00  0.00    +0.000 HD
ATOM     31  H   UNL     1       0.002   1.201  -2.140  0.00  0.00    +0.000 HD
ENDBRANCH  17  29
ENDBRANCH   1  17
TORSDOF 7
