REMARK  Name = 
REMARK  6 active torsions:
REMARK  status: ('A' for Active; 'I' for Inactive)
REMARK    1  A    between atoms: C_1  and  C_2
REMARK    2  A    between atoms: C_2  and  C_3
REMARK    3  A    between atoms: C_2  and  C_14
REMARK    4  A    between atoms: C_3  and  N_4
REMARK    5  A    between atoms: N_4  and  C_5
REMARK    6  A    between atoms: C_8  and  C_9
REMARK                            x       y       z     vdW  Elec       q    Type
REMARK                         _______ _______ _______ _____ _____    ______ ____
ROOT
ATOM      1  N   UNL     1       2.362  -1.165   2.097  0.00  0.00    +0.000 N 
ATOM      2  H   UNL     1       2.141  -0.226   2.417  0.00  0.00    +0.000 HD
ENDROOT
BRANCH   1   3
ATOM      3  C   UNL     1       2.850  -1.975   3.130  0.00  0.00    +0.000 A 
ATOM      4  C   UNL     1       3.840  -2.950   2.954  0.00  0.00    +0.000 A 
ATOM      5  C   UNL     1       4.246  -3.776   4.009  0.00  0.00    +0.000 A 
ATOM      6  C   UNL     1       3.648  -3.663   5.265  0.00  0.00    +0.000 A 
ATOM      7  C   UNL     1       2.624  -2.732   5.449  0.00  0.00    +0.000 A 
ATOM      8  C   UNL     1       2.232  -1.901   4.388  0.00  0.00    +0.000 A 
BRANCH   6   9
ATOM      9  C   UNL     1       4.110  -4.577   6.345  0.00  0.00    +0.000 C 
ATOM     10  N   UNL     1       3.904  -4.177   7.638  0.00  0.00    +0.000 N 
ATOM     11  O   UNL     1       4.690  -5.626   6.100  0.00  0.00    +0.000 OA
ATOM     12  H   UNL     1       3.659  -3.231   7.884  0.00  0.00    +0.000 HD
ATOM     13  H   UNL     1       4.324  -4.758   8.354  0.00  0.00    +0.000 HD
ENDBRANCH   6   9
ENDBRANCH   1   3
BRANCH   1  14
ATOM     14  C   UNL     1       3.011  -1.200   0.796  0.00  0.00    +0.000 C 
BRANCH  14  16
ATOM     15  C   UNL     1       0.878  -0.306  -0.367  0.00  0.00    +0.000 C 
ATOM     16  C   UNL     1       2.358  -0.219  -0.140  0.00  0.00    +0.000 C 
BRANCH  16  17
ATOM     17  C   UNL     1       3.209   0.319  -1.222  0.00  0.00    +0.000 A 
ATOM     18  C   UNL     1       4.384   1.021  -0.920  0.00  0.00    +0.000 A 
ATOM     19  C   UNL     1       5.223   1.480  -1.939  0.00  0.00    +0.000 A 
ATOM     20  C   UNL     1       4.898   1.242  -3.273  0.00  0.00    +0.000 A 
ATOM     21  C   UNL     1       3.728   0.556  -3.588  0.00  0.00    +0.000 A 
ATOM     22  C   UNL     1       2.887   0.103  -2.570  0.00  0.00    +0.000 A 
ENDBRANCH  16  17
ENDBRANCH  14  16
ENDBRANCH   1  14
TORSDOF 5
