REMARK  Name = 
REMARK  8 active torsions:
REMARK  status: ('A' for Active; 'I' for Inactive)
REMARK    1  A    between atoms: C_2  and  C_24
REMARK    2  A    between atoms: N_3  and  C_4
REMARK    3  A    between atoms: C_4  and  N_5
REMARK    4  A    between atoms: C_8  and  C_9
REMARK    5  A    between atoms: C_9  and  N_10
REMARK    6  A    between atoms: C_11  and  C_13
REMARK    7  A    between atoms: CA_16  and  C_17
REMARK    8  A    between atoms: C_17  and  O_18
REMARK                            x       y       z     vdW  Elec       q    Type
REMARK                         _______ _______ _______ _____ _____    ______ ____
ROOT
ATOM      1  N   UNL     1       3.068   2.454  -2.710  0.00  0.00    +0.000 NA
ATOM      2  C   UNL     1       3.270   1.817  -4.025  0.00  0.00    +0.000 C 
ATOM      3  C   UNL     1       4.228   2.618  -4.909  0.00  0.00    +0.000 C 
ATOM      4  C   UNL     1       3.755   4.064  -5.110  0.00  0.00    +0.000 C 
ATOM      5  C   UNL     1       3.546   4.692  -3.726  0.00  0.00    +0.000 C 
ATOM      6  C   UNL     1       2.619   3.851  -2.843  0.00  0.00    +0.000 C 
ENDROOT
BRANCH   1   7
ATOM      7  C   UNL     1       2.069   1.728  -1.923  0.00  0.00    +0.000 C 
BRANCH   7  10
ATOM      8  O   UNL     1       0.542  -0.605  -1.692  0.00  0.00    +0.000 OA
ATOM      9  C   UNL     1       1.761  -0.671  -1.562  0.00  0.00    +0.000 C 
ATOM     10  N   UNL     1       2.576   0.417  -1.694  0.00  0.00    +0.000 N 
ATOM     11  H   UNL     1       3.549   0.379  -1.420  0.00  0.00    +0.000 HD
BRANCH   9  12
ATOM     12  C   UNL     1       2.434  -1.951  -1.321  0.00  0.00    +0.000 A 
ATOM     13  C   UNL     1       1.809  -3.139  -1.677  0.00  0.00    +0.000 A 
ATOM     14  S   UNL     1       2.746  -4.525  -1.349  0.00  0.00    +0.000 S 
ATOM     15  C   UNL     1       4.006  -3.587  -0.701  0.00  0.00    +0.000 A 
ATOM     16  N   UNL     1       5.134  -4.171  -0.209  0.00  0.00    +0.000 NA
ATOM     17  C   UNL     1       5.999  -3.342   0.273  0.00  0.00    +0.000 A 
ATOM     18  N   UNL     1       5.840  -1.981   0.314  0.00  0.00    +0.000 N 
ATOM     19  C   UNL     1       4.730  -1.345  -0.188  0.00  0.00    +0.000 A 
ATOM     20  O   UNL     1       4.647  -0.121  -0.178  0.00  0.00    +0.000 OA
ATOM     21  C   UNL     1       3.724  -2.231  -0.735  0.00  0.00    +0.000 A 
ATOM     22  H   UNL     1       6.560  -1.384   0.691  0.00  0.00    +0.000 HD
ENDBRANCH   9  12
ENDBRANCH   7  10
ENDBRANCH   1   7
BRANCH   4  23
ATOM     23  C   UNL     1       2.475   4.165  -5.958  0.00  0.00    +0.000 C 
BRANCH  23  24
ATOM     24  N   UNL     1       2.647   3.592  -7.274  0.00  0.00    +0.000 N 
ATOM     25  C   UNL     1       1.599   3.002  -7.950  0.00  0.00    +0.000 C 
ATOM     26  O   UNL     1       0.445   3.022  -7.533  0.00  0.00    +0.000 OA
ATOM     27  H   UNL     1       3.557   3.648  -7.722  0.00  0.00    +0.000 HD
BRANCH  25  28
ATOM     28  C   UNL     1       2.004   2.331  -9.256  0.00  0.00    +0.000 C 
ATOM     29  C   UNL     1       0.811   1.693  -9.979  0.00  0.00    +0.000 C 
ATOM     30  C   UNL     1       0.397   0.366  -9.341  0.00  0.00    +0.000 C 
ATOM     31  CA  UNL     1       1.585  -0.589  -9.224  0.00  0.00    +0.000 C 
ATOM     32  N   UNL     1       2.736   0.072  -8.621  0.00  0.00    +0.000 N 
ATOM     33  C   UNL     1       3.115   1.333  -8.993  0.00  0.00    +0.000 C 
ATOM     34  O   UNL     1       4.301   1.655  -8.978  0.00  0.00    +0.000 OA
ATOM     35  H   UNL     1       3.503  -0.527  -8.341  0.00  0.00    +0.000 HD
BRANCH  31  36
ATOM     36  C   UNL     1       1.988  -1.182 -10.587  0.00  0.00    +0.000 C 
BRANCH  36  37
ATOM     37  O   UNL     1       3.087  -2.079 -10.420  0.00  0.00    +0.000 OA
ATOM     38  H   UNL     1       3.871  -1.532 -10.233  0.00  0.00    +0.000 HD
ENDBRANCH  36  37
ENDBRANCH  31  36
ENDBRANCH  25  28
ENDBRANCH  23  24
ENDBRANCH   4  23
TORSDOF 8
