REMARK  Name = 
REMARK  5 active torsions:
REMARK  status: ('A' for Active; 'I' for Inactive)
REMARK    1  A    between atoms: C_2  and  C_4
REMARK    2  A    between atoms: C_7  and  N_8
REMARK    3  A    between atoms: N_8  and  C_9
REMARK    4  A    between atoms: C_9  and  C_10
REMARK    5  A    between atoms: C_14  and  C_15
REMARK                            x       y       z     vdW  Elec       q    Type
REMARK                         _______ _______ _______ _____ _____    ______ ____
ROOT
ATOM      1  C   UNL     1       5.276   4.966  -2.944  0.00  0.00    +0.000 C 
ENDROOT
BRANCH   1   2
ATOM      2  C   UNL     1       6.298   5.802  -3.692  0.00  0.00    +0.000 A 
ATOM      3  C   UNL     1       6.135   7.187  -3.818  0.00  0.00    +0.000 A 
ATOM      4  C   UNL     1       7.104   7.957  -4.457  0.00  0.00    +0.000 A 
ATOM      5  C   UNL     1       8.265   7.356  -4.949  0.00  0.00    +0.000 A 
ATOM      6  C   UNL     1       8.496   5.976  -4.800  0.00  0.00    +0.000 A 
ATOM      7  C   UNL     1       7.475   5.215  -4.193  0.00  0.00    +0.000 A 
BRANCH   6   8
ATOM      8  C   UNL     1       9.800   5.363  -5.162  0.00  0.00    +0.000 A 
ATOM      9  C   UNL     1      11.006   6.076  -4.994  0.00  0.00    +0.000 A 
ATOM     10  C   UNL     1      12.254   5.481  -5.212  0.00  0.00    +0.000 A 
ATOM     11  C   UNL     1      12.326   4.150  -5.603  0.00  0.00    +0.000 A 
ATOM     12  C   UNL     1      11.150   3.440  -5.799  0.00  0.00    +0.000 A 
ATOM     13  F   UNL     1      11.214   2.153  -6.167  0.00  0.00    +0.000 F 
ATOM     14  C   UNL     1       9.903   4.031  -5.597  0.00  0.00    +0.000 A 
ENDBRANCH   6   8
ENDBRANCH   1   2
BRANCH   1  15
ATOM     15  N   UNL     1       3.955   5.168  -3.526  0.00  0.00    +0.000 N 
ATOM     16  H   UNL     1       3.958   4.964  -4.522  0.00  0.00    +0.000 HD
BRANCH  15  20
ATOM     17  C   UNL     1       0.766   3.245  -1.772  0.00  0.00    +0.000 A 
ATOM     18  C   UNL     1       2.046   3.089  -1.264  0.00  0.00    +0.000 A 
ATOM     19  N   UNL     1       3.133   3.699  -1.815  0.00  0.00    +0.000 NA
ATOM     20  C   UNL     1       2.909   4.473  -2.899  0.00  0.00    +0.000 A 
ATOM     21  C   UNL     1       1.601   4.627  -3.383  0.00  0.00    +0.000 A 
ATOM     22  N   UNL     1       0.504   4.023  -2.855  0.00  0.00    +0.000 NA
BRANCH  17  24
ATOM     23  N   UNL     1      -1.599   2.727  -1.729  0.00  0.00    +0.000 N 
ATOM     24  C   UNL     1      -0.385   2.541  -1.133  0.00  0.00    +0.000 C 
ATOM     25  O   UNL     1      -0.249   1.840  -0.139  0.00  0.00    +0.000 OA
ATOM     26  H   UNL     1      -2.418   2.270  -1.346  0.00  0.00    +0.000 HD
ATOM     27  H   UNL     1      -1.680   3.303  -2.560  0.00  0.00    +0.000 HD
ENDBRANCH  17  24
ENDBRANCH  15  20
ENDBRANCH   1  15
TORSDOF 5
