REMARK  Name = 
REMARK  7 active torsions:
REMARK  status: ('A' for Active; 'I' for Inactive)
REMARK    1  A    between atoms: N_1  and  C_2
REMARK    2  A    between atoms: C_2  and  C_3
REMARK    3  A    between atoms: C_7  and  C_8
REMARK    4  A    between atoms: C_8  and  C_9
REMARK    5  A    between atoms: C_9  and  N_10
REMARK    6  A    between atoms: N_10  and  C_11
REMARK    7  A    between atoms: C_15  and  C_16
REMARK                            x       y       z     vdW  Elec       q    Type
REMARK                         _______ _______ _______ _____ _____    ______ ____
ROOT
ATOM      1  N   UNL     1       1.583  -7.364   0.282  0.00  0.00    +0.000 N 
ATOM      2  H   UNL     1       0.776  -7.182   0.875  0.00  0.00    +0.000 HD
ENDROOT
BRANCH   1   3
ATOM      3  C   UNL     1       2.105  -8.644   0.506  0.00  0.00    +0.000 A 
ATOM      4  C   UNL     1       3.470  -8.952   0.470  0.00  0.00    +0.000 A 
ATOM      5  C   UNL     1       3.921 -10.264   0.634  0.00  0.00    +0.000 A 
ATOM      6  C   UNL     1       3.005 -11.298   0.810  0.00  0.00    +0.000 A 
ATOM      7  C   UNL     1       1.632 -11.027   0.823  0.00  0.00    +0.000 A 
ATOM      8  C   UNL     1       1.196  -9.704   0.659  0.00  0.00    +0.000 A 
BRANCH   7   9
ATOM      9  C   UNL     1       0.700 -12.176   1.009  0.00  0.00    +0.000 C 
ATOM     10  N   UNL     1      -0.645 -11.933   1.048  0.00  0.00    +0.000 N 
ATOM     11  O   UNL     1       1.113 -13.323   1.135  0.00  0.00    +0.000 OA
ATOM     12  H   UNL     1      -1.081 -11.032   0.946  0.00  0.00    +0.000 HD
ATOM     13  H   UNL     1      -1.246 -12.735   1.183  0.00  0.00    +0.000 HD
ENDBRANCH   7   9
ENDBRANCH   1   3
BRANCH   1  14
ATOM     14  C   UNL     1       2.491  -6.224   0.167  0.00  0.00    +0.000 C 
BRANCH  14  15
ATOM     15  C   UNL     1       1.702  -4.919   0.010  0.00  0.00    +0.000 C 
BRANCH  15  20
ATOM     16  C   UNL     1       4.118  -2.101   0.918  0.00  0.00    +0.000 A 
ATOM     17  C   UNL     1       4.536  -1.694  -0.355  0.00  0.00    +0.000 A 
ATOM     18  C   UNL     1       4.014  -2.299  -1.500  0.00  0.00    +0.000 A 
ATOM     19  C   UNL     1       3.076  -3.324  -1.386  0.00  0.00    +0.000 A 
ATOM     20  C   UNL     1       2.643  -3.746  -0.124  0.00  0.00    +0.000 A 
ATOM     21  C   UNL     1       3.160  -3.121   1.021  0.00  0.00    +0.000 A 
BRANCH  16  22
ATOM     22  C   UNL     1       4.681  -1.450   2.156  0.00  0.00    +0.000 C 
BRANCH  22  23
ATOM     23  N   UNL     1       5.323  -2.424   3.033  0.00  0.00    +0.000 NA
ATOM     24  H   UNL     1       5.754  -1.934   3.814  0.00  0.00    +0.000 HD
ATOM     25  H   UNL     1       6.082  -2.872   2.522  0.00  0.00    +0.000 HD
ENDBRANCH  22  23
ENDBRANCH  16  22
ENDBRANCH  15  20
ENDBRANCH  14  15
ENDBRANCH   1  14
TORSDOF 7
