REMARK  Name = 
REMARK  6 active torsions:
REMARK  status: ('A' for Active; 'I' for Inactive)
REMARK    1  A    between atoms: C_2  and  C_3
REMARK    2  A    between atoms: C_7  and  O_8
REMARK    3  A    between atoms: O_8  and  C_9
REMARK    4  A    between atoms: C_12  and  C_13
REMARK    5  A    between atoms: C_13  and  N_14
REMARK    6  A    between atoms: C_15  and  C_17
REMARK                            x       y       z     vdW  Elec       q    Type
REMARK                         _______ _______ _______ _____ _____    ______ ____
ROOT
ATOM      1  C   UNL     1       7.964   2.412   0.242  0.00  0.00    +0.000 C 
ENDROOT
BRANCH   1   5
ATOM      2  C   UNL     1       3.729   2.454   0.144  0.00  0.00    +0.000 A 
ATOM      3  C   UNL     1       4.385   1.887  -0.937  0.00  0.00    +0.000 A 
ATOM      4  C   UNL     1       5.778   1.879  -0.935  0.00  0.00    +0.000 A 
ATOM      5  C   UNL     1       6.468   2.434   0.147  0.00  0.00    +0.000 A 
ATOM      6  C   UNL     1       5.715   3.047   1.141  0.00  0.00    +0.000 A 
ATOM      7  N   UNL     1       4.369   3.076   1.162  0.00  0.00    +0.000 NA
BRANCH   2   8
ATOM      8  O   UNL     1       2.342   2.372   0.159  0.00  0.00    +0.000 OA
BRANCH   8  13
ATOM      9  C   UNL     1      -0.236   2.958   2.678  0.00  0.00    +0.000 A 
ATOM     10  C   UNL     1       0.292   2.300   3.795  0.00  0.00    +0.000 A 
ATOM     11  C   UNL     1       1.518   1.642   3.702  0.00  0.00    +0.000 A 
ATOM     12  C   UNL     1       2.217   1.643   2.496  0.00  0.00    +0.000 A 
ATOM     13  C   UNL     1       1.714   2.332   1.386  0.00  0.00    +0.000 A 
ATOM     14  C   UNL     1       0.473   2.967   1.471  0.00  0.00    +0.000 A 
BRANCH   9  16
ATOM     15  N   UNL     1      -2.526   4.164   2.853  0.00  0.00    +0.000 NA
ATOM     16  C   UNL     1      -1.500   3.625   2.773  0.00  0.00    +0.000 C 
ENDBRANCH   9  16
ENDBRANCH   8  13
ENDBRANCH   2   8
ENDBRANCH   1   5
BRANCH   1  17
ATOM     17  N   UNL     1       8.541   3.593  -0.339  0.00  0.00    +0.000 N 
ATOM     18  C   UNL     1       9.901   3.765  -0.389  0.00  0.00    +0.000 C 
ATOM     19  O   UNL     1      10.679   2.907   0.019  0.00  0.00    +0.000 OA
ATOM     20  H   UNL     1       7.938   4.402  -0.454  0.00  0.00    +0.000 HD
BRANCH  18  21
ATOM     21  C   UNL     1      10.375   4.999  -1.023  0.00  0.00    +0.000 A 
ATOM     22  C   UNL     1      11.649   5.044  -1.573  0.00  0.00    +0.000 A 
ATOM     23  S   UNL     1      12.006   6.523  -2.343  0.00  0.00    +0.000 S 
ATOM     24  C   UNL     1      10.494   7.175  -1.916  0.00  0.00    +0.000 A 
ATOM     25  N   UNL     1      10.155   8.446  -2.261  0.00  0.00    +0.000 NA
ATOM     26  C   UNL     1       8.995   8.825  -1.837  0.00  0.00    +0.000 A 
ATOM     27  N   UNL     1       8.141   8.044  -1.101  0.00  0.00    +0.000 N 
ATOM     28  C   UNL     1       8.424   6.744  -0.760  0.00  0.00    +0.000 A 
ATOM     29  O   UNL     1       7.619   6.052  -0.145  0.00  0.00    +0.000 OA
ATOM     30  C   UNL     1       9.723   6.274  -1.204  0.00  0.00    +0.000 A 
ATOM     31  H   UNL     1       7.243   8.400  -0.804  0.00  0.00    +0.000 HD
ENDBRANCH  18  21
ENDBRANCH   1  17
TORSDOF 6
