REMARK  Name = 
REMARK  10 active torsions:
REMARK  status: ('A' for Active; 'I' for Inactive)
REMARK    1  A    between atoms: N_1  and  C_2
REMARK    2  A    between atoms: C_2  and  C_3
REMARK    3  A    between atoms: C_3  and  N_4
REMARK    4  A    between atoms: C_3  and  C_20
REMARK    5  A    between atoms: N_4  and  C_5
REMARK    6  A    between atoms: C_5  and  C_6
REMARK    7  A    between atoms: C_9  and  C_10
REMARK    8  A    between atoms: C_10  and  O_11
REMARK    9  A    between atoms: O_11  and  C_12
REMARK   10  A    between atoms: C_12  and  C_13
REMARK                            x       y       z     vdW  Elec       q    Type
REMARK                         _______ _______ _______ _____ _____    ______ ____
ROOT
ATOM      1  N   UNL     1       2.453  -1.107  -2.113  0.00  0.00    +0.000 NA
ATOM      2  H   UNL     1       2.835  -1.898  -2.628  0.00  0.00    +0.000 HD
ENDROOT
BRANCH   1   3
ATOM      3  C   UNL     1       2.917  -1.218  -0.714  0.00  0.00    +0.000 C 
BRANCH   3   4
ATOM      4  C   UNL     1       4.435  -1.357  -0.738  0.00  0.00    +0.000 A 
ATOM      5  C   UNL     1       5.282  -0.746  -1.654  0.00  0.00    +0.000 A 
ATOM      6  S   UNL     1       6.932  -1.085  -1.379  0.00  0.00    +0.000 S 
ATOM      7  C   UNL     1       6.572  -2.022  -0.004  0.00  0.00    +0.000 A 
ATOM      8  N   UNL     1       7.554  -2.597   0.739  0.00  0.00    +0.000 NA
ATOM      9  C   UNL     1       7.126  -3.257   1.763  0.00  0.00    +0.000 A 
ATOM     10  N   UNL     1       5.806  -3.404   2.110  0.00  0.00    +0.000 N 
ATOM     11  C   UNL     1       4.775  -2.846   1.388  0.00  0.00    +0.000 A 
ATOM     12  O   UNL     1       3.605  -2.989   1.720  0.00  0.00    +0.000 OA
ATOM     13  C   UNL     1       5.211  -2.090   0.227  0.00  0.00    +0.000 A 
ATOM     14  H   UNL     1       5.541  -3.929   2.928  0.00  0.00    +0.000 HD
ENDBRANCH   3   4
BRANCH   3  15
ATOM     15  C   UNL     1       2.488  -0.030   0.208  0.00  0.00    +0.000 C 
BRANCH  15  16
ATOM     16  N   UNL     1       2.906   1.292  -0.279  0.00  0.00    +0.000 NA
ATOM     17  H   UNL     1       2.455   2.021   0.269  0.00  0.00    +0.000 HD
ATOM     18  H   UNL     1       2.586   1.391  -1.244  0.00  0.00    +0.000 HD
ENDBRANCH  15  16
ENDBRANCH   3  15
ENDBRANCH   1   3
BRANCH   1  19
ATOM     19  C   UNL     1       0.990  -1.143  -2.223  0.00  0.00    +0.000 C 
BRANCH  19  20
ATOM     20  C   UNL     1       0.503  -1.075  -3.658  0.00  0.00    +0.000 A 
ATOM     21  C   UNL     1       0.806  -2.090  -4.566  0.00  0.00    +0.000 A 
ATOM     22  C   UNL     1       0.329  -1.990  -5.870  0.00  0.00    +0.000 A 
ATOM     23  C   UNL     1      -0.447  -0.890  -6.243  0.00  0.00    +0.000 A 
ATOM     24  C   UNL     1      -0.706   0.064  -5.270  0.00  0.00    +0.000 A 
ATOM     25  N   UNL     1      -0.253  -0.002  -3.998  0.00  0.00    +0.000 NA
BRANCH  23  26
ATOM     26  C   UNL     1      -0.979  -0.739  -7.636  0.00  0.00    +0.000 C 
BRANCH  26  27
ATOM     27  O   UNL     1      -1.818  -1.853  -7.914  0.00  0.00    +0.000 OA
BRANCH  27  28
ATOM     28  C   UNL     1      -2.391  -1.763  -9.221  0.00  0.00    +0.000 C 
BRANCH  28  29
ATOM     29  C   UNL     1      -3.282  -2.925  -9.504  0.00  0.00    +0.000 A 
ATOM     30  C   UNL     1      -4.028  -3.683  -8.623  0.00  0.00    +0.000 A 
ATOM     31  N   UNL     1      -4.656  -4.619  -9.391  0.00  0.00    +0.000 N 
ATOM     32  C   UNL     1      -4.291  -4.400 -10.688  0.00  0.00    +0.000 A 
ATOM     33  N   UNL     1      -3.470  -3.380 -10.792  0.00  0.00    +0.000 NA
ATOM     34  H   UNL     1      -5.276  -5.347  -9.065  0.00  0.00    +0.000 HD
ENDBRANCH  28  29
ENDBRANCH  27  28
ENDBRANCH  26  27
ENDBRANCH  23  26
ENDBRANCH  19  20
ENDBRANCH   1  19
TORSDOF 10
