REMARK  Name = 
REMARK  7 active torsions:
REMARK  status: ('A' for Active; 'I' for Inactive)
REMARK    1  A    between atoms: C_2  and  C_19
REMARK    2  A    between atoms: N_3  and  C_4
REMARK    3  A    between atoms: C_4  and  C_5
REMARK    4  A    between atoms: C_8  and  C_9
REMARK    5  A    between atoms: C_9  and  N_10
REMARK    6  A    between atoms: N_10  and  C_11
REMARK    7  A    between atoms: C_11  and  C_12
REMARK                            x       y       z     vdW  Elec       q    Type
REMARK                         _______ _______ _______ _____ _____    ______ ____
ROOT
ATOM      1  C   UNL     1      14.317  -0.170  11.087  0.00  0.00    +0.000 C 
ENDROOT
BRANCH   1   2
ATOM      2  C   UNL     1      13.150   0.769  11.059  0.00  0.00    +0.000 A 
ATOM      3  C   UNL     1      12.400   0.945   9.895  0.00  0.00    +0.000 A 
ATOM      4  C   UNL     1      11.299   1.793   9.903  0.00  0.00    +0.000 A 
ATOM      5  C   UNL     1      10.967   2.452  11.084  0.00  0.00    +0.000 A 
ATOM      6  N   UNL     1      11.698   2.324  12.222  0.00  0.00    +0.000 NA
ATOM      7  C   UNL     1      12.767   1.495  12.180  0.00  0.00    +0.000 A 
BRANCH   5   8
ATOM      8  C   UNL     1       9.766   3.378  11.126  0.00  0.00    +0.000 C 
BRANCH   8   9
ATOM      9  N   UNL     1      10.079   4.767  11.493  0.00  0.00    +0.000 NA
ATOM     10  H   UNL     1      10.550   4.735  12.401  0.00  0.00    +0.000 HD
BRANCH   9  11
ATOM     11  C   UNL     1      10.999   5.384  10.527  0.00  0.00    +0.000 C 
BRANCH  11  12
ATOM     12  C   UNL     1      11.316   6.841  10.943  0.00  0.00    +0.000 C 
ATOM     13  C   UNL     1      12.256   7.526   9.967  0.00  0.00    +0.000 C 
ATOM     14  C   UNL     1      11.328   7.970   8.854  0.00  0.00    +0.000 C 
ATOM     15  C   UNL     1       9.998   8.231   9.551  0.00  0.00    +0.000 C 
ATOM     16  N   UNL     1      10.126   7.709  10.915  0.00  0.00    +0.000 NA
ATOM     17  H   UNL     1       9.310   7.143  11.165  0.00  0.00    +0.000 HD
ENDBRANCH  11  12
ENDBRANCH   9  11
ENDBRANCH   8   9
ENDBRANCH   5   8
ENDBRANCH   1   2
BRANCH   1  20
ATOM     18  O   UNL     1      15.332  -0.023   8.486  0.00  0.00    +0.000 OA
ATOM     19  C   UNL     1      15.949   0.526   9.397  0.00  0.00    +0.000 C 
ATOM     20  N   UNL     1      15.544   0.468  10.706  0.00  0.00    +0.000 N 
ATOM     21  H   UNL     1      15.942   1.119  11.377  0.00  0.00    +0.000 HD
BRANCH  19  22
ATOM     22  C   UNL     1      17.189   1.251   9.140  0.00  0.00    +0.000 A 
ATOM     23  C   UNL     1      18.021   0.901   8.084  0.00  0.00    +0.000 A 
ATOM     24  S   UNL     1      19.393   1.909   7.952  0.00  0.00    +0.000 S 
ATOM     25  C   UNL     1      18.903   2.847   9.284  0.00  0.00    +0.000 A 
ATOM     26  N   UNL     1      19.629   3.920   9.703  0.00  0.00    +0.000 NA
ATOM     27  C   UNL     1      19.109   4.550  10.709  0.00  0.00    +0.000 A 
ATOM     28  N   UNL     1      17.941   4.206  11.340  0.00  0.00    +0.000 N 
ATOM     29  C   UNL     1      17.215   3.097  10.998  0.00  0.00    +0.000 A 
ATOM     30  O   UNL     1      16.258   2.742  11.674  0.00  0.00    +0.000 OA
ATOM     31  C   UNL     1      17.726   2.384   9.840  0.00  0.00    +0.000 A 
ATOM     32  H   UNL     1      17.613   4.714  12.148  0.00  0.00    +0.000 HD
ENDBRANCH  19  22
ENDBRANCH   1  20
TORSDOF 7
