REMARK  Name = 
REMARK  5 active torsions:
REMARK  status: ('A' for Active; 'I' for Inactive)
REMARK    1  A    between atoms: C_2  and  C_4
REMARK    2  A    between atoms: C_7  and  N_8
REMARK    3  A    between atoms: N_8  and  C_9
REMARK    4  A    between atoms: C_9  and  C_10
REMARK    5  A    between atoms: C_14  and  C_15
REMARK                            x       y       z     vdW  Elec       q    Type
REMARK                         _______ _______ _______ _____ _____    ______ ____
ROOT
ATOM      1  C   UNL     1       5.142  -2.647   5.362  0.00  0.00    +0.000 C 
ENDROOT
BRANCH   1   2
ATOM      2  C   UNL     1       6.116  -2.727   6.504  0.00  0.00    +0.000 A 
ATOM      3  C   UNL     1       5.710  -2.509   7.812  0.00  0.00    +0.000 A 
ATOM      4  N   UNL     1       6.525  -2.629   8.879  0.00  0.00    +0.000 NA
ATOM      5  C   UNL     1       7.811  -2.982   8.628  0.00  0.00    +0.000 A 
ATOM      6  C   UNL     1       8.354  -3.221   7.363  0.00  0.00    +0.000 A 
ATOM      7  C   UNL     1       7.456  -3.093   6.294  0.00  0.00    +0.000 A 
BRANCH   6   8
ATOM      8  C   UNL     1       9.779  -3.555   7.158  0.00  0.00    +0.000 A 
ATOM      9  C   UNL     1      10.197  -4.431   6.135  0.00  0.00    +0.000 A 
ATOM     10  C   UNL     1      11.553  -4.703   5.909  0.00  0.00    +0.000 A 
ATOM     11  C   UNL     1      12.523  -4.111   6.710  0.00  0.00    +0.000 A 
ATOM     12  C   UNL     1      12.128  -3.262   7.732  0.00  0.00    +0.000 A 
ATOM     13  F   UNL     1      13.057  -2.690   8.510  0.00  0.00    +0.000 F 
ATOM     14  C   UNL     1      10.782  -2.982   7.959  0.00  0.00    +0.000 A 
ENDBRANCH   6   8
ENDBRANCH   1   2
BRANCH   1  15
ATOM     15  N   UNL     1       5.657  -1.759   4.334  0.00  0.00    +0.000 N 
ATOM     16  H   UNL     1       5.873  -0.819   4.657  0.00  0.00    +0.000 HD
BRANCH  15  20
ATOM     17  C   UNL     1       4.771  -2.081   0.229  0.00  0.00    +0.000 A 
ATOM     18  C   UNL     1       4.176  -2.966   1.132  0.00  0.00    +0.000 A 
ATOM     19  C   UNL     1       4.422  -2.839   2.503  0.00  0.00    +0.000 A 
ATOM     20  C   UNL     1       5.253  -1.831   3.007  0.00  0.00    +0.000 A 
ATOM     21  C   UNL     1       5.840  -0.952   2.085  0.00  0.00    +0.000 A 
ATOM     22  C   UNL     1       5.606  -1.074   0.709  0.00  0.00    +0.000 A 
BRANCH  17  24
ATOM     23  N   UNL     1       3.426  -2.813  -1.664  0.00  0.00    +0.000 N 
ATOM     24  C   UNL     1       4.584  -2.225  -1.237  0.00  0.00    +0.000 C 
ATOM     25  O   UNL     1       5.417  -1.816  -2.035  0.00  0.00    +0.000 OA
ATOM     26  H   UNL     1       3.272  -2.826  -2.664  0.00  0.00    +0.000 HD
ATOM     27  H   UNL     1       2.627  -2.942  -1.062  0.00  0.00    +0.000 HD
ENDBRANCH  17  24
ENDBRANCH  15  20
ENDBRANCH   1  15
TORSDOF 5
