REMARK  Name = 
REMARK  10 active torsions:
REMARK  status: ('A' for Active; 'I' for Inactive)
REMARK    1  A    between atoms: C_1  and  O_2
REMARK    2  A    between atoms: O_2  and  C_3
REMARK    3  A    between atoms: C_10  and  C_11
REMARK    4  A    between atoms: N_13  and  C_14
REMARK    5  A    between atoms: C_14  and  C_15
REMARK    6  A    between atoms: C_18  and  N_19
REMARK    7  A    between atoms: N_19  and  C_20
REMARK    8  A    between atoms: C_20  and  C_21
REMARK    9  A    between atoms: C_20  and  C_22
REMARK   10  A    between atoms: C_22  and  C_23
REMARK                            x       y       z     vdW  Elec       q    Type
REMARK                         _______ _______ _______ _____ _____    ______ ____
ROOT
ATOM      1  C   UNL     1       5.902  -5.549   0.980  0.00  0.00    +0.000 A 
ATOM      2  C   UNL     1       7.237  -5.439   0.579  0.00  0.00    +0.000 A 
ATOM      3  C   UNL     1       8.031  -6.584   0.439  0.00  0.00    +0.000 A 
ATOM      4  C   UNL     1       7.530  -7.860   0.722  0.00  0.00    +0.000 A 
ATOM      5  C   UNL     1       6.203  -7.956   1.146  0.00  0.00    +0.000 A 
ATOM      6  C   UNL     1       5.395  -6.820   1.265  0.00  0.00    +0.000 A 
ENDROOT
BRANCH   4   7
ATOM      7  N   UNL     1       8.349  -8.964   0.453  0.00  0.00    +0.000 N 
ATOM      8  H   UNL     1       8.444  -9.093  -0.553  0.00  0.00    +0.000 HD
BRANCH   7   9
ATOM      9  C   UNL     1       8.147 -10.228   1.182  0.00  0.00    +0.000 C 
ATOM     10  C   UNL     1       7.176 -11.136   0.415  0.00  0.00    +0.000 C 
BRANCH   9  11
ATOM     11  C   UNL     1       9.489 -10.975   1.327  0.00  0.00    +0.000 C 
BRANCH  11  12
ATOM     12  C   UNL     1      10.542 -10.234   2.112  0.00  0.00    +0.000 A 
ATOM     13  C   UNL     1      11.423  -9.369   1.462  0.00  0.00    +0.000 A 
ATOM     14  C   UNL     1      12.434  -8.758   2.195  0.00  0.00    +0.000 A 
ATOM     15  C   UNL     1      12.536  -9.016   3.555  0.00  0.00    +0.000 A 
ATOM     16  C   UNL     1      11.612  -9.874   4.128  0.00  0.00    +0.000 A 
ATOM     17  N   UNL     1      10.625 -10.492   3.441  0.00  0.00    +0.000 NA
ENDBRANCH  11  12
ENDBRANCH   9  11
ENDBRANCH   7   9
ENDBRANCH   4   7
BRANCH   1  18
ATOM     18  C   UNL     1       4.998  -4.347   1.027  0.00  0.00    +0.000 C 
BRANCH  18  21
ATOM     19  C   UNL     1       3.539  -3.066  -0.471  0.00  0.00    +0.000 C 
ATOM     20  O   UNL     1       3.284  -2.250   0.410  0.00  0.00    +0.000 OA
ATOM     21  N   UNL     1       4.433  -4.087  -0.274  0.00  0.00    +0.000 N 
ATOM     22  H   UNL     1       4.511  -4.812  -0.977  0.00  0.00    +0.000 HD
BRANCH  19  30
ATOM     23  C   UNL     1       2.833  -5.391  -2.830  0.00  0.00    +0.000 A 
ATOM     24  N   UNL     1       2.501  -6.132  -3.916  0.00  0.00    +0.000 NA
ATOM     25  C   UNL     1       2.002  -5.533  -5.003  0.00  0.00    +0.000 A 
ATOM     26  C   UNL     1       1.788  -4.178  -5.102  0.00  0.00    +0.000 A 
ATOM     27  C   UNL     1       2.131  -3.412  -3.980  0.00  0.00    +0.000 A 
ATOM     28  S   UNL     1       1.938  -1.711  -3.839  0.00  0.00    +0.000 S 
ATOM     29  C   UNL     1       2.553  -1.706  -2.261  0.00  0.00    +0.000 A 
ATOM     30  C   UNL     1       2.954  -2.955  -1.815  0.00  0.00    +0.000 A 
ATOM     31  C   UNL     1       2.677  -3.983  -2.820  0.00  0.00    +0.000 A 
BRANCH  23  33
ATOM     32  C   UNL     1       3.362  -7.463  -1.872  0.00  0.00    +0.000 C 
ATOM     33  O   UNL     1       3.347  -6.044  -1.726  0.00  0.00    +0.000 OA
ENDBRANCH  23  33
ENDBRANCH  19  30
ENDBRANCH  18  21
ENDBRANCH   1  18
TORSDOF 8
