REMARK  Name = 
REMARK  6 active torsions:
REMARK  status: ('A' for Active; 'I' for Inactive)
REMARK    1  A    between atoms: C_2  and  C_3
REMARK    2  A    between atoms: C_6  and  N_7
REMARK    3  A    between atoms: N_7  and  C_8
REMARK    4  A    between atoms: C_8  and  C_9
REMARK    5  A    between atoms: C_13  and  O_14
REMARK    6  A    between atoms: O_14  and  C_15
REMARK                            x       y       z     vdW  Elec       q    Type
REMARK                         _______ _______ _______ _____ _____    ______ ____
ROOT
ATOM      1  C   UNL     1       8.646  -0.865  -0.051  0.00  0.00    +0.000 C 
ATOM      2  C   UNL     1       8.978  -1.967  -1.047  0.00  0.00    +0.000 C 
ATOM      3  C   UNL     1       8.604  -2.321   0.354  0.00  0.00    +0.000 C 
ENDROOT
BRANCH   1   4
ATOM      4  C   UNL     1       9.756   0.028   0.486  0.00  0.00    +0.000 A 
ATOM      5  C   UNL     1       9.996   0.155   1.865  0.00  0.00    +0.000 A 
ATOM      6  C   UNL     1      10.834   1.153   2.362  0.00  0.00    +0.000 A 
ATOM      7  C   UNL     1      11.449   2.042   1.484  0.00  0.00    +0.000 A 
ATOM      8  C   UNL     1      11.282   1.904   0.107  0.00  0.00    +0.000 A 
ATOM      9  C   UNL     1      10.456   0.890  -0.383  0.00  0.00    +0.000 A 
BRANCH   8  10
ATOM     10  O   UNL     1      11.901   2.861  -0.646  0.00  0.00    +0.000 OA
BRANCH  10  11
ATOM     11  C   UNL     1      12.131   2.540  -2.007  0.00  0.00    +0.000 C 
ATOM     12  F   UNL     1      10.960   2.603  -2.691  0.00  0.00    +0.000 F 
ATOM     13  F   UNL     1      12.929   3.510  -2.520  0.00  0.00    +0.000 F 
ENDBRANCH  10  11
ENDBRANCH   8  10
ENDBRANCH   1   4
BRANCH   1  14
ATOM     14  N   UNL     1       7.460  -0.087  -0.453  0.00  0.00    +0.000 N 
ATOM     15  H   UNL     1       7.666   0.609  -1.169  0.00  0.00    +0.000 HD
BRANCH  14  19
ATOM     16  C   UNL     1       4.278   1.145   1.845  0.00  0.00    +0.000 A 
ATOM     17  N   UNL     1       5.158   0.327   2.452  0.00  0.00    +0.000 NA
ATOM     18  C   UNL     1       6.226  -0.047   1.705  0.00  0.00    +0.000 A 
ATOM     19  C   UNL     1       6.455   0.370   0.409  0.00  0.00    +0.000 A 
ATOM     20  C   UNL     1       5.466   1.210  -0.088  0.00  0.00    +0.000 A 
ATOM     21  N   UNL     1       4.379   1.623   0.593  0.00  0.00    +0.000 NA
BRANCH  16  23
ATOM     22  N   UNL     1       2.128   1.799   3.160  0.00  0.00    +0.000 NA
ATOM     23  C   UNL     1       3.092   1.510   2.577  0.00  0.00    +0.000 C 
ENDBRANCH  16  23
ENDBRANCH  14  19
ENDBRANCH   1  14
TORSDOF 6
