REMARK  Name = 
REMARK  6 active torsions:
REMARK  status: ('A' for Active; 'I' for Inactive)
REMARK    1  A    between atoms: C_2  and  C_25
REMARK    2  A    between atoms: N_3  and  C_4
REMARK    3  A    between atoms: C_4  and  C_5
REMARK    4  A    between atoms: C_8  and  C_9
REMARK    5  A    between atoms: C_9  and  N_10
REMARK    6  A    between atoms: C_11  and  C_13
REMARK                            x       y       z     vdW  Elec       q    Type
REMARK                         _______ _______ _______ _____ _____    ______ ____
ROOT
ATOM      1  C   UNL     1       3.204  -2.186   2.940  0.00  0.00    +0.000 A 
ATOM      2  C   UNL     1       4.108  -1.428   3.680  0.00  0.00    +0.000 A 
ATOM      3  C   UNL     1       4.968  -2.074   4.567  0.00  0.00    +0.000 A 
ATOM      4  C   UNL     1       4.895  -3.459   4.719  0.00  0.00    +0.000 A 
ATOM      5  C   UNL     1       3.967  -4.135   3.935  0.00  0.00    +0.000 A 
ATOM      6  N   UNL     1       3.121  -3.537   3.061  0.00  0.00    +0.000 NA
ENDROOT
BRANCH   1   7
ATOM      7  C   UNL     1       2.261  -1.512   1.970  0.00  0.00    +0.000 C 
BRANCH   7  10
ATOM      8  O   UNL     1       1.746   0.992   3.134  0.00  0.00    +0.000 OA
ATOM      9  C   UNL     1       0.858   0.147   3.136  0.00  0.00    +0.000 C 
ATOM     10  N   UNL     1       1.015  -1.107   2.590  0.00  0.00    +0.000 N 
ATOM     11  H   UNL     1       0.259  -1.777   2.587  0.00  0.00    +0.000 HD
BRANCH   9  12
ATOM     12  C   UNL     1      -0.479   0.471   3.702  0.00  0.00    +0.000 A 
ATOM     13  C   UNL     1      -0.899   1.808   3.661  0.00  0.00    +0.000 A 
ATOM     14  C   UNL     1      -2.147   2.173   4.169  0.00  0.00    +0.000 A 
ATOM     15  C   UNL     1      -2.977   1.206   4.732  0.00  0.00    +0.000 A 
ATOM     16  C   UNL     1      -2.559  -0.125   4.792  0.00  0.00    +0.000 A 
ATOM     17  C   UNL     1      -1.312  -0.495   4.280  0.00  0.00    +0.000 A 
ENDBRANCH   9  12
ENDBRANCH   7  10
ENDBRANCH   1   7
BRANCH   4  18
ATOM     18  C   UNL     1       5.799  -4.194   5.664  0.00  0.00    +0.000 C 
BRANCH  18  19
ATOM     19  N   UNL     1       7.024  -4.595   5.019  0.00  0.00    +0.000 N 
ATOM     20  C   UNL     1       7.924  -5.412   5.655  0.00  0.00    +0.000 C 
ATOM     21  O   UNL     1       7.699  -5.884   6.767  0.00  0.00    +0.000 OA
ATOM     22  H   UNL     1       7.335  -4.037   4.230  0.00  0.00    +0.000 HD
BRANCH  20  23
ATOM     23  C   UNL     1       9.148  -5.746   4.914  0.00  0.00    +0.000 A 
ATOM     24  C   UNL     1       9.859  -6.892   5.245  0.00  0.00    +0.000 A 
ATOM     25  S   UNL     1      11.222  -7.163   4.256  0.00  0.00    +0.000 S 
ATOM     26  C   UNL     1      10.940  -5.729   3.383  0.00  0.00    +0.000 A 
ATOM     27  N   UNL     1      11.777  -5.345   2.382  0.00  0.00    +0.000 NA
ATOM     28  C   UNL     1      11.463  -4.224   1.825  0.00  0.00    +0.000 A 
ATOM     29  N   UNL     1      10.385  -3.453   2.176  0.00  0.00    +0.000 N 
ATOM     30  C   UNL     1       9.496  -3.816   3.162  0.00  0.00    +0.000 A 
ATOM     31  O   UNL     1       8.517  -3.123   3.424  0.00  0.00    +0.000 OA
ATOM     32  C   UNL     1       9.812  -5.064   3.828  0.00  0.00    +0.000 A 
ATOM     33  H   UNL     1      10.189  -2.588   1.694  0.00  0.00    +0.000 HD
ENDBRANCH  20  23
ENDBRANCH  18  19
ENDBRANCH   4  18
TORSDOF 6
