REMARK  Name = 
REMARK  8 active torsions:
REMARK  status: ('A' for Active; 'I' for Inactive)
REMARK    1  A    between atoms: C_1  and  C_2
REMARK    2  A    between atoms: C_2  and  N_3
REMARK    3  A    between atoms: C_2  and  C_26
REMARK    4  A    between atoms: N_3  and  C_4
REMARK    5  A    between atoms: C_4  and  C_5
REMARK    6  A    between atoms: C_10  and  C_11
REMARK    7  A    between atoms: C_11  and  N_12
REMARK    8  A    between atoms: C_13  and  C_15
REMARK                            x       y       z     vdW  Elec       q    Type
REMARK                         _______ _______ _______ _____ _____    ______ ____
ROOT
ATOM      1  C   UNL     1      -1.008  -0.082  -1.322  0.00  0.00    +0.000 A 
ATOM      2  C   UNL     1      -1.734  -1.057  -0.627  0.00  0.00    +0.000 A 
ATOM      3  C   UNL     1      -3.123  -1.065  -0.691  0.00  0.00    +0.000 A 
ATOM      4  F   UNL     1      -3.807  -2.012  -0.034  0.00  0.00    +0.000 F 
ATOM      5  C   UNL     1      -3.818  -0.126  -1.447  0.00  0.00    +0.000 A 
ATOM      6  C   UNL     1      -3.113   0.852  -2.158  0.00  0.00    +0.000 A 
ATOM      7  C   UNL     1      -1.713   0.883  -2.064  0.00  0.00    +0.000 A 
ENDROOT
BRANCH   1   8
ATOM      8  C   UNL     1       0.504  -0.093  -1.340  0.00  0.00    +0.000 C 
BRANCH   8   9
ATOM      9  N   UNL     1       1.047   1.142  -0.790  0.00  0.00    +0.000 NA
ATOM     10  H   UNL     1       0.692   1.264   0.158  0.00  0.00    +0.000 HD
BRANCH   9  12
ATOM     11  C   UNL     1       3.181   1.035  -2.123  0.00  0.00    +0.000 C 
ATOM     12  C   UNL     1       2.514   1.192  -0.750  0.00  0.00    +0.000 C 
BRANCH  12  13
ATOM     13  C   UNL     1       2.948   2.512  -0.126  0.00  0.00    +0.000 A 
ATOM     14  C   UNL     1       2.519   3.740  -0.665  0.00  0.00    +0.000 A 
ATOM     15  C   UNL     1       2.922   4.952  -0.097  0.00  0.00    +0.000 A 
ATOM     16  C   UNL     1       3.760   4.952   1.016  0.00  0.00    +0.000 A 
ATOM     17  C   UNL     1       4.189   3.743   1.559  0.00  0.00    +0.000 A 
ATOM     18 CL   UNL     1       5.221   3.743   2.936  0.00  0.00    +0.000 Cl
ATOM     19  C   UNL     1       3.790   2.529   0.993  0.00  0.00    +0.000 A 
ENDBRANCH  12  13
ENDBRANCH   9  12
ENDBRANCH   8   9
ENDBRANCH   1   8
BRANCH   6  20
ATOM     20  C   UNL     1      -3.836   1.850  -3.019  0.00  0.00    +0.000 C 
BRANCH  20  21
ATOM     21  N   UNL     1      -4.249   3.007  -2.270  0.00  0.00    +0.000 N 
ATOM     22  C   UNL     1      -3.541   4.179  -2.282  0.00  0.00    +0.000 C 
ATOM     23  O   UNL     1      -2.497   4.311  -2.916  0.00  0.00    +0.000 OA
ATOM     24  H   UNL     1      -4.994   2.876  -1.593  0.00  0.00    +0.000 HD
BRANCH  22  25
ATOM     25  C   UNL     1      -4.138   5.309  -1.561  0.00  0.00    +0.000 A 
ATOM     26  C   UNL     1      -3.798   6.606  -1.923  0.00  0.00    +0.000 A 
ATOM     27  S   UNL     1      -4.585   7.805  -1.000  0.00  0.00    +0.000 S 
ATOM     28  C   UNL     1      -5.379   6.633  -0.058  0.00  0.00    +0.000 A 
ATOM     29  N   UNL     1      -6.199   6.997   0.965  0.00  0.00    +0.000 NA
ATOM     30  C   UNL     1      -6.711   6.009   1.617  0.00  0.00    +0.000 A 
ATOM     31  N   UNL     1      -6.492   4.686   1.330  0.00  0.00    +0.000 N 
ATOM     32  C   UNL     1      -5.726   4.270   0.265  0.00  0.00    +0.000 A 
ATOM     33  O   UNL     1      -5.650   3.086  -0.042  0.00  0.00    +0.000 OA
ATOM     34  C   UNL     1      -5.080   5.345  -0.466  0.00  0.00    +0.000 A 
ATOM     35  H   UNL     1      -6.949   3.960   1.859  0.00  0.00    +0.000 HD
ENDBRANCH  22  25
ENDBRANCH  20  21
ENDBRANCH   6  20
TORSDOF 7
