REMARK  Name = 
REMARK  6 active torsions:
REMARK  status: ('A' for Active; 'I' for Inactive)
REMARK    1  A    between atoms: C_1  and  C_2
REMARK    2  A    between atoms: N_4  and  C_5
REMARK    3  A    between atoms: C_5  and  C_6
REMARK    4  A    between atoms: C_9  and  C_10
REMARK    5  A    between atoms: C_10  and  C_11
REMARK    6  A    between atoms: C_11  and  N_12
REMARK                            x       y       z     vdW  Elec       q    Type
REMARK                         _______ _______ _______ _____ _____    ______ ____
ROOT
ATOM      1  C   UNL     1       5.637   1.542   0.115  0.00  0.00    +0.000 C 
ENDROOT
BRANCH   1   5
ATOM      2  C   UNL     1       1.802  -1.061  -1.815  0.00  0.00    +0.000 C 
ATOM      3  C   UNL     1       2.773  -0.491  -0.846  0.00  0.00    +0.000 A 
ATOM      4  C   UNL     1       3.896   0.252  -1.142  0.00  0.00    +0.000 A 
ATOM      5  N   UNL     1       4.486   0.645   0.035  0.00  0.00    +0.000 N 
ATOM      6  C   UNL     1       3.811   0.089   1.106  0.00  0.00    +0.000 A 
ATOM      7  C   UNL     1       4.045   0.156   2.490  0.00  0.00    +0.000 A 
ATOM      8  C   UNL     1       3.147  -0.487   3.347  0.00  0.00    +0.000 A 
ATOM      9  C   UNL     1       2.050  -1.178   2.845  0.00  0.00    +0.000 A 
ATOM     10  C   UNL     1       1.826  -1.247   1.467  0.00  0.00    +0.000 A 
ATOM     11  C   UNL     1       2.718  -0.608   0.579  0.00  0.00    +0.000 A 
ENDBRANCH   1   5
BRANCH   1  12
ATOM     12  C   UNL     1       5.188   2.983   0.171  0.00  0.00    +0.000 A 
ATOM     13  C   UNL     1       4.905   3.596   1.398  0.00  0.00    +0.000 A 
ATOM     14  C   UNL     1       4.311   4.859   1.443  0.00  0.00    +0.000 A 
ATOM     15  C   UNL     1       3.986   5.532   0.261  0.00  0.00    +0.000 A 
ATOM     16  C   UNL     1       4.351   4.964  -0.965  0.00  0.00    +0.000 A 
ATOM     17  C   UNL     1       4.943   3.698  -1.010  0.00  0.00    +0.000 A 
BRANCH  15  18
ATOM     18  C   UNL     1       3.182   6.809   0.310  0.00  0.00    +0.000 C 
BRANCH  18  19
ATOM     19  C   UNL     1       4.033   8.069   0.461  0.00  0.00    +0.000 C 
BRANCH  19  20
ATOM     20  N   UNL     1       3.179   9.255   0.541  0.00  0.00    +0.000 NA
ATOM     21  H   UNL     1       2.643   9.351  -0.321  0.00  0.00    +0.000 HD
ATOM     22  H   UNL     1       3.760  10.089   0.612  0.00  0.00    +0.000 HD
ENDBRANCH  19  20
ENDBRANCH  18  19
ENDBRANCH  15  18
ENDBRANCH   1  12
TORSDOF 5
