REMARK  Name = 
REMARK  5 active torsions:
REMARK  status: ('A' for Active; 'I' for Inactive)
REMARK    1  A    between atoms: C_2  and  C_4
REMARK    2  A    between atoms: C_7  and  O_8
REMARK    3  A    between atoms: O_8  and  C_9
REMARK    4  A    between atoms: C_9  and  C_10
REMARK    5  A    between atoms: C_15  and  C_16
REMARK                            x       y       z     vdW  Elec       q    Type
REMARK                         _______ _______ _______ _____ _____    ______ ____
ROOT
ATOM      1  C   UNL     1       6.077  -0.270   6.929  0.00  0.00    +0.000 A 
ATOM      2  C   UNL     1       6.648  -1.382   7.566  0.00  0.00    +0.000 A 
ATOM      3  C   UNL     1       7.492  -1.215   8.665  0.00  0.00    +0.000 A 
ATOM      4  C   UNL     1       7.770   0.065   9.149  0.00  0.00    +0.000 A 
ATOM      5 CL   UNL     1       8.808   0.196  10.527  0.00  0.00    +0.000 Cl
ATOM      6  C   UNL     1       7.206   1.192   8.532  0.00  0.00    +0.000 A 
ATOM      7  C   UNL     1       6.355   1.011   7.428  0.00  0.00    +0.000 A 
ENDROOT
BRANCH   6   8
ATOM      8  C   UNL     1       7.431   2.563   9.013  0.00  0.00    +0.000 C 
ATOM      9  C   UNL     1       6.608   3.117   9.921  0.00  0.00    +0.000 C 
ATOM     10  C   UNL     1       6.793   4.511  10.444  0.00  0.00    +0.000 C 
ATOM     11  N   UNL     1       8.086   5.113  10.103  0.00  0.00    +0.000 NA
ATOM     12  C   UNL     1       8.429   4.844   8.700  0.00  0.00    +0.000 C 
ATOM     13  C   UNL     1       8.579   3.339   8.426  0.00  0.00    +0.000 C 
ATOM     14  H   UNL     1       8.795   4.682  10.696  0.00  0.00    +0.000 HD
ENDBRANCH   6   8
BRANCH   1  15
ATOM     15  C   UNL     1       5.096  -0.486   5.796  0.00  0.00    +0.000 C 
BRANCH  15  16
ATOM     16  O   UNL     1       5.144   0.586   4.849  0.00  0.00    +0.000 OA
BRANCH  16  20
ATOM     17  C   UNL     1       2.460   0.090   1.763  0.00  0.00    +0.000 A 
ATOM     18  C   UNL     1       3.277   1.222   1.792  0.00  0.00    +0.000 A 
ATOM     19  C   UNL     1       4.180   1.384   2.844  0.00  0.00    +0.000 A 
ATOM     20  C   UNL     1       4.233   0.406   3.826  0.00  0.00    +0.000 A 
ATOM     21  N   UNL     1       3.448  -0.691   3.826  0.00  0.00    +0.000 NA
ATOM     22  C   UNL     1       2.571  -0.822   2.802  0.00  0.00    +0.000 A 
BRANCH  17  24
ATOM     23  N   UNL     1       1.725   0.331  -0.540  0.00  0.00    +0.000 N 
ATOM     24  C   UNL     1       1.471  -0.182   0.700  0.00  0.00    +0.000 C 
ATOM     25  O   UNL     1       0.486  -0.877   0.909  0.00  0.00    +0.000 OA
ATOM     26  H   UNL     1       1.100   0.032  -1.280  0.00  0.00    +0.000 HD
ATOM     27  H   UNL     1       2.634   0.678  -0.811  0.00  0.00    +0.000 HD
ENDBRANCH  17  24
ENDBRANCH  16  20
ENDBRANCH  15  16
ENDBRANCH   1  15
TORSDOF 5
