REMARK  Name = 
REMARK  6 active torsions:
REMARK  status: ('A' for Active; 'I' for Inactive)
REMARK    1  A    between atoms: C_1  and  O_2
REMARK    2  A    between atoms: O_2  and  C_3
REMARK    3  A    between atoms: C_5  and  C_6
REMARK    4  A    between atoms: C_6  and  N_7
REMARK    5  A    between atoms: N_7  and  C_8
REMARK    6  A    between atoms: C_11  and  C_12
REMARK                            x       y       z     vdW  Elec       q    Type
REMARK                         _______ _______ _______ _____ _____    ______ ____
ROOT
ATOM      1  N   UNL     1       3.460  -2.300   5.365  0.00  0.00    +0.000 N 
ATOM      2  H   UNL     1       4.125  -2.911   5.832  0.00  0.00    +0.000 HD
ENDROOT
BRANCH   1   3
ATOM      3  C   UNL     1       2.678  -1.532   6.245  0.00  0.00    +0.000 A 
ATOM      4  C   UNL     1       1.466  -0.932   5.936  0.00  0.00    +0.000 A 
ATOM      5  N   UNL     1       0.742  -0.159   6.783  0.00  0.00    +0.000 NA
ATOM      6  C   UNL     1       1.301   0.049   7.997  0.00  0.00    +0.000 A 
ATOM      7  N   UNL     1       2.485  -0.439   8.409  0.00  0.00    +0.000 NA
ATOM      8  C   UNL     1       3.141  -1.205   7.511  0.00  0.00    +0.000 A 
BRANCH   6   9
ATOM      9  C   UNL     1       0.527   0.924   8.959  0.00  0.00    +0.000 C 
ATOM     10  N   UNL     1      -0.669   1.417   8.489  0.00  0.00    +0.000 N 
ATOM     11  O   UNL     1       0.911   1.206  10.091  0.00  0.00    +0.000 OA
ATOM     12  H   UNL     1      -0.971   1.207   7.545  0.00  0.00    +0.000 HD
ATOM     13  H   UNL     1      -1.209   2.034   9.079  0.00  0.00    +0.000 HD
ENDBRANCH   6   9
ENDBRANCH   1   3
BRANCH   1  14
ATOM     14  C   UNL     1       3.009  -2.697   4.012  0.00  0.00    +0.000 C 
ATOM     15  C   UNL     1       3.030  -4.178   3.652  0.00  0.00    +0.000 C 
ATOM     16  C   UNL     1       1.721  -3.496   3.866  0.00  0.00    +0.000 C 
BRANCH  14  19
ATOM     17  C   UNL     1       4.805  -0.790   1.271  0.00  0.00    +0.000 A 
ATOM     18  C   UNL     1       4.614  -1.690   2.297  0.00  0.00    +0.000 A 
ATOM     19  C   UNL     1       3.362  -1.701   2.896  0.00  0.00    +0.000 A 
ATOM     20  N   UNL     1       2.397  -0.833   2.497  0.00  0.00    +0.000 NA
ATOM     21  C   UNL     1       2.705   0.008   1.498  0.00  0.00    +0.000 A 
ATOM     22  N   UNL     1       3.868   0.070   0.848  0.00  0.00    +0.000 NA
BRANCH  17  24
ATOM     23  C   UNL     1       6.114   0.096  -0.456  0.00  0.00    +0.000 C 
ATOM     24  O   UNL     1       6.042  -0.801   0.653  0.00  0.00    +0.000 OA
ENDBRANCH  17  24
ENDBRANCH  14  19
ENDBRANCH   1  14
TORSDOF 5
