REMARK  Name = 
REMARK  7 active torsions:
REMARK  status: ('A' for Active; 'I' for Inactive)
REMARK    1  A    between atoms: C_2  and  C_3
REMARK    2  A    between atoms: C_6  and  C_7
REMARK    3  A    between atoms: N_9  and  C_10
REMARK    4  A    between atoms: C_10  and  C_11
REMARK    5  A    between atoms: C_14  and  C_15
REMARK    6  A    between atoms: C_15  and  N_16
REMARK    7  A    between atoms: C_17  and  C_19
REMARK                            x       y       z     vdW  Elec       q    Type
REMARK                         _______ _______ _______ _____ _____    ______ ____
ROOT
ATOM      1  C   UNL     1      -6.813   2.524  -0.382  0.00  0.00    +0.000 C 
ATOM      2  C   UNL     1      -5.871   3.726  -0.582  0.00  0.00    +0.000 C 
ATOM      3  C   UNL     1      -6.545   5.062  -0.274  0.00  0.00    +0.000 C 
ATOM      4  C   UNL     1      -7.127   5.107   1.147  0.00  0.00    +0.000 C 
ATOM      5  C   UNL     1      -8.117   3.944   1.328  0.00  0.00    +0.000 C 
ATOM      6  C   UNL     1      -7.518   2.577   0.986  0.00  0.00    +0.000 C 
ENDROOT
BRANCH   1   7
ATOM      7  C   UNL     1      -7.840   2.401  -1.523  0.00  0.00    +0.000 C 
BRANCH   7  10
ATOM      8  C   UNL     1      -6.844   0.882  -3.192  0.00  0.00    +0.000 C 
ATOM      9  O   UNL     1      -7.071  -0.106  -2.501  0.00  0.00    +0.000 OA
ATOM     10  N   UNL     1      -7.202   2.157  -2.806  0.00  0.00    +0.000 N 
ATOM     11  H   UNL     1      -6.952   2.965  -3.353  0.00  0.00    +0.000 HD
BRANCH   8  15
ATOM     12  C   UNL     1      -4.920   0.134  -6.890  0.00  0.00    +0.000 A 
ATOM     13  C   UNL     1      -5.120   1.464  -6.545  0.00  0.00    +0.000 A 
ATOM     14  C   UNL     1      -5.747   1.757  -5.331  0.00  0.00    +0.000 A 
ATOM     15  C   UNL     1      -6.159   0.712  -4.499  0.00  0.00    +0.000 A 
ATOM     16  C   UNL     1      -5.904  -0.588  -4.930  0.00  0.00    +0.000 A 
ATOM     17  N   UNL     1      -5.297  -0.901  -6.103  0.00  0.00    +0.000 NA
BRANCH  12  19
ATOM     18  N   UNL     1      -3.768  -0.441  -9.144  0.00  0.00    +0.000 NA
ATOM     19  C   UNL     1      -4.286  -0.213  -8.127  0.00  0.00    +0.000 C 
ENDBRANCH  12  19
ENDBRANCH   8  15
ENDBRANCH   7  10
ENDBRANCH   1   7
BRANCH   4  20
ATOM     20  C   UNL     1      -6.043   5.089   2.240  0.00  0.00    +0.000 C 
BRANCH  20  21
ATOM     21  N   UNL     1      -5.114   6.193   2.124  0.00  0.00    +0.000 N 
ATOM     22  C   UNL     1      -5.249   7.380   2.796  0.00  0.00    +0.000 C 
ATOM     23  O   UNL     1      -6.236   7.623   3.490  0.00  0.00    +0.000 OA
ATOM     24  H   UNL     1      -4.353   6.073   1.463  0.00  0.00    +0.000 HD
BRANCH  22  25
ATOM     25  C   UNL     1      -4.141   8.343   2.673  0.00  0.00    +0.000 A 
ATOM     26  C   UNL     1      -4.219   9.562   3.335  0.00  0.00    +0.000 A 
ATOM     27  S   UNL     1      -2.814  10.516   3.194  0.00  0.00    +0.000 S 
ATOM     28  C   UNL     1      -2.046   9.339   2.237  0.00  0.00    +0.000 A 
ATOM     29  N   UNL     1      -0.765   9.513   1.811  0.00  0.00    +0.000 NA
ATOM     30  C   UNL     1      -0.291   8.528   1.126  0.00  0.00    +0.000 A 
ATOM     31  N   UNL     1      -0.992   7.397   0.800  0.00  0.00    +0.000 N 
ATOM     32  C   UNL     1      -2.314   7.222   1.128  0.00  0.00    +0.000 A 
ATOM     33  O   UNL     1      -2.953   6.272   0.684  0.00  0.00    +0.000 OA
ATOM     34  C   UNL     1      -2.869   8.254   1.986  0.00  0.00    +0.000 A 
ATOM     35  H   UNL     1      -0.579   6.685   0.216  0.00  0.00    +0.000 HD
ENDBRANCH  22  25
ENDBRANCH  20  21
ENDBRANCH   4  20
TORSDOF 7
