REMARK  Name = 
REMARK  8 active torsions:
REMARK  status: ('A' for Active; 'I' for Inactive)
REMARK    1  A    between atoms: C_2  and  C_3
REMARK    2  A    between atoms: C_3  and  N_4
REMARK    3  A    between atoms: C_5  and  C_7
REMARK    4  A    between atoms: N_17  and  C_18
REMARK    5  A    between atoms: C_18  and  C_19
REMARK    6  A    between atoms: C_22  and  C_23
REMARK    7  A    between atoms: C_23  and  N_24
REMARK    8  A    between atoms: C_25  and  C_27
REMARK                            x       y       z     vdW  Elec       q    Type
REMARK                         _______ _______ _______ _____ _____    ______ ____
ROOT
ATOM      1  O   UNL     1       4.325  -0.451  -2.355  0.00  0.00    +0.000 OA
ATOM      2  C   UNL     1       5.406  -0.362  -1.778  0.00  0.00    +0.000 C 
ATOM      3  N   UNL     1       5.598  -0.717  -0.461  0.00  0.00    +0.000 N 
ATOM      4  H   UNL     1       6.468  -0.451  -0.010  0.00  0.00    +0.000 HD
ENDROOT
BRANCH   2   5
ATOM      5  C   UNL     1       6.641   0.231  -2.456  0.00  0.00    +0.000 C 
BRANCH   5   6
ATOM      6  N   UNL     1       6.657   1.676  -2.341  0.00  0.00    +0.000 N 
ATOM      7  C   UNL     1       7.314   2.310  -1.319  0.00  0.00    +0.000 C 
ATOM      8  O   UNL     1       7.928   1.678  -0.460  0.00  0.00    +0.000 OA
ATOM      9  H   UNL     1       5.964   2.186  -2.884  0.00  0.00    +0.000 HD
BRANCH   7  10
ATOM     10  C   UNL     1       7.301   3.778  -1.330  0.00  0.00    +0.000 A 
ATOM     11  C   UNL     1       8.336   4.482  -0.731  0.00  0.00    +0.000 A 
ATOM     12  S   UNL     1       8.168   6.176  -0.841  0.00  0.00    +0.000 S 
ATOM     13  C   UNL     1       6.685   6.030  -1.662  0.00  0.00    +0.000 A 
ATOM     14  N   UNL     1       5.977   7.130  -2.030  0.00  0.00    +0.000 NA
ATOM     15  C   UNL     1       4.856   6.872  -2.619  0.00  0.00    +0.000 A 
ATOM     16  N   UNL     1       4.387   5.611  -2.883  0.00  0.00    +0.000 N 
ATOM     17  C   UNL     1       5.091   4.472  -2.572  0.00  0.00    +0.000 A 
ATOM     18  O   UNL     1       4.687   3.359  -2.897  0.00  0.00    +0.000 OA
ATOM     19  C   UNL     1       6.340   4.707  -1.876  0.00  0.00    +0.000 A 
ATOM     20  H   UNL     1       3.513   5.478  -3.369  0.00  0.00    +0.000 HD
ENDBRANCH   7  10
ENDBRANCH   5   6
ENDBRANCH   2   5
BRANCH   3  21
ATOM     21  C   UNL     1       4.534  -1.253   0.356  0.00  0.00    +0.000 C 
BRANCH  21  22
ATOM     22  C   UNL     1       4.908  -2.589   0.950  0.00  0.00    +0.000 A 
ATOM     23  C   UNL     1       5.604  -2.670   2.163  0.00  0.00    +0.000 A 
ATOM     24  C   UNL     1       5.936  -3.914   2.715  0.00  0.00    +0.000 A 
ATOM     25  C   UNL     1       5.591  -5.104   2.060  0.00  0.00    +0.000 A 
ATOM     26  C   UNL     1       4.897  -5.023   0.845  0.00  0.00    +0.000 A 
ATOM     27  C   UNL     1       4.570  -3.779   0.290  0.00  0.00    +0.000 A 
BRANCH  25  28
ATOM     28  C   UNL     1       5.977  -6.442   2.637  0.00  0.00    +0.000 C 
BRANCH  28  29
ATOM     29  N   UNL     1       4.974  -6.985   3.528  0.00  0.00    +0.000 N 
ATOM     30  C   UNL     1       5.151  -8.234   4.082  0.00  0.00    +0.000 C 
ATOM     31  O   UNL     1       6.142  -8.921   3.845  0.00  0.00    +0.000 OA
ATOM     32  H   UNL     1       4.186  -6.409   3.790  0.00  0.00    +0.000 HD
BRANCH  30  33
ATOM     33  C   UNL     1       3.990  -8.735   4.933  0.00  0.00    +0.000 C 
ATOM     34  C   UNL     1       3.638  -7.832   6.112  0.00  0.00    +0.000 C 
ATOM     35  C   UNL     1       2.924  -8.739   7.116  0.00  0.00    +0.000 C 
ATOM     36  C   UNL     1       3.265 -10.174   6.726  0.00  0.00    +0.000 C 
ATOM     37  C   UNL     1       4.304 -10.065   5.621  0.00  0.00    +0.000 C 
ENDBRANCH  30  33
ENDBRANCH  28  29
ENDBRANCH  25  28
ENDBRANCH  21  22
ENDBRANCH   3  21
TORSDOF 8
