REMARK  Name = 
REMARK  8 active torsions:
REMARK  status: ('A' for Active; 'I' for Inactive)
REMARK    1  A    between atoms: C_1  and  C_2
REMARK    2  A    between atoms: C_2  and  N_3
REMARK    3  A    between atoms: C_2  and  C_25
REMARK    4  A    between atoms: N_3  and  C_4
REMARK    5  A    between atoms: C_4  and  C_5
REMARK    6  A    between atoms: C_8  and  C_9
REMARK    7  A    between atoms: C_9  and  N_10
REMARK    8  A    between atoms: C_11  and  C_13
REMARK                            x       y       z     vdW  Elec       q    Type
REMARK                         _______ _______ _______ _____ _____    ______ ____
ROOT
ATOM      1  C   UNL     1       3.000   2.282  -2.802  0.00  0.00    +0.000 A 
ATOM      2  C   UNL     1       2.344   3.478  -2.474  0.00  0.00    +0.000 A 
ATOM      3  C   UNL     1       2.682   4.676  -3.108  0.00  0.00    +0.000 A 
ATOM      4  C   UNL     1       3.691   4.707  -4.078  0.00  0.00    +0.000 A 
ATOM      5  C   UNL     1       4.389   3.527  -4.364  0.00  0.00    +0.000 A 
ATOM      6  C   UNL     1       4.041   2.325  -3.740  0.00  0.00    +0.000 A 
ENDROOT
BRANCH   1   7
ATOM      7  C   UNL     1       2.583   0.969  -2.171  0.00  0.00    +0.000 C 
BRANCH   7   8
ATOM      8  N   UNL     1       1.202   0.647  -2.519  0.00  0.00    +0.000 NA
ATOM      9  H   UNL     1       0.599   1.421  -2.243  0.00  0.00    +0.000 HD
BRANCH   8  11
ATOM     10  C   UNL     1       1.438  -1.832  -2.331  0.00  0.00    +0.000 C 
ATOM     11  C   UNL     1       0.676  -0.574  -1.898  0.00  0.00    +0.000 C 
BRANCH  11  12
ATOM     12  C   UNL     1      -0.800  -0.707  -2.263  0.00  0.00    +0.000 A 
ATOM     13  C   UNL     1      -1.791  -0.732  -1.272  0.00  0.00    +0.000 A 
ATOM     14  C   UNL     1      -3.143  -0.814  -1.622  0.00  0.00    +0.000 A 
ATOM     15  C   UNL     1      -3.519  -0.873  -2.963  0.00  0.00    +0.000 A 
ATOM     16  C   UNL     1      -2.546  -0.856  -3.958  0.00  0.00    +0.000 A 
ATOM     17  C   UNL     1      -1.198  -0.773  -3.611  0.00  0.00    +0.000 A 
ENDBRANCH  11  12
ENDBRANCH   8  11
ENDBRANCH   7   8
ENDBRANCH   1   7
BRANCH   4  18
ATOM     18  C   UNL     1       4.032   5.984  -4.797  0.00  0.00    +0.000 C 
BRANCH  18  19
ATOM     19  N   UNL     1       5.046   6.729  -4.097  0.00  0.00    +0.000 N 
ATOM     20  C   UNL     1       5.455   7.957  -4.550  0.00  0.00    +0.000 C 
ATOM     21  O   UNL     1       4.959   8.484  -5.543  0.00  0.00    +0.000 OA
ATOM     22  H   UNL     1       5.619   6.221  -3.431  0.00  0.00    +0.000 HD
BRANCH  20  23
ATOM     23  C   UNL     1       6.476   8.644  -3.751  0.00  0.00    +0.000 A 
ATOM     24  C   UNL     1       6.575  10.028  -3.806  0.00  0.00    +0.000 A 
ATOM     25  S   UNL     1       7.785  10.668  -2.790  0.00  0.00    +0.000 S 
ATOM     26  C   UNL     1       8.255   9.114  -2.278  0.00  0.00    +0.000 A 
ATOM     27  N   UNL     1       9.285   8.945  -1.411  0.00  0.00    +0.000 NA
ATOM     28  C   UNL     1       9.556   7.713  -1.133  0.00  0.00    +0.000 A 
ATOM     29  N   UNL     1       8.878   6.634  -1.642  0.00  0.00    +0.000 N 
ATOM     30  C   UNL     1       7.807   6.757  -2.493  0.00  0.00    +0.000 A 
ATOM     31  O   UNL     1       7.188   5.771  -2.884  0.00  0.00    +0.000 OA
ATOM     32  C   UNL     1       7.479   8.122  -2.855  0.00  0.00    +0.000 A 
ATOM     33  H   UNL     1       9.131   5.694  -1.374  0.00  0.00    +0.000 HD
ENDBRANCH  20  23
ENDBRANCH  18  19
ENDBRANCH   4  18
TORSDOF 7
