REMARK  Name = 
REMARK  11 active torsions:
REMARK  status: ('A' for Active; 'I' for Inactive)
REMARK    1  A    between atoms: C_1  and  O_2
REMARK    2  A    between atoms: O_2  and  C_3
REMARK    3  A    between atoms: C_5  and  N_6
REMARK    4  A    between atoms: N_6  and  C_7
REMARK    5  A    between atoms: C_7  and  C_8
REMARK    6  A    between atoms: C_8  and  C_9
REMARK    7  A    between atoms: C_8  and  C_10
REMARK    8  A    between atoms: C_8  and  C_11
REMARK    9  A    between atoms: C_15  and  O_16
REMARK   10  A    between atoms: O_16  and  C_17
REMARK   11  A    between atoms: C_24  and  C_25
REMARK                            x       y       z     vdW  Elec       q    Type
REMARK                         _______ _______ _______ _____ _____    ______ ____
ROOT
ATOM      1  N   UNL     1       3.078   3.684   3.088  0.00  0.00    +0.000 N 
ATOM      2  H   UNL     1       3.911   3.786   3.662  0.00  0.00    +0.000 HD
ENDROOT
BRANCH   1   5
ATOM      3  C   UNL     1       2.698   1.805  -0.141  0.00  0.00    +0.000 A 
ATOM      4  C   UNL     1       2.393   2.396   1.098  0.00  0.00    +0.000 A 
ATOM      5  C   UNL     1       3.372   3.000   1.899  0.00  0.00    +0.000 A 
ATOM      6  C   UNL     1       4.681   3.038   1.408  0.00  0.00    +0.000 A 
ATOM      7  C   UNL     1       5.008   2.450   0.182  0.00  0.00    +0.000 A 
ATOM      8  C   UNL     1       4.025   1.836  -0.607  0.00  0.00    +0.000 A 
BRANCH   8   9
ATOM      9  C   UNL     1       4.474   1.298  -1.931  0.00  0.00    +0.000 C 
ATOM     10  N   UNL     1       3.541   0.738  -2.754  0.00  0.00    +0.000 N 
ATOM     11  O   UNL     1       5.644   1.369  -2.293  0.00  0.00    +0.000 OA
ATOM     12  H   UNL     1       2.577   0.643  -2.466  0.00  0.00    +0.000 HD
ATOM     13  H   UNL     1       3.831   0.396  -3.658  0.00  0.00    +0.000 HD
ENDBRANCH   8   9
BRANCH   3  15
ATOM     14  C   UNL     1       0.395   1.529  -0.711  0.00  0.00    +0.000 C 
ATOM     15  O   UNL     1       1.755   1.153  -0.900  0.00  0.00    +0.000 OA
ENDBRANCH   3  15
ENDBRANCH   1   5
BRANCH   1  16
ATOM     16  C   UNL     1       1.889   3.293   3.861  0.00  0.00    +0.000 C 
BRANCH  16  17
ATOM     17  C   UNL     1       1.676   4.160   5.145  0.00  0.00    +0.000 C 
ATOM     18  C   UNL     1       2.877   4.039   6.108  0.00  0.00    +0.000 C 
ATOM     19  C   UNL     1       1.575   5.646   4.716  0.00  0.00    +0.000 C 
BRANCH  17  20
ATOM     20  C   UNL     1       0.410   3.658   5.885  0.00  0.00    +0.000 A 
ATOM     21  C   UNL     1      -0.679   4.498   6.167  0.00  0.00    +0.000 A 
ATOM     22  C   UNL     1      -1.807   4.021   6.841  0.00  0.00    +0.000 A 
ATOM     23  C   UNL     1      -1.878   2.691   7.249  0.00  0.00    +0.000 A 
ATOM     24  C   UNL     1      -0.818   1.833   6.985  0.00  0.00    +0.000 A 
ATOM     25  C   UNL     1       0.312   2.313   6.309  0.00  0.00    +0.000 A 
BRANCH  24  26
ATOM     26  O   UNL     1      -0.814   0.496   7.299  0.00  0.00    +0.000 OA
BRANCH  26  27
ATOM     27  C   UNL     1      -1.559   0.064   8.458  0.00  0.00    +0.000 C 
ATOM     28  C   UNL     1      -1.530  -1.449   8.728  0.00  0.00    +0.000 C 
ATOM     29  C   UNL     1      -3.040  -1.309   8.872  0.00  0.00    +0.000 C 
ATOM     30  O   UNL     1      -3.006   0.011   8.284  0.00  0.00    +0.000 OA
ENDBRANCH  26  27
ENDBRANCH  24  26
ENDBRANCH  17  20
ENDBRANCH  16  17
ENDBRANCH   1  16
TORSDOF 8
