REMARK  Name = 
REMARK  4 active torsions:
REMARK  status: ('A' for Active; 'I' for Inactive)
REMARK    1  A    between atoms: C_1  and  O_2
REMARK    2  A    between atoms: O_2  and  C_3
REMARK    3  A    between atoms: N_9  and  C_10
REMARK    4  A    between atoms: C_10  and  C_11
REMARK                            x       y       z     vdW  Elec       q    Type
REMARK                         _______ _______ _______ _____ _____    ______ ____
ROOT
ATOM      1  C   UNL     1       3.021   0.997   0.962  0.00  0.00    +0.000 A 
ATOM      2  C   UNL     1       2.644   1.499   2.203  0.00  0.00    +0.000 A 
ATOM      3  C   UNL     1       3.306   2.604   2.755  0.00  0.00    +0.000 A 
ATOM      4  C   UNL     1       4.353   3.216   2.040  0.00  0.00    +0.000 A 
ATOM      5  C   UNL     1       5.205   4.324   2.311  0.00  0.00    +0.000 A 
ATOM      6  C   UNL     1       6.028   4.489   1.228  0.00  0.00    +0.000 A 
ATOM      7  N   UNL     1       5.709   3.536   0.291  0.00  0.00    +0.000 N 
ATOM      8  C   UNL     1       4.715   2.709   0.788  0.00  0.00    +0.000 A 
ATOM      9  C   UNL     1       4.077   1.574   0.249  0.00  0.00    +0.000 A 
ENDROOT
BRANCH   1  11
ATOM     10  C   UNL     1       1.045  -0.245   0.636  0.00  0.00    +0.000 C 
ATOM     11  O   UNL     1       2.434  -0.082   0.353  0.00  0.00    +0.000 OA
ENDBRANCH   1  11
BRANCH   7  12
ATOM     12  C   UNL     1       6.268   3.505  -1.059  0.00  0.00    +0.000 C 
BRANCH  12  13
ATOM     13  C   UNL     1       7.622   2.845  -1.086  0.00  0.00    +0.000 A 
ATOM     14  C   UNL     1       7.710   1.464  -0.830  0.00  0.00    +0.000 A 
ATOM     15  C   UNL     1       8.945   0.822  -0.740  0.00  0.00    +0.000 A 
ATOM     16  C   UNL     1      10.119   1.544  -0.922  0.00  0.00    +0.000 A 
ATOM     17  C   UNL     1      10.053   2.902  -1.228  0.00  0.00    +0.000 A 
ATOM     18  C   UNL     1       8.814   3.550  -1.317  0.00  0.00    +0.000 A 
ATOM     19 CL   UNL     1       8.834   5.229  -1.727  0.00  0.00    +0.000 Cl
ENDBRANCH  12  13
ENDBRANCH   7  12
TORSDOF 3
