REMARK  Name = 
REMARK  13 active torsions:
REMARK  status: ('A' for Active; 'I' for Inactive)
REMARK    1  A    between atoms: C_1  and  N_2
REMARK    2  A    between atoms: N_2  and  C_3
REMARK    3  A    between atoms: N_2  and  C_4
REMARK    4  A    between atoms: C_4  and  C_5
REMARK    5  A    between atoms: C_6  and  C_7
REMARK    6  A    between atoms: C_10  and  C_11
REMARK    7  A    between atoms: C_15  and  O_16
REMARK    8  A    between atoms: O_16  and  C_17
REMARK    9  A    between atoms: C_17  and  C_18
REMARK   10  A    between atoms: C_18  and  C_19
REMARK   11  A    between atoms: C_18  and  C_20
REMARK   12  A    between atoms: C_18  and  C_21
REMARK   13  A    between atoms: C_24  and  O_25
REMARK                            x       y       z     vdW  Elec       q    Type
REMARK                         _______ _______ _______ _____ _____    ______ ____
ROOT
ATOM      1  C   UNL     1       7.326   1.041   1.049  0.00  0.00    +0.000 A 
ATOM      2  C   UNL     1       8.030  -0.141   0.781  0.00  0.00    +0.000 A 
ATOM      3  N   UNL     1       9.383  -0.299   0.850  0.00  0.00    +0.000 NA
ATOM      4  C   UNL     1      10.081   0.808   1.200  0.00  0.00    +0.000 A 
ATOM      5  C   UNL     1       9.490   2.029   1.465  0.00  0.00    +0.000 A 
ATOM      6  C   UNL     1       8.093   2.172   1.405  0.00  0.00    +0.000 A 
ENDROOT
BRANCH   4   7
ATOM      7  C   UNL     1      11.574   0.714   1.344  0.00  0.00    +0.000 C 
ATOM      8  N   UNL     1      12.114  -0.527   1.153  0.00  0.00    +0.000 N 
ATOM      9  O   UNL     1      12.274   1.675   1.637  0.00  0.00    +0.000 OA
ATOM     10  H   UNL     1      11.517  -1.321   0.957  0.00  0.00    +0.000 HD
ATOM     11  H   UNL     1      13.105  -0.653   1.309  0.00  0.00    +0.000 HD
ENDBRANCH   4   7
BRANCH   1  13
ATOM     12  C   UNL     1       4.577   0.993   0.969  0.00  0.00    +0.000 C 
ATOM     13  C   UNL     1       5.881   0.993   0.969  0.00  0.00    +0.000 C 
BRANCH  12  14
ATOM     14  C   UNL     1       3.057   0.993   0.969  0.00  0.00    +0.000 C 
BRANCH  14  16
ATOM     15  C   UNL     1       1.079   0.009   0.019  0.00  0.00    +0.000 C 
ATOM     16  N   UNL     1       2.542   0.024  -0.015  0.00  0.00    +0.000 NA
ATOM     17  C   UNL     1       2.996   0.324  -1.377  0.00  0.00    +0.000 C 
ENDBRANCH  14  16
ENDBRANCH  12  14
ENDBRANCH   1  13
BRANCH   6  18
ATOM     18  O   UNL     1       7.484   3.390   1.700  0.00  0.00    +0.000 OA
BRANCH  18  19
ATOM     19  C   UNL     1       8.426   4.453   2.002  0.00  0.00    +0.000 C 
BRANCH  19  20
ATOM     20  C   UNL     1       7.837   5.849   2.364  0.00  0.00    +0.000 C 
ATOM     21  C   UNL     1       7.056   6.398   1.162  0.00  0.00    +0.000 C 
ATOM     22  C   UNL     1       6.870   5.636   3.550  0.00  0.00    +0.000 C 
BRANCH  20  23
ATOM     23  C   UNL     1       8.977   6.847   2.732  0.00  0.00    +0.000 A 
ATOM     24  C   UNL     1      10.276   6.736   2.187  0.00  0.00    +0.000 A 
ATOM     25  C   UNL     1      11.332   7.555   2.613  0.00  0.00    +0.000 A 
ATOM     26  C   UNL     1      11.099   8.526   3.573  0.00  0.00    +0.000 A 
ATOM     27  C   UNL     1       9.820   8.727   4.065  0.00  0.00    +0.000 A 
ATOM     28  C   UNL     1       8.769   7.900   3.644  0.00  0.00    +0.000 A 
BRANCH  26  29
ATOM     29  O   UNL     1      12.108   9.299   4.065  0.00  0.00    +0.000 OA
ATOM     30  H   UNL     1      12.954   8.903   3.800  0.00  0.00    +0.000 HD
ENDBRANCH  26  29
ENDBRANCH  20  23
ENDBRANCH  19  20
ENDBRANCH  18  19
ENDBRANCH   6  18
TORSDOF 9
