REMARK  Name = 
REMARK  6 active torsions:
REMARK  status: ('A' for Active; 'I' for Inactive)
REMARK    1  A    between atoms: C_1  and  C_2
REMARK    2  A    between atoms: C_5  and  C_6
REMARK    3  A    between atoms: C_6  and  C_7
REMARK    4  A    between atoms: C_10  and  C_11
REMARK    5  A    between atoms: C_11  and  N_12
REMARK    6  A    between atoms: C_13  and  C_15
REMARK                            x       y       z     vdW  Elec       q    Type
REMARK                         _______ _______ _______ _____ _____    ______ ____
ROOT
ATOM      1  C   UNL     1      -5.613  -2.405   4.647  0.00  0.00    +0.000 C 
ENDROOT
BRANCH   1   5
ATOM      2  C   UNL     1      -3.879  -0.519   1.239  0.00  0.00    +0.000 A 
ATOM      3  C   UNL     1      -3.032  -1.082   2.190  0.00  0.00    +0.000 A 
ATOM      4  C   UNL     1      -3.589  -1.697   3.310  0.00  0.00    +0.000 A 
ATOM      5  C   UNL     1      -4.975  -1.735   3.467  0.00  0.00    +0.000 A 
ATOM      6  C   UNL     1      -5.742  -1.159   2.462  0.00  0.00    +0.000 A 
ATOM      7  N   UNL     1      -5.230  -0.554   1.364  0.00  0.00    +0.000 NA
BRANCH   2   8
ATOM      8  C   UNL     1      -3.314   0.166   0.015  0.00  0.00    +0.000 C 
BRANCH   8  13
ATOM      9  C   UNL     1      -2.768  -3.045  -4.741  0.00  0.00    +0.000 C 
ATOM     10  C   UNL     1      -2.851  -2.250  -3.472  0.00  0.00    +0.000 A 
ATOM     11  C   UNL     1      -1.713  -1.694  -2.897  0.00  0.00    +0.000 A 
ATOM     12  C   UNL     1      -1.846  -0.929  -1.740  0.00  0.00    +0.000 A 
ATOM     13  C   UNL     1      -3.109  -0.731  -1.178  0.00  0.00    +0.000 A 
ATOM     14  C   UNL     1      -4.185  -1.345  -1.810  0.00  0.00    +0.000 A 
ATOM     15  N   UNL     1      -4.083  -2.095  -2.933  0.00  0.00    +0.000 NA
ENDBRANCH   8  13
ENDBRANCH   2   8
ENDBRANCH   1   5
BRANCH   1  16
ATOM     16  N   UNL     1      -5.856  -3.805   4.396  0.00  0.00    +0.000 N 
ATOM     17  C   UNL     1      -6.542  -4.574   5.302  0.00  0.00    +0.000 C 
ATOM     18  O   UNL     1      -7.014  -4.093   6.330  0.00  0.00    +0.000 OA
ATOM     19  H   UNL     1      -5.295  -4.259   3.680  0.00  0.00    +0.000 HD
BRANCH  17  20
ATOM     20  C   UNL     1      -6.738  -5.989   4.961  0.00  0.00    +0.000 A 
ATOM     21  C   UNL     1      -7.781  -6.695   5.546  0.00  0.00    +0.000 A 
ATOM     22  S   UNL     1      -7.892  -8.314   5.022  0.00  0.00    +0.000 S 
ATOM     23  C   UNL     1      -6.521  -8.143   4.029  0.00  0.00    +0.000 A 
ATOM     24  N   UNL     1      -6.046  -9.193   3.308  0.00  0.00    +0.000 NA
ATOM     25  C   UNL     1      -4.987  -8.931   2.618  0.00  0.00    +0.000 A 
ATOM     26  N   UNL     1      -4.362  -7.712   2.578  0.00  0.00    +0.000 N 
ATOM     27  C   UNL     1      -4.819  -6.616   3.274  0.00  0.00    +0.000 A 
ATOM     28  O   UNL     1      -4.254  -5.531   3.195  0.00  0.00    +0.000 OA
ATOM     29  C   UNL     1      -6.000  -6.862   4.078  0.00  0.00    +0.000 A 
ATOM     30  H   UNL     1      -3.543  -7.570   2.007  0.00  0.00    +0.000 HD
ENDBRANCH  17  20
ENDBRANCH   1  16
TORSDOF 5
