REMARK  Name = 
REMARK  5 active torsions:
REMARK  status: ('A' for Active; 'I' for Inactive)
REMARK    1  A    between atoms: N_1  and  C_2
REMARK    2  A    between atoms: C_2  and  C_3
REMARK    3  A    between atoms: C_6  and  O_7
REMARK    4  A    between atoms: O_7  and  C_8
REMARK    5  A    between atoms: C_8  and  C_9
REMARK                            x       y       z     vdW  Elec       q    Type
REMARK                         _______ _______ _______ _____ _____    ______ ____
ROOT
ATOM      1  C   UNL     1       2.805   1.704  -0.179  0.00  0.00    +0.000 A 
ATOM      2  C   UNL     1       3.412   1.672   1.083  0.00  0.00    +0.000 A 
ATOM      3  C   UNL     1       3.890   2.853   1.653  0.00  0.00    +0.000 A 
ATOM      4  C   UNL     1       3.721   4.034   0.952  0.00  0.00    +0.000 A 
ATOM      5  N   UNL     1       3.147   4.099  -0.267  0.00  0.00    +0.000 NA
ATOM      6  C   UNL     1       2.706   2.942  -0.800  0.00  0.00    +0.000 A 
ENDROOT
BRANCH   1   7
ATOM      7  C   UNL     1       2.298   0.464  -0.856  0.00  0.00    +0.000 C 
BRANCH   7   8
ATOM      8  N   UNL     1       1.227  -0.173  -0.101  0.00  0.00    +0.000 NA
ATOM      9  H   UNL     1       0.902  -0.994  -0.610  0.00  0.00    +0.000 HD
ATOM     10  H   UNL     1       0.431   0.461  -0.046  0.00  0.00    +0.000 HD
ENDBRANCH   7   8
ENDBRANCH   1   7
BRANCH   4  11
ATOM     11  O   UNL     1       4.203   5.199   1.516  0.00  0.00    +0.000 OA
BRANCH  11  12
ATOM     12  C   UNL     1       3.500   6.352   1.021  0.00  0.00    +0.000 C 
BRANCH  12  13
ATOM     13  C   UNL     1       4.104   7.645   1.608  0.00  0.00    +0.000 C 
ATOM     14  C   UNL     1       4.073   7.614   3.143  0.00  0.00    +0.000 C 
ATOM     15  C   UNL     1       4.612   8.912   3.738  0.00  0.00    +0.000 C 
ATOM     16  C   UNL     1       3.901  10.118   3.135  0.00  0.00    +0.000 C 
ATOM     17  C   UNL     1       3.936  10.073   1.610  0.00  0.00    +0.000 C 
ATOM     18  N   UNL     1       3.373   8.824   1.100  0.00  0.00    +0.000 NA
ATOM     19  H   UNL     1       3.404   8.832   0.081  0.00  0.00    +0.000 HD
ENDBRANCH  12  13
ENDBRANCH  11  12
ENDBRANCH   4  11
TORSDOF 5
