REMARK  Name = 
REMARK  7 active torsions:
REMARK  status: ('A' for Active; 'I' for Inactive)
REMARK    1  A    between atoms: C_1  and  C_2
REMARK    2  A    between atoms: C_2  and  C_3
REMARK    3  A    between atoms: C_2  and  C_15
REMARK    4  A    between atoms: C_3  and  N_4
REMARK    5  A    between atoms: N_4  and  C_5
REMARK    6  A    between atoms: C_8  and  C_9
REMARK    7  A    between atoms: C_19  and  C_20
REMARK                            x       y       z     vdW  Elec       q    Type
REMARK                         _______ _______ _______ _____ _____    ______ ____
ROOT
ATOM      1  N   UNL     1       2.365  -2.688   0.666  0.00  0.00    +0.000 N 
ATOM      2  H   UNL     1       2.415  -2.985  -0.306  0.00  0.00    +0.000 HD
ENDROOT
BRANCH   1   3
ATOM      3  C   UNL     1       2.985  -3.656   1.473  0.00  0.00    +0.000 A 
ATOM      4  N   UNL     1       3.914  -3.245   2.366  0.00  0.00    +0.000 NA
ATOM      5  C   UNL     1       4.516  -4.169   3.150  0.00  0.00    +0.000 A 
ATOM      6  C   UNL     1       4.234  -5.521   3.110  0.00  0.00    +0.000 A 
ATOM      7  C   UNL     1       3.255  -5.945   2.209  0.00  0.00    +0.000 A 
ATOM      8  C   UNL     1       2.628  -5.009   1.382  0.00  0.00    +0.000 A 
ATOM      9 BR   UNL     1       1.314  -5.625   0.158  0.00  0.00    +0.000 Br
BRANCH   6  10
ATOM     10  C   UNL     1       4.918  -6.513   3.971  0.00  0.00    +0.000 C 
ATOM     11  N   UNL     1       5.926  -6.097   4.794  0.00  0.00    +0.000 N 
ATOM     12  O   UNL     1       4.595  -7.694   3.945  0.00  0.00    +0.000 OA
ATOM     13  H   UNL     1       6.295  -5.162   4.866  0.00  0.00    +0.000 HD
ATOM     14  H   UNL     1       6.381  -6.814   5.346  0.00  0.00    +0.000 HD
ENDBRANCH   6  10
ENDBRANCH   1   3
BRANCH   1  15
ATOM     15  C   UNL     1       2.890  -1.343   0.859  0.00  0.00    +0.000 C 
BRANCH  15  17
ATOM     16  C   UNL     1       0.787  -0.085   0.073  0.00  0.00    +0.000 C 
ATOM     17  C   UNL     1       2.222  -0.448  -0.138  0.00  0.00    +0.000 C 
BRANCH  17  18
ATOM     18  C   UNL     1       2.869  -0.182  -1.428  0.00  0.00    +0.000 A 
ATOM     19  C   UNL     1       2.169  -0.395  -2.618  0.00  0.00    +0.000 A 
ATOM     20  C   UNL     1       2.780  -0.178  -3.853  0.00  0.00    +0.000 A 
ATOM     21  C   UNL     1       4.094   0.280  -3.910  0.00  0.00    +0.000 A 
ATOM     22  C   UNL     1       4.812   0.527  -2.732  0.00  0.00    +0.000 A 
ATOM     23  C   UNL     1       4.193   0.279  -1.493  0.00  0.00    +0.000 A 
BRANCH  22  24
ATOM     24  C   UNL     1       6.220   1.068  -2.776  0.00  0.00    +0.000 C 
ATOM     25  F   UNL     1       6.685   1.276  -4.040  0.00  0.00    +0.000 F 
ATOM     26  F   UNL     1       6.336   2.265  -2.137  0.00  0.00    +0.000 F 
ATOM     27  F   UNL     1       7.119   0.238  -2.179  0.00  0.00    +0.000 F 
ENDBRANCH  22  24
ENDBRANCH  17  18
ENDBRANCH  15  17
ENDBRANCH   1  15
TORSDOF 6
