REMARK  Name = 
REMARK  10 active torsions:
REMARK  status: ('A' for Active; 'I' for Inactive)
REMARK    1  A    between atoms: C_1  and  O_2
REMARK    2  A    between atoms: O_2  and  C_3
REMARK    3  A    between atoms: C_10  and  C_11
REMARK    4  A    between atoms: N_13  and  C_14
REMARK    5  A    between atoms: C_14  and  C_15
REMARK    6  A    between atoms: C_18  and  O_19
REMARK    7  A    between atoms: O_19  and  C_20
REMARK    8  A    between atoms: C_20  and  C_21
REMARK    9  A    between atoms: C_21  and  O_22
REMARK   10  A    between atoms: C_21  and  C_23
REMARK                            x       y       z     vdW  Elec       q    Type
REMARK                         _______ _______ _______ _____ _____    ______ ____
ROOT
ATOM      1  C   UNL     1       1.288   2.682  -1.821  0.00  0.00    +0.000 A 
ATOM      2  C   UNL     1       1.216   1.345  -2.231  0.00  0.00    +0.000 A 
ATOM      3  C   UNL     1       0.041   0.828  -2.786  0.00  0.00    +0.000 A 
ATOM      4  C   UNL     1      -1.078   1.643  -2.957  0.00  0.00    +0.000 A 
ATOM      5  C   UNL     1      -0.987   2.996  -2.620  0.00  0.00    +0.000 A 
ATOM      6  C   UNL     1       0.188   3.515  -2.061  0.00  0.00    +0.000 A 
ENDROOT
BRANCH   1   7
ATOM      7  C   UNL     1       2.526   3.200  -1.135  0.00  0.00    +0.000 C 
BRANCH   7  10
ATOM      8  C   UNL     1       4.689   4.224  -1.689  0.00  0.00    +0.000 C 
ATOM      9  O   UNL     1       5.034   4.212  -0.509  0.00  0.00    +0.000 OA
ATOM     10  N   UNL     1       3.470   3.740  -2.077  0.00  0.00    +0.000 N 
ATOM     11  H   UNL     1       3.192   3.776  -3.047  0.00  0.00    +0.000 HD
BRANCH   8  19
ATOM     12  C   UNL     1       4.427   4.430  -5.111  0.00  0.00    +0.000 A 
ATOM     13  N   UNL     1       4.563   4.668  -6.430  0.00  0.00    +0.000 NA
ATOM     14  C   UNL     1       5.674   5.283  -6.844  0.00  0.00    +0.000 A 
ATOM     15  N   UNL     1       6.690   5.696  -6.091  0.00  0.00    +0.000 NA
ATOM     16  C   UNL     1       6.507   5.453  -4.782  0.00  0.00    +0.000 A 
ATOM     17  S   UNL     1       7.705   5.907  -3.669  0.00  0.00    +0.000 S 
ATOM     18  C   UNL     1       6.791   5.311  -2.366  0.00  0.00    +0.000 A 
ATOM     19  C   UNL     1       5.568   4.764  -2.739  0.00  0.00    +0.000 A 
ATOM     20  C   UNL     1       5.408   4.838  -4.190  0.00  0.00    +0.000 A 
BRANCH  12  22
ATOM     21  C   UNL     1       2.662   3.001  -5.685  0.00  0.00    +0.000 C 
ATOM     22  O   UNL     1       3.280   3.800  -4.680  0.00  0.00    +0.000 OA
ENDBRANCH  12  22
ENDBRANCH   8  19
ENDBRANCH   7  10
ENDBRANCH   1   7
BRANCH   4  23
ATOM     23  O   UNL     1      -2.299   1.231  -3.425  0.00  0.00    +0.000 OA
BRANCH  23  24
ATOM     24  C   UNL     1      -2.402  -0.153  -3.798  0.00  0.00    +0.000 C 
BRANCH  24  25
ATOM     25  C   UNL     1      -3.795  -0.469  -4.378  0.00  0.00    +0.000 C 
BRANCH  25  26
ATOM     26  C   UNL     1      -4.186   0.227  -5.669  0.00  0.00    +0.000 A 
ATOM     27  C   UNL     1      -3.369   1.169  -6.312  0.00  0.00    +0.000 A 
ATOM     28  C   UNL     1      -3.765   1.763  -7.512  0.00  0.00    +0.000 A 
ATOM     29  C   UNL     1      -4.984   1.421  -8.092  0.00  0.00    +0.000 A 
ATOM     30  C   UNL     1      -5.810   0.491  -7.472  0.00  0.00    +0.000 A 
ATOM     31  C   UNL     1      -5.414  -0.100  -6.268  0.00  0.00    +0.000 A 
ENDBRANCH  25  26
BRANCH  25  32
ATOM     32  O   UNL     1      -4.794  -0.213  -3.387  0.00  0.00    +0.000 OA
ATOM     33  H   UNL     1      -4.810   0.754  -3.272  0.00  0.00    +0.000 HD
ENDBRANCH  25  32
ENDBRANCH  24  25
ENDBRANCH  23  24
ENDBRANCH   4  23
TORSDOF 9
