REMARK  Name = 
REMARK  8 active torsions:
REMARK  status: ('A' for Active; 'I' for Inactive)
REMARK    1  A    between atoms: C_1  and  O_2
REMARK    2  A    between atoms: O_2  and  C_3
REMARK    3  A    between atoms: C_5  and  C_6
REMARK    4  A    between atoms: C_6  and  N_7
REMARK    5  A    between atoms: N_7  and  C_8
REMARK    6  A    between atoms: C_11  and  C_12
REMARK    7  A    between atoms: C_20  and  C_21
REMARK    8  A    between atoms: C_22  and  C_23
REMARK                            x       y       z     vdW  Elec       q    Type
REMARK                         _______ _______ _______ _____ _____    ______ ____
ROOT
ATOM      1  C   UNL     1       2.662  -4.165  -2.564  0.00  0.00    +0.000 C 
ATOM      2  C   UNL     1       1.587  -5.129  -2.085  0.00  0.00    +0.000 C 
ATOM      3  C   UNL     1       3.002  -5.584  -2.074  0.00  0.00    +0.000 C 
ENDROOT
BRANCH   1   6
ATOM      4  C   UNL     1       3.066  -1.014  -0.311  0.00  0.00    +0.000 A 
ATOM      5  C   UNL     1       2.593  -1.889  -1.313  0.00  0.00    +0.000 A 
ATOM      6  C   UNL     1       3.253  -3.073  -1.646  0.00  0.00    +0.000 A 
ATOM      7  C   UNL     1       4.489  -3.268  -1.014  0.00  0.00    +0.000 A 
ATOM      8  C   UNL     1       4.937  -2.490   0.077  0.00  0.00    +0.000 A 
ATOM      9  C   UNL     1       6.135  -3.048   0.809  0.00  0.00    +0.000 C 
ATOM     10  C   UNL     1       4.217  -1.331   0.472  0.00  0.00    +0.000 A 
BRANCH  10  11
ATOM     11  C   UNL     1       4.574  -0.531   1.697  0.00  0.00    +0.000 A 
ATOM     12  C   UNL     1       5.888  -0.284   2.124  0.00  0.00    +0.000 A 
ATOM     13  C   UNL     1       6.155   0.380   3.327  0.00  0.00    +0.000 A 
ATOM     14  C   UNL     1       5.092   0.851   4.071  0.00  0.00    +0.000 A 
ATOM     15  N   UNL     1       3.811   0.682   3.705  0.00  0.00    +0.000 NA
ATOM     16  C   UNL     1       3.592  -0.005   2.550  0.00  0.00    +0.000 A 
ENDBRANCH  10  11
BRANCH   4  18
ATOM     17  C   UNL     1       1.229   0.489  -0.720  0.00  0.00    +0.000 C 
ATOM     18  O   UNL     1       2.428   0.174  -0.022  0.00  0.00    +0.000 OA
ENDBRANCH   4  18
ENDBRANCH   1   6
BRANCH   1  19
ATOM     19  N   UNL     1       2.699  -3.877  -4.016  0.00  0.00    +0.000 N 
ATOM     20  H   UNL     1       3.147  -4.598  -4.579  0.00  0.00    +0.000 HD
BRANCH  19  21
ATOM     21  C   UNL     1       1.630  -3.284  -4.731  0.00  0.00    +0.000 A 
ATOM     22  C   UNL     1       1.754  -3.129  -6.117  0.00  0.00    +0.000 A 
ATOM     23  C   UNL     1       0.767  -2.474  -6.856  0.00  0.00    +0.000 A 
ATOM     24  C   UNL     1      -0.330  -1.961  -6.181  0.00  0.00    +0.000 A 
ATOM     25  N   UNL     1      -0.499  -2.068  -4.836  0.00  0.00    +0.000 NA
ATOM     26  C   UNL     1       0.486  -2.720  -4.161  0.00  0.00    +0.000 A 
BRANCH  24  27
ATOM     27  C   UNL     1      -1.398  -1.244  -6.949  0.00  0.00    +0.000 C 
ATOM     28  N   UNL     1      -2.444  -0.762  -6.206  0.00  0.00    +0.000 N 
ATOM     29  O   UNL     1      -1.353  -1.097  -8.162  0.00  0.00    +0.000 OA
ATOM     30  H   UNL     1      -2.453  -0.897  -5.202  0.00  0.00    +0.000 HD
ATOM     31  H   UNL     1      -3.193  -0.269  -6.666  0.00  0.00    +0.000 HD
ENDBRANCH  24  27
ENDBRANCH  19  21
ENDBRANCH   1  19
TORSDOF 6
