REMARK  Name = 
REMARK  6 active torsions:
REMARK  status: ('A' for Active; 'I' for Inactive)
REMARK    1  A    between atoms: N_1  and  C_2
REMARK    2  A    between atoms: C_2  and  C_3
REMARK    3  A    between atoms: C_7  and  C_8
REMARK    4  A    between atoms: C_8  and  C_9
REMARK    5  A    between atoms: C_9  and  N_10
REMARK    6  A    between atoms: C_14  and  C_15
REMARK                            x       y       z     vdW  Elec       q    Type
REMARK                         _______ _______ _______ _____ _____    ______ ____
ROOT
ATOM      1  N   UNL     1       7.405   4.335  -3.558  0.00  0.00    +0.000 N 
ATOM      2  C   UNL     1       7.812   5.649  -3.781  0.00  0.00    +0.000 A 
ATOM      3  N   UNL     1       7.434   6.616  -2.934  0.00  0.00    +0.000 NA
ATOM      4  C   UNL     1       7.800   7.882  -3.226  0.00  0.00    +0.000 A 
ATOM      5  C   UNL     1       8.555   8.219  -4.323  0.00  0.00    +0.000 A 
ATOM      6  C   UNL     1       8.907   7.162  -5.127  0.00  0.00    +0.000 A 
ATOM      7  N   UNL     1       8.547   5.877  -4.882  0.00  0.00    +0.000 NA
ATOM      8  H   UNL     1       7.464   3.864  -4.453  0.00  0.00    +0.000 HD
ENDROOT
BRANCH   5   9
ATOM      9  C   UNL     1       8.875   9.631  -4.581  0.00  0.00    +0.000 C 
ATOM     10  N   UNL     1       9.970   9.921  -5.342  0.00  0.00    +0.000 N 
ATOM     11  O   UNL     1       8.192  10.525  -4.099  0.00  0.00    +0.000 OA
ATOM     12  H   UNL     1      10.698   9.256  -5.562  0.00  0.00    +0.000 HD
ATOM     13  H   UNL     1      10.209  10.904  -5.409  0.00  0.00    +0.000 HD
ENDBRANCH   5   9
BRANCH   1  14
ATOM     14  C   UNL     1       6.119   4.249  -2.871  0.00  0.00    +0.000 C 
BRANCH  14  15
ATOM     15  C   UNL     1       5.729   2.793  -2.594  0.00  0.00    +0.000 C 
BRANCH  15  20
ATOM     16  C   UNL     1       3.123   2.792   0.218  0.00  0.00    +0.000 A 
ATOM     17  C   UNL     1       1.938   2.726  -0.529  0.00  0.00    +0.000 A 
ATOM     18  C   UNL     1       1.979   2.646  -1.920  0.00  0.00    +0.000 A 
ATOM     19  C   UNL     1       3.204   2.642  -2.587  0.00  0.00    +0.000 A 
ATOM     20  C   UNL     1       4.403   2.717  -1.867  0.00  0.00    +0.000 A 
ATOM     21  C   UNL     1       4.351   2.791  -0.464  0.00  0.00    +0.000 A 
BRANCH  16  22
ATOM     22  C   UNL     1       3.071   2.914   1.721  0.00  0.00    +0.000 C 
BRANCH  22  23
ATOM     23  N   UNL     1       2.318   1.823   2.332  0.00  0.00    +0.000 NA
ATOM     24  H   UNL     1       2.368   1.910   3.344  0.00  0.00    +0.000 HD
ATOM     25  H   UNL     1       2.772   0.942   2.093  0.00  0.00    +0.000 HD
ENDBRANCH  22  23
ENDBRANCH  16  22
ENDBRANCH  15  20
ENDBRANCH  14  15
ENDBRANCH   1  14
TORSDOF 6
