REMARK  Name = 
REMARK  5 active torsions:
REMARK  status: ('A' for Active; 'I' for Inactive)
REMARK    1  A    between atoms: C_2  and  C_4
REMARK    2  A    between atoms: N_8  and  C_9
REMARK    3  A    between atoms: C_9  and  C_10
REMARK    4  A    between atoms: C_10  and  C_13
REMARK    5  A    between atoms: C_15  and  C_16
REMARK                            x       y       z     vdW  Elec       q    Type
REMARK                         _______ _______ _______ _____ _____    ______ ____
ROOT
ATOM      1  C   UNL     1       6.086  -6.952  -1.441  0.00  0.00    +0.000 C 
ATOM      2  F   UNL     1       7.350  -6.438  -1.551  0.00  0.00    +0.000 F 
ATOM      3  F   UNL     1       6.030  -7.485  -0.177  0.00  0.00    +0.000 F 
ENDROOT
BRANCH   1   4
ATOM      4  C   UNL     1       5.810  -8.014  -2.501  0.00  0.00    +0.000 A 
ATOM      5  C   UNL     1       6.140  -9.342  -2.218  0.00  0.00    +0.000 A 
ATOM      6  C   UNL     1       5.907 -10.355  -3.161  0.00  0.00    +0.000 A 
ATOM      7  C   UNL     1       5.358  -9.960  -4.386  0.00  0.00    +0.000 A 
ATOM      8  C   UNL     1       5.074  -8.621  -4.607  0.00  0.00    +0.000 A 
ATOM      9  N   UNL     1       5.280  -7.647  -3.697  0.00  0.00    +0.000 NA
BRANCH   6  10
ATOM     10  C   UNL     1       6.246 -11.767  -2.863  0.00  0.00    +0.000 A 
ATOM     11  C   UNL     1       6.122 -12.288  -1.557  0.00  0.00    +0.000 A 
ATOM     12  C   UNL     1       6.484 -13.604  -1.257  0.00  0.00    +0.000 A 
ATOM     13  C   UNL     1       6.960 -14.432  -2.264  0.00  0.00    +0.000 A 
ATOM     14  F   UNL     1       7.305 -15.691  -1.956  0.00  0.00    +0.000 F 
ATOM     15  C   UNL     1       7.074 -13.958  -3.565  0.00  0.00    +0.000 A 
ATOM     16 CL   UNL     1       7.654 -14.981  -4.824  0.00  0.00    +0.000 Cl
ATOM     17  C   UNL     1       6.725 -12.636  -3.862  0.00  0.00    +0.000 A 
ENDBRANCH   6  10
ENDBRANCH   1   4
BRANCH   1  18
ATOM     18  C   UNL     1       5.071  -5.789  -1.520  0.00  0.00    +0.000 C 
BRANCH  18  23
ATOM     19  C   UNL     1       2.968  -1.382  -0.054  0.00  0.00    +0.000 A 
ATOM     20  C   UNL     1       2.371  -2.492  -0.639  0.00  0.00    +0.000 A 
ATOM     21  C   UNL     1       3.117  -3.660  -0.796  0.00  0.00    +0.000 A 
ATOM     22  C   UNL     1       4.445  -3.690  -0.383  0.00  0.00    +0.000 A 
ATOM     23  N   UNL     1       5.218  -4.834  -0.410  0.00  0.00    +0.000 N 
ATOM     24  N   UNL     1       5.043  -2.608   0.151  0.00  0.00    +0.000 NA
ATOM     25  C   UNL     1       4.302  -1.478   0.300  0.00  0.00    +0.000 A 
ATOM     26  H   UNL     1       6.177  -4.571  -0.187  0.00  0.00    +0.000 HD
BRANCH  19  28
ATOM     27  N   UNL     1       0.885  -0.215   0.388  0.00  0.00    +0.000 N 
ATOM     28  C   UNL     1       2.239  -0.124   0.204  0.00  0.00    +0.000 C 
ATOM     29  O   UNL     1       2.822   0.948   0.293  0.00  0.00    +0.000 OA
ATOM     30  H   UNL     1       0.419   0.634   0.680  0.00  0.00    +0.000 HD
ATOM     31  H   UNL     1       0.424  -1.090   0.587  0.00  0.00    +0.000 HD
ENDBRANCH  19  28
ENDBRANCH  18  23
ENDBRANCH   1  18
TORSDOF 5
