REMARK  Name = 
REMARK  6 active torsions:
REMARK  status: ('A' for Active; 'I' for Inactive)
REMARK    1  A    between atoms: C_2  and  C_25
REMARK    2  A    between atoms: N_3  and  C_4
REMARK    3  A    between atoms: C_4  and  C_5
REMARK    4  A    between atoms: C_8  and  C_9
REMARK    5  A    between atoms: C_9  and  N_10
REMARK    6  A    between atoms: C_11  and  C_13
REMARK                            x       y       z     vdW  Elec       q    Type
REMARK                         _______ _______ _______ _____ _____    ______ ____
ROOT
ATOM      1  C   UNL     1       3.127   2.406   2.661  0.00  0.00    +0.000 A 
ATOM      2  C   UNL     1       3.030   3.803   2.599  0.00  0.00    +0.000 A 
ATOM      3  C   UNL     1       3.824   4.613   3.422  0.00  0.00    +0.000 A 
ATOM      4  C   UNL     1       4.748   4.044   4.308  0.00  0.00    +0.000 A 
ATOM      5  C   UNL     1       4.855   2.648   4.359  0.00  0.00    +0.000 A 
ATOM      6  C   UNL     1       4.063   1.838   3.536  0.00  0.00    +0.000 A 
ENDROOT
BRANCH   1   7
ATOM      7  C   UNL     1       2.220   1.535   1.831  0.00  0.00    +0.000 C 
BRANCH   7  10
ATOM      8  O   UNL     1       0.988  -0.080  -0.045  0.00  0.00    +0.000 OA
ATOM      9  C   UNL     1       2.039   0.473  -0.360  0.00  0.00    +0.000 C 
ATOM     10  N   UNL     1       2.738   1.281   0.509  0.00  0.00    +0.000 N 
ATOM     11  H   UNL     1       3.508   1.839   0.173  0.00  0.00    +0.000 HD
BRANCH   9  12
ATOM     12  C   UNL     1       2.601   0.330  -1.677  0.00  0.00    +0.000 A 
ATOM     13  C   UNL     1       3.802   0.713  -2.240  0.00  0.00    +0.000 A 
ATOM     14  N   UNL     1       3.876   0.342  -3.560  0.00  0.00    +0.000 NA
ATOM     15  C   UNL     1       2.745  -0.272  -3.811  0.00  0.00    +0.000 A 
ATOM     16  N   UNL     1       1.947  -0.316  -2.706  0.00  0.00    +0.000 N 
ATOM     17  H   UNL     1       1.030  -0.739  -2.637  0.00  0.00    +0.000 HD
ENDBRANCH   9  12
ENDBRANCH   7  10
ENDBRANCH   1   7
BRANCH   4  18
ATOM     18  C   UNL     1       5.586   4.909   5.216  0.00  0.00    +0.000 C 
BRANCH  18  19
ATOM     19  N   UNL     1       4.935   5.143   6.482  0.00  0.00    +0.000 N 
ATOM     20  C   UNL     1       5.491   5.981   7.418  0.00  0.00    +0.000 C 
ATOM     21  O   UNL     1       6.534   6.591   7.202  0.00  0.00    +0.000 OA
ATOM     22  H   UNL     1       4.214   4.485   6.764  0.00  0.00    +0.000 HD
BRANCH  20  23
ATOM     23  C   UNL     1       4.744   6.165   8.671  0.00  0.00    +0.000 A 
ATOM     24  C   UNL     1       4.957   7.306   9.434  0.00  0.00    +0.000 A 
ATOM     25  S   UNL     1       3.973   7.396  10.823  0.00  0.00    +0.000 S 
ATOM     26  C   UNL     1       3.266   5.886  10.486  0.00  0.00    +0.000 A 
ATOM     27  N   UNL     1       2.335   5.349  11.319  0.00  0.00    +0.000 NA
ATOM     28  C   UNL     1       1.912   4.182  10.965  0.00  0.00    +0.000 A 
ATOM     29  N   UNL     1       2.333   3.506   9.849  0.00  0.00    +0.000 N 
ATOM     30  C   UNL     1       3.245   4.023   8.960  0.00  0.00    +0.000 A 
ATOM     31  O   UNL     1       3.564   3.413   7.945  0.00  0.00    +0.000 OA
ATOM     32  C   UNL     1       3.763   5.329   9.320  0.00  0.00    +0.000 A 
ATOM     33  H   UNL     1       1.957   2.597   9.624  0.00  0.00    +0.000 HD
ENDBRANCH  20  23
ENDBRANCH  18  19
ENDBRANCH   4  18
TORSDOF 6
