REMARK  Name = 
REMARK  9 active torsions:
REMARK  status: ('A' for Active; 'I' for Inactive)
REMARK    1  A    between atoms: N_1  and  C_2
REMARK    2  A    between atoms: C_2  and  N_3
REMARK    3  A    between atoms: C_2  and  C_19
REMARK    4  A    between atoms: N_3  and  C_4
REMARK    5  A    between atoms: C_4  and  C_5
REMARK    6  A    between atoms: C_8  and  C_9
REMARK    7  A    between atoms: C_9  and  N_10
REMARK    8  A    between atoms: N_10  and  C_11
REMARK    9  A    between atoms: C_11  and  C_12
REMARK                            x       y       z     vdW  Elec       q    Type
REMARK                         _______ _______ _______ _____ _____    ______ ____
ROOT
ATOM      1  N   UNL     1       3.303  -2.280  -0.465  0.00  0.00    +0.000 NA
ATOM      2  H   UNL     1       3.263  -3.304  -0.495  0.00  0.00    +0.000 HD
ENDROOT
BRANCH   1   3
ATOM      3  C   UNL     1       2.806  -1.918   0.852  0.00  0.00    +0.000 C 
BRANCH   3   4
ATOM      4  C   UNL     1       3.732  -2.522   1.897  0.00  0.00    +0.000 A 
ATOM      5  C   UNL     1       4.522  -1.804   2.785  0.00  0.00    +0.000 A 
ATOM      6  S   UNL     1       5.503  -2.776   3.787  0.00  0.00    +0.000 S 
ATOM      7  C   UNL     1       4.881  -4.201   3.097  0.00  0.00    +0.000 A 
ATOM      8  N   UNL     1       5.328  -5.419   3.497  0.00  0.00    +0.000 NA
ATOM      9  C   UNL     1       4.764  -6.409   2.892  0.00  0.00    +0.000 A 
ATOM     10  N   UNL     1       3.779  -6.296   1.947  0.00  0.00    +0.000 N 
ATOM     11  C   UNL     1       3.294  -5.084   1.512  0.00  0.00    +0.000 A 
ATOM     12  O   UNL     1       2.424  -4.988   0.653  0.00  0.00    +0.000 OA
ATOM     13  C   UNL     1       3.922  -3.936   2.145  0.00  0.00    +0.000 A 
ATOM     14  H   UNL     1       3.373  -7.118   1.521  0.00  0.00    +0.000 HD
ENDBRANCH   3   4
BRANCH   3  15
ATOM     15  N   UNL     1       2.910  -0.480   0.943  0.00  0.00    +0.000 NA
ATOM     16  H   UNL     1       2.240  -0.051   0.316  0.00  0.00    +0.000 HD
ATOM     17  H   UNL     1       3.829  -0.252   0.568  0.00  0.00    +0.000 HD
ENDBRANCH   3  15
ENDBRANCH   1   3
BRANCH   1  18
ATOM     18  C   UNL     1       2.476  -1.798  -1.571  0.00  0.00    +0.000 C 
BRANCH  18  19
ATOM     19  C   UNL     1       2.973  -2.284  -2.906  0.00  0.00    +0.000 A 
ATOM     20  C   UNL     1       3.475  -1.395  -3.862  0.00  0.00    +0.000 A 
ATOM     21  C   UNL     1       3.881  -1.867  -5.106  0.00  0.00    +0.000 A 
ATOM     22  C   UNL     1       3.787  -3.231  -5.365  0.00  0.00    +0.000 A 
ATOM     23  N   UNL     1       3.306  -4.119  -4.457  0.00  0.00    +0.000 NA
ATOM     24  C   UNL     1       2.912  -3.627  -3.259  0.00  0.00    +0.000 A 
BRANCH  22  25
ATOM     25  C   UNL     1       4.142  -3.776  -6.734  0.00  0.00    +0.000 C 
BRANCH  25  26
ATOM     26  N   UNL     1       3.032  -4.499  -7.377  0.00  0.00    +0.000 NA
ATOM     27  H   UNL     1       2.707  -5.175  -6.676  0.00  0.00    +0.000 HD
BRANCH  26  28
ATOM     28  C   UNL     1       1.898  -3.596  -7.642  0.00  0.00    +0.000 C 
BRANCH  28  29
ATOM     29  C   UNL     1       0.786  -4.320  -8.329  0.00  0.00    +0.000 A 
ATOM     30  N   UNL     1      -0.506  -4.079  -8.239  0.00  0.00    +0.000 NA
ATOM     31  C   UNL     1      -1.112  -5.011  -9.038  0.00  0.00    +0.000 A 
ATOM     32  C   UNL     1      -0.178  -5.828  -9.629  0.00  0.00    +0.000 A 
ATOM     33  N   UNL     1       1.026  -5.374  -9.174  0.00  0.00    +0.000 N 
ATOM     34  H   UNL     1       1.945  -5.746  -9.371  0.00  0.00    +0.000 HD
ENDBRANCH  28  29
ENDBRANCH  26  28
ENDBRANCH  25  26
ENDBRANCH  22  25
ENDBRANCH  18  19
ENDBRANCH   1  18
TORSDOF 9
