REMARK  Name = 
REMARK  5 active torsions:
REMARK  status: ('A' for Active; 'I' for Inactive)
REMARK    1  A    between atoms: N_1  and  C_2
REMARK    2  A    between atoms: C_2  and  C_3
REMARK    3  A    between atoms: C_6  and  C_7
REMARK    4  A    between atoms: C_7  and  C_8
REMARK    5  A    between atoms: C_8  and  C_9
REMARK                            x       y       z     vdW  Elec       q    Type
REMARK                         _______ _______ _______ _____ _____    ______ ____
ROOT
ATOM      1  C   UNL     1       3.191  -1.269   0.556  0.00  0.00    +0.000 A 
ATOM      2  C   UNL     1       4.454  -1.793   0.790  0.00  0.00    +0.000 A 
ATOM      3  N   UNL     1       4.693  -2.893   1.546  0.00  0.00    +0.000 NA
ATOM      4  C   UNL     1       3.628  -3.511   2.132  0.00  0.00    +0.000 A 
ATOM      5  C   UNL     1       2.321  -3.060   1.939  0.00  0.00    +0.000 A 
ATOM      6 CL   UNL     1       0.947  -3.773   2.698  0.00  0.00    +0.000 Cl
ATOM      7  C   UNL     1       2.109  -1.946   1.126  0.00  0.00    +0.000 A 
ENDROOT
BRANCH   1   8
ATOM      8  C   UNL     1       2.990  -0.027  -0.262  0.00  0.00    +0.000 C 
BRANCH   8   9
ATOM      9  N   UNL     1       2.277   0.995   0.498  0.00  0.00    +0.000 NA
ATOM     10  H   UNL     1       2.198   1.842  -0.061  0.00  0.00    +0.000 HD
ATOM     11  H   UNL     1       2.824   1.246   1.321  0.00  0.00    +0.000 HD
ENDBRANCH   8   9
ENDBRANCH   1   8
BRANCH   4  12
ATOM     12  C   UNL     1       3.979  -4.669   3.043  0.00  0.00    +0.000 C 
BRANCH  12  13
ATOM     13  C   UNL     1       3.539  -6.038   2.504  0.00  0.00    +0.000 C 
BRANCH  13  14
ATOM     14  C   UNL     1       3.820  -7.222   3.407  0.00  0.00    +0.000 A 
ATOM     15  C   UNL     1       2.913  -8.288   3.434  0.00  0.00    +0.000 A 
ATOM     16  C   UNL     1       3.197  -9.396   4.222  0.00  0.00    +0.000 A 
ATOM     17  N   UNL     1       4.312  -9.520   4.970  0.00  0.00    +0.000 NA
ATOM     18  C   UNL     1       5.181  -8.490   4.923  0.00  0.00    +0.000 A 
ATOM     19  C   UNL     1       4.988  -7.341   4.167  0.00  0.00    +0.000 A 
ENDBRANCH  13  14
ENDBRANCH  12  13
ENDBRANCH   4  12
TORSDOF 5
