REMARK  Name = 
REMARK  5 active torsions:
REMARK  status: ('A' for Active; 'I' for Inactive)
REMARK    1  A    between atoms: C_2  and  C_4
REMARK    2  A    between atoms: C_7  and  N_8
REMARK    3  A    between atoms: N_8  and  C_9
REMARK    4  A    between atoms: C_9  and  C_10
REMARK    5  A    between atoms: C_14  and  C_15
REMARK                            x       y       z     vdW  Elec       q    Type
REMARK                         _______ _______ _______ _____ _____    ______ ____
ROOT
ATOM      1  N   UNL     1       5.038  -2.713  -3.915  0.00  0.00    +0.000 N 
ATOM      2  H   UNL     1       4.197  -2.420  -3.424  0.00  0.00    +0.000 HD
ENDROOT
BRANCH   1   6
ATOM      3  C   UNL     1       8.441  -0.989  -2.200  0.00  0.00    +0.000 A 
ATOM      4  C   UNL     1       8.583  -1.614  -3.430  0.00  0.00    +0.000 A 
ATOM      5  C   UNL     1       7.453  -2.185  -4.015  0.00  0.00    +0.000 A 
ATOM      6  C   UNL     1       6.208  -2.117  -3.391  0.00  0.00    +0.000 A 
ATOM      7  C   UNL     1       6.193  -1.491  -2.137  0.00  0.00    +0.000 A 
ATOM      8  N   UNL     1       7.259  -0.916  -1.528  0.00  0.00    +0.000 NA
BRANCH   3  10
ATOM      9  N   UNL     1       9.411   0.189  -0.316  0.00  0.00    +0.000 N 
ATOM     10  C   UNL     1       9.634  -0.359  -1.551  0.00  0.00    +0.000 C 
ATOM     11  O   UNL     1      10.739  -0.331  -2.077  0.00  0.00    +0.000 OA
ATOM     12  H   UNL     1      10.176   0.621   0.183  0.00  0.00    +0.000 HD
ATOM     13  H   UNL     1       8.487   0.136   0.095  0.00  0.00    +0.000 HD
ENDBRANCH   3  10
ENDBRANCH   1   6
BRANCH   1  14
ATOM     14  C   UNL     1       4.854  -2.980  -5.363  0.00  0.00    +0.000 C 
ATOM     15  C   UNL     1       4.914  -1.814  -6.335  0.00  0.00    +0.000 C 
ATOM     16  C   UNL     1       3.595  -2.442  -6.039  0.00  0.00    +0.000 C 
BRANCH  14  17
ATOM     17  C   UNL     1       5.261  -4.378  -5.825  0.00  0.00    +0.000 A 
ATOM     18  C   UNL     1       4.457  -5.501  -5.565  0.00  0.00    +0.000 A 
ATOM     19  C   UNL     1       4.773  -6.764  -6.076  0.00  0.00    +0.000 A 
ATOM     20  C   UNL     1       5.916  -6.935  -6.856  0.00  0.00    +0.000 A 
ATOM     21  C   UNL     1       6.751  -5.846  -7.123  0.00  0.00    +0.000 A 
ATOM     22  C   UNL     1       6.415  -4.588  -6.597  0.00  0.00    +0.000 A 
BRANCH  21  23
ATOM     23  C   UNL     1       7.983  -5.970  -7.981  0.00  0.00    +0.000 C 
ATOM     24  F   UNL     1       8.145  -7.199  -8.540  0.00  0.00    +0.000 F 
ATOM     25  F   UNL     1       7.976  -5.085  -9.019  0.00  0.00    +0.000 F 
ATOM     26  F   UNL     1       9.127  -5.715  -7.287  0.00  0.00    +0.000 F 
ENDBRANCH  21  23
ENDBRANCH  14  17
ENDBRANCH   1  14
TORSDOF 5
