REMARK  Name = 
REMARK  8 active torsions:
REMARK  status: ('A' for Active; 'I' for Inactive)
REMARK    1  A    between atoms: C_1  and  C_2
REMARK    2  A    between atoms: C_2  and  C_3
REMARK    3  A    between atoms: C_3  and  N_4
REMARK    4  A    between atoms: C_3  and  C_17
REMARK    5  A    between atoms: C_5  and  C_7
REMARK    6  A    between atoms: C_20  and  O_21
REMARK    7  A    between atoms: O_21  and  C_22
REMARK    8  A    between atoms: C_22  and  C_23
REMARK                            x       y       z     vdW  Elec       q    Type
REMARK                         _______ _______ _______ _____ _____    ______ ____
ROOT
ATOM      1  C   UNL     1       3.014  -0.630  -1.262  0.00  0.00    +0.000 C 
ENDROOT
BRANCH   1   2
ATOM      2  C   UNL     1       4.533  -0.605  -1.349  0.00  0.00    +0.000 A 
ATOM      3  C   UNL     1       5.267  -1.789  -1.492  0.00  0.00    +0.000 A 
ATOM      4  C   UNL     1       6.656  -1.742  -1.645  0.00  0.00    +0.000 A 
ATOM      5  C   UNL     1       7.323  -0.516  -1.678  0.00  0.00    +0.000 A 
ATOM      6  C   UNL     1       6.606   0.662  -1.477  0.00  0.00    +0.000 A 
ATOM      7  C   UNL     1       5.224   0.618  -1.328  0.00  0.00    +0.000 A 
BRANCH   5   8
ATOM      8  O   UNL     1       8.669  -0.568  -1.926  0.00  0.00    +0.000 OA
BRANCH   8   9
ATOM      9  C   UNL     1       9.211   0.635  -2.486  0.00  0.00    +0.000 C 
BRANCH   9  10
ATOM     10  C   UNL     1      10.515   0.379  -3.203  0.00  0.00    +0.000 A 
ATOM     11  C   UNL     1      11.425  -0.563  -2.734  0.00  0.00    +0.000 A 
ATOM     12  C   UNL     1      12.621  -0.741  -3.425  0.00  0.00    +0.000 A 
ATOM     13  C   UNL     1      12.884   0.034  -4.548  0.00  0.00    +0.000 A 
ATOM     14  C   UNL     1      11.938   0.964  -4.937  0.00  0.00    +0.000 A 
ATOM     15  N   UNL     1      10.768   1.158  -4.290  0.00  0.00    +0.000 NA
ENDBRANCH   9  10
ENDBRANCH   8   9
ENDBRANCH   5   8
ENDBRANCH   1   2
BRANCH   1  16
ATOM     16  N   UNL     1       2.490   0.059  -2.432  0.00  0.00    +0.000 N 
ATOM     17  C   UNL     1       1.254  -0.150  -2.975  0.00  0.00    +0.000 C 
ATOM     18  O   UNL     1       0.439  -0.927  -2.488  0.00  0.00    +0.000 OA
ATOM     19  H   UNL     1       3.162   0.604  -2.959  0.00  0.00    +0.000 HD
BRANCH  17  20
ATOM     20  C   UNL     1       0.938   0.666  -4.160  0.00  0.00    +0.000 A 
ATOM     21  C   UNL     1      -0.383   0.929  -4.491  0.00  0.00    +0.000 A 
ATOM     22  S   UNL     1      -0.558   1.924  -5.867  0.00  0.00    +0.000 S 
ATOM     23  C   UNL     1       1.127   1.997  -6.101  0.00  0.00    +0.000 A 
ATOM     24  N   UNL     1       1.663   2.683  -7.148  0.00  0.00    +0.000 NA
ATOM     25  C   UNL     1       2.949   2.617  -7.228  0.00  0.00    +0.000 A 
ATOM     26  N   UNL     1       3.753   1.938  -6.351  0.00  0.00    +0.000 N 
ATOM     27  C   UNL     1       3.261   1.292  -5.245  0.00  0.00    +0.000 A 
ATOM     28  O   UNL     1       4.018   0.799  -4.416  0.00  0.00    +0.000 OA
ATOM     29  C   UNL     1       1.814   1.294  -5.128  0.00  0.00    +0.000 A 
ATOM     30  H   UNL     1       4.758   1.948  -6.449  0.00  0.00    +0.000 HD
ENDBRANCH  17  20
ENDBRANCH   1  16
BRANCH   1  32
ATOM     31  C   UNL     1       3.007  -0.662   1.295  0.00  0.00    +0.000 C 
ATOM     32  C   UNL     1       2.508   0.034   0.034  0.00  0.00    +0.000 C 
ENDBRANCH   1  32
TORSDOF 7
