REMARK  Name = 
REMARK  7 active torsions:
REMARK  status: ('A' for Active; 'I' for Inactive)
REMARK    1  A    between atoms: N_1  and  C_2
REMARK    2  A    between atoms: C_2  and  C_3
REMARK    3  A    between atoms: C_6  and  O_7
REMARK    4  A    between atoms: O_7  and  C_8
REMARK    5  A    between atoms: C_8  and  C_9
REMARK    6  A    between atoms: CA_13  and  C_14
REMARK    7  A    between atoms: C_14  and  OXT_16
REMARK                            x       y       z     vdW  Elec       q    Type
REMARK                         _______ _______ _______ _____ _____    ______ ____
ROOT
ATOM      1  O   UNL     1       3.538  -3.786   3.950  0.00  0.00    +0.000 OA
ENDROOT
BRANCH   1   5
ATOM      2  C   UNL     1       2.740  -0.920   1.011  0.00  0.00    +0.000 A 
ATOM      3  C   UNL     1       3.122  -0.497   2.292  0.00  0.00    +0.000 A 
ATOM      4  C   UNL     1       3.398  -1.425   3.303  0.00  0.00    +0.000 A 
ATOM      5  C   UNL     1       3.286  -2.791   3.045  0.00  0.00    +0.000 A 
ATOM      6  C   UNL     1       2.940  -3.221   1.764  0.00  0.00    +0.000 A 
ATOM      7  C   UNL     1       2.659  -2.295   0.756  0.00  0.00    +0.000 A 
BRANCH   2   8
ATOM      8  C   UNL     1       2.394   0.083  -0.060  0.00  0.00    +0.000 C 
BRANCH   8   9
ATOM      9  N   UNL     1       3.500   0.994  -0.331  0.00  0.00    +0.000 NA
ATOM     10  H   UNL     1       3.267   1.565  -1.140  0.00  0.00    +0.000 HD
ATOM     11  H   UNL     1       4.319   0.445  -0.593  0.00  0.00    +0.000 HD
ENDBRANCH   8   9
ENDBRANCH   2   8
ENDBRANCH   1   5
BRANCH   1  12
ATOM     12  C   UNL     1       3.201  -3.475   5.306  0.00  0.00    +0.000 C 
BRANCH  12  13
ATOM     13  C   UNL     1       3.415  -4.697   6.177  0.00  0.00    +0.000 A 
ATOM     14  N   UNL     1       4.312  -4.588   7.182  0.00  0.00    +0.000 NA
ATOM     15  C   UNL     1       4.512  -5.668   7.961  0.00  0.00    +0.000 A 
ATOM     16  C   UNL     1       3.849  -6.852   7.789  0.00  0.00    +0.000 A 
ATOM     17  CA  UNL     1       2.949  -6.863   6.749  0.00  0.00    +0.000 A 
ATOM     18  N   UNL     1       2.696  -5.810   5.926  0.00  0.00    +0.000 NA
BRANCH  17  19
ATOM     19  C   UNL     1       2.173  -8.103   6.464  0.00  0.00    +0.000 C 
ATOM     20  O   UNL     1       2.247  -9.133   7.112  0.00  0.00    +0.000 OA
BRANCH  19  21
ATOM     21  OXT UNL     1       1.371  -7.932   5.387  0.00  0.00    +0.000 OA
ATOM     22  HXT UNL     1       1.498  -7.020   5.032  0.00  0.00    +0.000 HD
ENDBRANCH  19  21
ENDBRANCH  17  19
ENDBRANCH  12  13
ENDBRANCH   1  12
TORSDOF 7
