REMARK  Name = 
REMARK  6 active torsions:
REMARK  status: ('A' for Active; 'I' for Inactive)
REMARK    1  A    between atoms: C_2  and  C_3
REMARK    2  A    between atoms: N_7  and  C_8
REMARK    3  A    between atoms: C_8  and  C_9
REMARK    4  A    between atoms: C_9  and  C_12
REMARK    5  A    between atoms: C_16  and  N_17
REMARK    6  A    between atoms: N_17  and  C_18
REMARK                            x       y       z     vdW  Elec       q    Type
REMARK                         _______ _______ _______ _____ _____    ______ ____
ROOT
ATOM      1  C   UNL     1      -5.854   1.118  -0.276  0.00  0.00    +0.000 C 
ATOM      2  F   UNL     1      -6.386   0.157   0.535  0.00  0.00    +0.000 F 
ATOM      3  F   UNL     1      -4.562   1.271   0.152  0.00  0.00    +0.000 F 
ENDROOT
BRANCH   1   4
ATOM      4  C   UNL     1      -6.635   2.417  -0.199  0.00  0.00    +0.000 A 
ATOM      5  C   UNL     1      -8.026   2.408  -0.039  0.00  0.00    +0.000 A 
ATOM      6  C   UNL     1      -8.736   3.608   0.020  0.00  0.00    +0.000 A 
ATOM      7  C   UNL     1      -8.067   4.832  -0.089  0.00  0.00    +0.000 A 
ATOM      8  C   UNL     1      -6.681   4.867  -0.236  0.00  0.00    +0.000 A 
ATOM      9  C   UNL     1      -5.977   3.654  -0.300  0.00  0.00    +0.000 A 
BRANCH   8  10
ATOM     10  N   UNL     1      -5.943   6.063  -0.360  0.00  0.00    +0.000 N 
ATOM     11  H   UNL     1      -5.197   6.075   0.336  0.00  0.00    +0.000 HD
BRANCH  10  12
ATOM     12  C   UNL     1      -6.469   7.374  -0.631  0.00  0.00    +0.000 C 
ATOM     13  C   UNL     1      -6.916   7.583  -2.087  0.00  0.00    +0.000 C 
ATOM     14  O   UNL     1      -6.053   8.742  -2.226  0.00  0.00    +0.000 OA
ATOM     15  C   UNL     1      -5.368   8.385  -0.999  0.00  0.00    +0.000 C 
ENDBRANCH  10  12
ENDBRANCH   8  10
ENDBRANCH   1   4
BRANCH   1  16
ATOM     16  C   UNL     1      -5.828   0.581  -1.730  0.00  0.00    +0.000 C 
BRANCH  16  21
ATOM     17  C   UNL     1      -4.393  -2.712  -5.418  0.00  0.00    +0.000 A 
ATOM     18  C   UNL     1      -5.177  -1.567  -5.465  0.00  0.00    +0.000 A 
ATOM     19  C   UNL     1      -5.424  -0.863  -4.285  0.00  0.00    +0.000 A 
ATOM     20  C   UNL     1      -4.890  -1.312  -3.080  0.00  0.00    +0.000 A 
ATOM     21  N   UNL     1      -5.107  -0.683  -1.888  0.00  0.00    +0.000 N 
ATOM     22  N   UNL     1      -4.127  -2.421  -3.030  0.00  0.00    +0.000 NA
ATOM     23  C   UNL     1      -3.894  -3.094  -4.186  0.00  0.00    +0.000 A 
ATOM     24  H   UNL     1      -4.642  -1.105  -1.086  0.00  0.00    +0.000 HD
BRANCH  17  26
ATOM     25  N   UNL     1      -3.901  -4.084  -7.557  0.00  0.00    +0.000 NA
ATOM     26  C   UNL     1      -4.117  -3.470  -6.596  0.00  0.00    +0.000 C 
ENDBRANCH  17  26
ENDBRANCH  16  21
ENDBRANCH   1  16
TORSDOF 6
