REMARK  Name = 
REMARK  12 active torsions:
REMARK  status: ('A' for Active; 'I' for Inactive)
REMARK    1  A    between atoms: C_1  and  C_2
REMARK    2  A    between atoms: C_2  and  N_3
REMARK    3  A    between atoms: C_2  and  C_20
REMARK    4  A    between atoms: N_3  and  C_4
REMARK    5  A    between atoms: C_4  and  C_5
REMARK    6  A    between atoms: C_8  and  C_9
REMARK    7  A    between atoms: C_9  and  O_10
REMARK    8  A    between atoms: C_9  and  C_11
REMARK    9  A    between atoms: C_11  and  N_12
REMARK   10  A    between atoms: N_12  and  C_13
REMARK   11  A    between atoms: C_20  and  C_22
REMARK   12  A    between atoms: N_28  and  C_29
REMARK                            x       y       z     vdW  Elec       q    Type
REMARK                         _______ _______ _______ _____ _____    ______ ____
ROOT
ATOM      1  C   UNL     1      -3.234   6.994 -13.063  0.00  0.00    +0.000 C 
ENDROOT
BRANCH   1   2
ATOM      2  C   UNL     1      -1.877   6.337 -12.937  0.00  0.00    +0.000 A 
ATOM      3  C   UNL     1      -1.316   6.090 -11.676  0.00  0.00    +0.000 A 
ATOM      4  C   UNL     1      -0.045   5.523 -11.559  0.00  0.00    +0.000 A 
ATOM      5  C   UNL     1       0.690   5.181 -12.701  0.00  0.00    +0.000 A 
ATOM      6  C   UNL     1       0.110   5.395 -13.961  0.00  0.00    +0.000 A 
ATOM      7  C   UNL     1      -1.157   5.968 -14.079  0.00  0.00    +0.000 A 
BRANCH   5   8
ATOM      8  C   UNL     1       2.094   4.627 -12.560  0.00  0.00    +0.000 C 
BRANCH   8   9
ATOM      9  O   UNL     1       2.164   3.302 -13.096  0.00  0.00    +0.000 OA
ATOM     10  H   UNL     1       1.526   3.237 -13.825  0.00  0.00    +0.000 HD
ENDBRANCH   8   9
BRANCH   8  11
ATOM     11  C   UNL     1       3.163   5.509 -13.267  0.00  0.00    +0.000 C 
BRANCH  11  12
ATOM     12  N   UNL     1       3.289   6.910 -12.819  0.00  0.00    +0.000 NA
ATOM     13  H   UNL     1       2.381   7.357 -12.942  0.00  0.00    +0.000 HD
BRANCH  12  14
ATOM     14  C   UNL     1       3.660   7.030 -11.423  0.00  0.00    +0.000 C 
ATOM     15  C   UNL     1       5.037   6.488 -11.062  0.00  0.00    +0.000 C 
ATOM     16  C   UNL     1       5.980   7.557 -11.570  0.00  0.00    +0.000 C 
ATOM     17  C   UNL     1       5.189   8.841 -11.386  0.00  0.00    +0.000 C 
ATOM     18  N   UNL     1       3.789   8.454 -11.165  0.00  0.00    +0.000 NA
ATOM     19  H   UNL     1       3.185   8.973 -11.794  0.00  0.00    +0.000 HD
ENDBRANCH  12  14
ENDBRANCH  11  12
ENDBRANCH   8  11
ENDBRANCH   5   8
ENDBRANCH   1   2
BRANCH   1  20
ATOM     20  N   UNL     1      -3.198   8.347 -12.498  0.00  0.00    +0.000 NA
ATOM     21  H   UNL     1      -2.914   8.278 -11.521  0.00  0.00    +0.000 HD
BRANCH  20  23
ATOM     22  C   UNL     1      -5.589   8.372 -11.754  0.00  0.00    +0.000 C 
ATOM     23  C   UNL     1      -4.487   9.069 -12.557  0.00  0.00    +0.000 C 
BRANCH  23  24
ATOM     24  C   UNL     1      -4.923   9.365 -14.012  0.00  0.00    +0.000 C 
ATOM     25  O   UNL     1      -6.076   9.138 -14.382  0.00  0.00    +0.000 OA
BRANCH  24  26
ATOM     26  C   UNL     1      -3.967  10.013 -14.927  0.00  0.00    +0.000 A 
ATOM     27  C   UNL     1      -3.082  10.997 -14.515  0.00  0.00    +0.000 A 
ATOM     28  S   UNL     1      -2.125  11.606 -15.795  0.00  0.00    +0.000 S 
ATOM     29  C   UNL     1      -2.834  10.537 -16.914  0.00  0.00    +0.000 A 
ATOM     30  N   UNL     1      -2.422  10.509 -18.206  0.00  0.00    +0.000 NA
ATOM     31  C   UNL     1      -3.010   9.614 -18.932  0.00  0.00    +0.000 A 
ATOM     32  N   UNL     1      -3.990   8.744 -18.498  0.00  0.00    +0.000 N 
ATOM     33  C   UNL     1      -4.530   7.746 -19.396  0.00  0.00    +0.000 C 
ATOM     34  C   UNL     1      -4.445   8.747 -17.178  0.00  0.00    +0.000 A 
ATOM     35  O   UNL     1      -5.267   7.936 -16.763  0.00  0.00    +0.000 OA
ATOM     36  C   UNL     1      -3.802   9.742 -16.332  0.00  0.00    +0.000 A 
ENDBRANCH  24  26
ENDBRANCH  23  24
ENDBRANCH  20  23
ENDBRANCH   1  20
TORSDOF 10
