REMARK  Name = 
REMARK  5 active torsions:
REMARK  status: ('A' for Active; 'I' for Inactive)
REMARK    1  A    between atoms: N_1  and  C_2
REMARK    2  A    between atoms: C_2  and  C_3
REMARK    3  A    between atoms: C_6  and  O_7
REMARK    4  A    between atoms: O_7  and  C_8
REMARK    5  A    between atoms: C_8  and  C_9
REMARK                            x       y       z     vdW  Elec       q    Type
REMARK                         _______ _______ _______ _____ _____    ______ ____
ROOT
ATOM      1  C   UNL     1       2.821  -0.915   0.946  0.00  0.00    +0.000 A 
ATOM      2  C   UNL     1       3.226  -0.598   2.251  0.00  0.00    +0.000 A 
ATOM      3  C   UNL     1       3.490  -1.610   3.178  0.00  0.00    +0.000 A 
ATOM      4  C   UNL     1       3.337  -2.948   2.817  0.00  0.00    +0.000 A 
ATOM      5  C   UNL     1       2.998  -3.271   1.503  0.00  0.00    +0.000 A 
ATOM      6  C   UNL     1       2.729  -2.262   0.578  0.00  0.00    +0.000 A 
ENDROOT
BRANCH   1   7
ATOM      7  C   UNL     1       2.462   0.165  -0.041  0.00  0.00    +0.000 C 
BRANCH   7   8
ATOM      8  N   UNL     1       3.584   1.057  -0.297  0.00  0.00    +0.000 NA
ATOM      9  H   UNL     1       3.351   1.661  -1.083  0.00  0.00    +0.000 HD
ATOM     10  H   UNL     1       4.384   0.500  -0.589  0.00  0.00    +0.000 HD
ENDBRANCH   7   8
ENDBRANCH   1   7
BRANCH   4  11
ATOM     11  O   UNL     1       3.534  -3.863   3.817  0.00  0.00    +0.000 OA
BRANCH  11  12
ATOM     12  C   UNL     1       2.870  -5.112   3.616  0.00  0.00    +0.000 C 
BRANCH  12  13
ATOM     13  C   UNL     1       2.648  -5.794   4.942  0.00  0.00    +0.000 A 
ATOM     14  C   UNL     1       1.934  -5.143   5.959  0.00  0.00    +0.000 A 
ATOM     15  C   UNL     1       1.662  -5.792   7.163  0.00  0.00    +0.000 A 
ATOM     16  C   UNL     1       2.099  -7.102   7.360  0.00  0.00    +0.000 A 
ATOM     17  C   UNL     1       2.810  -7.755   6.355  0.00  0.00    +0.000 A 
ATOM     18 CL   UNL     1       3.335  -9.375   6.592  0.00  0.00    +0.000 Cl
ATOM     19  C   UNL     1       3.083  -7.110   5.148  0.00  0.00    +0.000 A 
ENDBRANCH  12  13
ENDBRANCH  11  12
ENDBRANCH   4  11
TORSDOF 5
