REMARK  Name = 
REMARK  5 active torsions:
REMARK  status: ('A' for Active; 'I' for Inactive)
REMARK    1  A    between atoms: C_2  and  C_18
REMARK    2  A    between atoms: N_3  and  C_4
REMARK    3  A    between atoms: C_4  and  C_5
REMARK    4  A    between atoms: C_8  and  O_9
REMARK    5  A    between atoms: O_9  and  C_10
REMARK                            x       y       z     vdW  Elec       q    Type
REMARK                         _______ _______ _______ _____ _____    ______ ____
ROOT
ATOM      1  O   UNL     1       2.867  -2.199  -0.860  0.00  0.00    +0.000 OA
ATOM      2  C   UNL     1       3.187  -1.080  -0.475  0.00  0.00    +0.000 C 
ATOM      3  N   UNL     1       2.831   0.063  -1.143  0.00  0.00    +0.000 N 
ATOM      4  H   UNL     1       3.271   0.940  -0.894  0.00  0.00    +0.000 HD
ENDROOT
BRANCH   2   5
ATOM      5  C   UNL     1       3.938  -0.888   0.773  0.00  0.00    +0.000 A 
ATOM      6  C   UNL     1       3.917  -1.877   1.746  0.00  0.00    +0.000 A 
ATOM      7  S   UNL     1       4.829  -1.491   3.134  0.00  0.00    +0.000 S 
ATOM      8  C   UNL     1       5.324  -0.007   2.463  0.00  0.00    +0.000 A 
ATOM      9  N   UNL     1       6.169   0.818   3.138  0.00  0.00    +0.000 NA
ATOM     10  C   UNL     1       6.499   1.887   2.493  0.00  0.00    +0.000 A 
ATOM     11  N   UNL     1       6.049   2.213   1.240  0.00  0.00    +0.000 N 
ATOM     12  C   UNL     1       5.132   1.452   0.557  0.00  0.00    +0.000 A 
ATOM     13  O   UNL     1       4.642   1.844  -0.497  0.00  0.00    +0.000 OA
ATOM     14  C   UNL     1       4.772   0.207   1.212  0.00  0.00    +0.000 A 
ATOM     15  H   UNL     1       6.318   3.083   0.805  0.00  0.00    +0.000 HD
ENDBRANCH   2   5
BRANCH   3  16
ATOM     16  C   UNL     1       2.172   0.035  -2.425  0.00  0.00    +0.000 C 
BRANCH  16  17
ATOM     17  C   UNL     1       3.174   0.115  -3.546  0.00  0.00    +0.000 A 
ATOM     18  C   UNL     1       3.767  -1.058  -4.029  0.00  0.00    +0.000 A 
ATOM     19  C   UNL     1       4.688  -1.005  -5.075  0.00  0.00    +0.000 A 
ATOM     20  C   UNL     1       5.000   0.216  -5.677  0.00  0.00    +0.000 A 
ATOM     21  C   UNL     1       4.463   1.394  -5.158  0.00  0.00    +0.000 A 
ATOM     22  C   UNL     1       3.558   1.346  -4.095  0.00  0.00    +0.000 A 
BRANCH  20  23
ATOM     23  O   UNL     1       5.882   0.348  -6.727  0.00  0.00    +0.000 OA
BRANCH  23  24
ATOM     24  C   UNL     1       5.907  -0.646  -7.695  0.00  0.00    +0.000 A 
ATOM     25  C   UNL     1       7.081  -0.805  -8.417  0.00  0.00    +0.000 A 
ATOM     26  N   UNL     1       7.235  -1.769  -9.361  0.00  0.00    +0.000 NA
ATOM     27  C   UNL     1       6.155  -2.560  -9.554  0.00  0.00    +0.000 A 
ATOM     28  C   UNL     1       4.972  -2.384  -8.856  0.00  0.00    +0.000 A 
ATOM     29  N   UNL     1       4.816  -1.416  -7.928  0.00  0.00    +0.000 NA
ENDBRANCH  23  24
ENDBRANCH  20  23
ENDBRANCH  16  17
ENDBRANCH   3  16
TORSDOF 5
