REMARK  Name = 
REMARK  8 active torsions:
REMARK  status: ('A' for Active; 'I' for Inactive)
REMARK    1  A    between atoms: C_2  and  C_3
REMARK    2  A    between atoms: C_3  and  N_4
REMARK    3  A    between atoms: C_3  and  C_26
REMARK    4  A    between atoms: N_4  and  C_5
REMARK    5  A    between atoms: C_5  and  C_6
REMARK    6  A    between atoms: C_9  and  C_10
REMARK    7  A    between atoms: C_10  and  N_11
REMARK    8  A    between atoms: C_12  and  C_14
REMARK                            x       y       z     vdW  Elec       q    Type
REMARK                         _______ _______ _______ _____ _____    ______ ____
ROOT
ATOM      1  C   UNL     1       4.219  -2.467  -2.914  0.00  0.00    +0.000 A 
ATOM      2  C   UNL     1       4.681  -1.597  -3.899  0.00  0.00    +0.000 A 
ATOM      3  C   UNL     1       5.037  -2.111  -5.144  0.00  0.00    +0.000 A 
ATOM      4  C   UNL     1       4.946  -3.484  -5.380  0.00  0.00    +0.000 A 
ATOM      5  C   UNL     1       4.465  -4.275  -4.342  0.00  0.00    +0.000 A 
ATOM      6  N   UNL     1       4.103  -3.804  -3.123  0.00  0.00    +0.000 NA
ENDROOT
BRANCH   1   7
ATOM      7  C   UNL     1       3.799  -1.935  -1.555  0.00  0.00    +0.000 C 
BRANCH   7   8
ATOM      8  N   UNL     1       4.657  -2.447  -0.476  0.00  0.00    +0.000 NA
ATOM      9  H   UNL     1       4.583  -3.468  -0.493  0.00  0.00    +0.000 HD
BRANCH   8  10
ATOM     10  C   UNL     1       4.227  -1.966   0.864  0.00  0.00    +0.000 C 
BRANCH  10  11
ATOM     11  C   UNL     1       5.087  -2.595   1.962  0.00  0.00    +0.000 A 
ATOM     12  C   UNL     1       6.462  -2.345   2.024  0.00  0.00    +0.000 A 
ATOM     13  C   UNL     1       7.211  -2.920   3.047  0.00  0.00    +0.000 A 
ATOM     14  C   UNL     1       6.579  -3.736   3.975  0.00  0.00    +0.000 A 
ATOM     15  C   UNL     1       5.218  -3.949   3.837  0.00  0.00    +0.000 A 
ATOM     16  N   UNL     1       4.461  -3.401   2.858  0.00  0.00    +0.000 NA
ENDBRANCH  10  11
BRANCH  10  18
ATOM     17  N   UNL     1       4.400   0.804   1.046  0.00  0.00    +0.000 NA
ATOM     18  C   UNL     1       4.322  -0.452   0.964  0.00  0.00    +0.000 C 
ENDBRANCH  10  18
ENDBRANCH   8  10
ENDBRANCH   7   8
ENDBRANCH   1   7
BRANCH   4  19
ATOM     19  C   UNL     1       5.271  -4.069  -6.723  0.00  0.00    +0.000 C 
BRANCH  19  20
ATOM     20  N   UNL     1       4.097  -4.076  -7.560  0.00  0.00    +0.000 N 
ATOM     21  C   UNL     1       4.074  -4.681  -8.789  0.00  0.00    +0.000 C 
ATOM     22  O   UNL     1       5.040  -5.293  -9.236  0.00  0.00    +0.000 OA
ATOM     23  H   UNL     1       3.389  -3.384  -7.343  0.00  0.00    +0.000 HD
BRANCH  21  24
ATOM     24  C   UNL     1       2.795  -4.617  -9.509  0.00  0.00    +0.000 A 
ATOM     25  C   UNL     1       2.502  -5.556 -10.488  0.00  0.00    +0.000 A 
ATOM     26  S   UNL     1       0.935  -5.393 -11.143  0.00  0.00    +0.000 S 
ATOM     27  C   UNL     1       0.613  -4.027 -10.181  0.00  0.00    +0.000 A 
ATOM     28  N   UNL     1      -0.583  -3.382 -10.254  0.00  0.00    +0.000 NA
ATOM     29  C   UNL     1      -0.678  -2.344  -9.492  0.00  0.00    +0.000 A 
ATOM     30  N   UNL     1       0.317  -1.887  -8.667  0.00  0.00    +0.000 N 
ATOM     31  C   UNL     1       1.532  -2.515  -8.547  0.00  0.00    +0.000 A 
ATOM     32  O   UNL     1       2.393  -2.092  -7.781  0.00  0.00    +0.000 OA
ATOM     33  C   UNL     1       1.688  -3.697  -9.375  0.00  0.00    +0.000 A 
ATOM     34  H   UNL     1       0.181  -1.065  -8.098  0.00  0.00    +0.000 HD
ENDBRANCH  21  24
ENDBRANCH  19  20
ENDBRANCH   4  19
TORSDOF 8
