REMARK  Name = 
REMARK  6 active torsions:
REMARK  status: ('A' for Active; 'I' for Inactive)
REMARK    1  A    between atoms: N_1  and  C_2
REMARK    2  A    between atoms: C_2  and  C_3
REMARK    3  A    between atoms: C_3  and  C_4
REMARK    4  A    between atoms: C_7  and  O_8
REMARK    5  A    between atoms: O_8  and  C_9
REMARK    6  A    between atoms: C_9  and  C_10
REMARK                            x       y       z     vdW  Elec       q    Type
REMARK                         _______ _______ _______ _____ _____    ______ ____
ROOT
ATOM      1  C   UNL     1       4.395   1.007  -1.095  0.00  0.00    +0.000 A 
ATOM      2  C   UNL     1       5.065   1.124  -2.317  0.00  0.00    +0.000 A 
ATOM      3  C   UNL     1       6.460   1.123  -2.358  0.00  0.00    +0.000 A 
ATOM      4  C   UNL     1       7.201   0.983  -1.182  0.00  0.00    +0.000 A 
ATOM      5  C   UNL     1       6.542   0.929   0.045  0.00  0.00    +0.000 A 
ATOM      6  C   UNL     1       5.150   0.939   0.079  0.00  0.00    +0.000 A 
ATOM      7  F   UNL     1       4.530   0.866   1.266  0.00  0.00    +0.000 F 
ENDROOT
BRANCH   1   8
ATOM      8  C   UNL     1       2.891   0.971  -1.060  0.00  0.00    +0.000 C 
BRANCH   8   9
ATOM      9  C   UNL     1       2.290   2.375  -0.969  0.00  0.00    +0.000 C 
BRANCH   9  10
ATOM     10  N   UNL     1       0.829   2.317  -0.998  0.00  0.00    +0.000 NA
ATOM     11  H   UNL     1       0.456   3.263  -0.924  0.00  0.00    +0.000 HD
ATOM     12  H   UNL     1       0.495   1.817  -0.174  0.00  0.00    +0.000 HD
ENDBRANCH   9  10
ENDBRANCH   8   9
ENDBRANCH   1   8
BRANCH   4  13
ATOM     13  O   UNL     1       8.567   0.889  -1.129  0.00  0.00    +0.000 OA
BRANCH  13  14
ATOM     14  C   UNL     1       9.186   0.451  -2.342  0.00  0.00    +0.000 C 
BRANCH  14  15
ATOM     15  C   UNL     1      10.546  -0.111  -2.050  0.00  0.00    +0.000 A 
ATOM     16  C   UNL     1      10.721  -1.161  -1.145  0.00  0.00    +0.000 A 
ATOM     17  C   UNL     1      11.986  -1.708  -0.958  0.00  0.00    +0.000 A 
ATOM     18  C   UNL     1      13.039  -1.184  -1.691  0.00  0.00    +0.000 A 
ATOM     19  N   UNL     1      12.910  -0.173  -2.575  0.00  0.00    +0.000 NA
ATOM     20  C   UNL     1      11.669   0.340  -2.736  0.00  0.00    +0.000 A 
ENDBRANCH  14  15
ENDBRANCH  13  14
ENDBRANCH   4  13
TORSDOF 6
