REMARK  Name = 
REMARK  6 active torsions:
REMARK  status: ('A' for Active; 'I' for Inactive)
REMARK    1  A    between atoms: C_2  and  C_25
REMARK    2  A    between atoms: N_3  and  C_4
REMARK    3  A    between atoms: C_4  and  C_5
REMARK    4  A    between atoms: C_8  and  C_9
REMARK    5  A    between atoms: C_9  and  N_10
REMARK    6  A    between atoms: C_11  and  C_13
REMARK                            x       y       z     vdW  Elec       q    Type
REMARK                         _______ _______ _______ _____ _____    ______ ____
ROOT
ATOM      1  C   UNL     1       3.200  -3.203  -1.572  0.00  0.00    +0.000 A 
ATOM      2  C   UNL     1       4.459  -2.857  -2.082  0.00  0.00    +0.000 A 
ATOM      3  C   UNL     1       5.346  -3.845  -2.528  0.00  0.00    +0.000 A 
ATOM      4  C   UNL     1       4.984  -5.198  -2.492  0.00  0.00    +0.000 A 
ATOM      5  C   UNL     1       3.725  -5.543  -1.984  0.00  0.00    +0.000 A 
ATOM      6  C   UNL     1       2.838  -4.556  -1.540  0.00  0.00    +0.000 A 
ENDROOT
BRANCH   1   7
ATOM      7  C   UNL     1       2.245  -2.139  -1.094  0.00  0.00    +0.000 C 
BRANCH   7  10
ATOM      8  O   UNL     1       0.157  -0.291  -0.841  0.00  0.00    +0.000 OA
ATOM      9  C   UNL     1       0.404  -0.753  -1.950  0.00  0.00    +0.000 C 
ATOM     10  N   UNL     1       1.404  -1.669  -2.168  0.00  0.00    +0.000 N 
ATOM     11  H   UNL     1       1.674  -1.899  -3.113  0.00  0.00    +0.000 HD
BRANCH   9  12
ATOM     12  C   UNL     1      -0.328  -0.359  -3.125  0.00  0.00    +0.000 A 
ATOM     13  C   UNL     1      -0.339  -0.828  -4.424  0.00  0.00    +0.000 A 
ATOM     14  N   UNL     1      -1.220  -0.124  -5.204  0.00  0.00    +0.000 NA
ATOM     15  C   UNL     1      -1.759   0.761  -4.397  0.00  0.00    +0.000 A 
ATOM     16  N   UNL     1      -1.264   0.653  -3.134  0.00  0.00    +0.000 N 
ATOM     17  H   UNL     1      -1.521   1.214  -2.334  0.00  0.00    +0.000 HD
ENDBRANCH   9  12
ENDBRANCH   7  10
ENDBRANCH   1   7
BRANCH   4  18
ATOM     18  C   UNL     1       5.944  -6.270  -2.946  0.00  0.00    +0.000 C 
BRANCH  18  19
ATOM     19  N   UNL     1       6.769  -6.725  -1.855  0.00  0.00    +0.000 N 
ATOM     20  C   UNL     1       7.776  -7.637  -2.047  0.00  0.00    +0.000 C 
ATOM     21  O   UNL     1       8.054  -8.073  -3.161  0.00  0.00    +0.000 OA
ATOM     22  H   UNL     1       6.415  -6.566  -0.917  0.00  0.00    +0.000 HD
BRANCH  20  23
ATOM     23  C   UNL     1       8.550  -8.018  -0.859  0.00  0.00    +0.000 A 
ATOM     24  C   UNL     1       9.836  -8.523  -1.005  0.00  0.00    +0.000 A 
ATOM     25  S   UNL     1      10.615  -8.853   0.476  0.00  0.00    +0.000 S 
ATOM     26  C   UNL     1       9.240  -8.388   1.364  0.00  0.00    +0.000 A 
ATOM     27  N   UNL     1       9.232  -8.452   2.724  0.00  0.00    +0.000 NA
ATOM     28  C   UNL     1       8.115  -8.102   3.267  0.00  0.00    +0.000 A 
ATOM     29  N   UNL     1       7.005  -7.689   2.574  0.00  0.00    +0.000 N 
ATOM     30  C   UNL     1       6.978  -7.579   1.206  0.00  0.00    +0.000 A 
ATOM     31  O   UNL     1       5.983  -7.165   0.621  0.00  0.00    +0.000 OA
ATOM     32  C   UNL     1       8.207  -7.971   0.543  0.00  0.00    +0.000 A 
ATOM     33  H   UNL     1       6.162  -7.423   3.060  0.00  0.00    +0.000 HD
ENDBRANCH  20  23
ENDBRANCH  18  19
ENDBRANCH   4  18
TORSDOF 6
