REMARK  Name = 
REMARK  5 active torsions:
REMARK  status: ('A' for Active; 'I' for Inactive)
REMARK    1  A    between atoms: C_2  and  C_18
REMARK    2  A    between atoms: N_3  and  C_4
REMARK    3  A    between atoms: C_4  and  C_5
REMARK    4  A    between atoms: N_8  and  C_9
REMARK    5  A    between atoms: C_9  and  C_10
REMARK                            x       y       z     vdW  Elec       q    Type
REMARK                         _______ _______ _______ _____ _____    ______ ____
ROOT
ATOM      1  O   UNL     1      -0.362   0.186   3.452  0.00  0.00    +0.000 OA
ATOM      2  C   UNL     1      -0.055   1.188   2.820  0.00  0.00    +0.000 C 
ATOM      3  N   UNL     1       1.198   1.377   2.270  0.00  0.00    +0.000 N 
ATOM      4  H   UNL     1       1.416   2.268   1.850  0.00  0.00    +0.000 HD
ENDROOT
BRANCH   2   5
ATOM      5  C   UNL     1      -1.008   2.263   2.533  0.00  0.00    +0.000 A 
ATOM      6  C   UNL     1      -1.025   2.964   1.336  0.00  0.00    +0.000 A 
ATOM      7  S   UNL     1      -2.300   4.094   1.229  0.00  0.00    +0.000 S 
ATOM      8  C   UNL     1      -2.883   3.668   2.769  0.00  0.00    +0.000 A 
ATOM      9  N   UNL     1      -3.998   4.253   3.284  0.00  0.00    +0.000 NA
ATOM     10  C   UNL     1      -4.338   3.814   4.449  0.00  0.00    +0.000 A 
ATOM     11  N   UNL     1      -3.653   2.858   5.155  0.00  0.00    +0.000 N 
ATOM     12  C   UNL     1      -2.463   2.312   4.720  0.00  0.00    +0.000 A 
ATOM     13  O   UNL     1      -1.779   1.622   5.468  0.00  0.00    +0.000 OA
ATOM     14  C   UNL     1      -2.095   2.708   3.374  0.00  0.00    +0.000 A 
ATOM     15  H   UNL     1      -3.931   2.605   6.092  0.00  0.00    +0.000 HD
ENDBRANCH   2   5
BRANCH   3  16
ATOM     16  C   UNL     1       2.264   0.400   2.396  0.00  0.00    +0.000 C 
BRANCH  16  17
ATOM     17  C   UNL     1       3.186   0.679   3.596  0.00  0.00    +0.000 C 
ATOM     18  C   UNL     1       3.903   2.032   3.513  0.00  0.00    +0.000 C 
ATOM     19  C   UNL     1       4.919   2.083   2.370  0.00  0.00    +0.000 C 
ATOM     20  N   UNL     1       5.917   1.010   2.438  0.00  0.00    +0.000 NA
ATOM     21  C   UNL     1       5.337  -0.328   2.651  0.00  0.00    +0.000 C 
ATOM     22  C   UNL     1       4.262  -0.402   3.742  0.00  0.00    +0.000 C 
BRANCH  20  23
ATOM     23  C   UNL     1       6.769   0.981   1.212  0.00  0.00    +0.000 C 
BRANCH  23  24
ATOM     24  C   UNL     1       7.682   2.225   1.005  0.00  0.00    +0.000 C 
ATOM     25  C   UNL     1       8.579   2.055  -0.236  0.00  0.00    +0.000 C 
ATOM     26  C   UNL     1       9.583   3.201  -0.378  0.00  0.00    +0.000 C 
ATOM     27  C   UNL     1      10.327   3.441   0.933  0.00  0.00    +0.000 C 
ATOM     28  C   UNL     1       9.347   3.618   2.089  0.00  0.00    +0.000 C 
ATOM     29  N   UNL     1       8.502   2.438   2.207  0.00  0.00    +0.000 NA
ATOM     30  H   UNL     1       7.875   2.502   3.011  0.00  0.00    +0.000 HD
ENDBRANCH  23  24
ENDBRANCH  20  23
ENDBRANCH  16  17
ENDBRANCH   3  16
TORSDOF 5
