REMARK  Name = 
REMARK  6 active torsions:
REMARK  status: ('A' for Active; 'I' for Inactive)
REMARK    1  A    between atoms: C_2  and  C_4
REMARK    2  A    between atoms: N_8  and  C_9
REMARK    3  A    between atoms: C_9  and  C_10
REMARK    4  A    between atoms: C_10  and  C_13
REMARK    5  A    between atoms: C_18  and  O_19
REMARK    6  A    between atoms: O_19  and  C_20
REMARK                            x       y       z     vdW  Elec       q    Type
REMARK                         _______ _______ _______ _____ _____    ______ ____
ROOT
ATOM      1  C   UNL     1       6.110  -5.105  -4.958  0.00  0.00    +0.000 C 
ATOM      2  F   UNL     1       7.383  -4.627  -4.785  0.00  0.00    +0.000 F 
ATOM      3  F   UNL     1       6.057  -6.239  -4.195  0.00  0.00    +0.000 F 
ENDROOT
BRANCH   1   4
ATOM      4  C   UNL     1       5.808  -5.407  -6.415  0.00  0.00    +0.000 A 
ATOM      5  C   UNL     1       4.887  -6.413  -6.747  0.00  0.00    +0.000 A 
ATOM      6  C   UNL     1       4.591  -6.687  -8.082  0.00  0.00    +0.000 A 
ATOM      7  C   UNL     1       5.217  -5.967  -9.098  0.00  0.00    +0.000 A 
ATOM      8  F   UNL     1       4.885  -6.252 -10.364  0.00  0.00    +0.000 F 
ATOM      9  C   UNL     1       6.147  -4.973  -8.795  0.00  0.00    +0.000 A 
ATOM     10  C   UNL     1       6.432  -4.692  -7.452  0.00  0.00    +0.000 A 
BRANCH   9  11
ATOM     11  O   UNL     1       6.814  -4.191  -9.706  0.00  0.00    +0.000 OA
BRANCH  11  12
ATOM     12  C   UNL     1       6.996  -4.673 -11.057  0.00  0.00    +0.000 C 
ATOM     13  C   UNL     1       7.941  -5.878 -11.249  0.00  0.00    +0.000 C 
ATOM     14  C   UNL     1       8.633  -5.125 -12.397  0.00  0.00    +0.000 C 
ATOM     15  F   UNL     1       9.985  -5.141 -12.371  0.00  0.00    +0.000 F 
ATOM     16  F   UNL     1       8.266  -5.507 -13.641  0.00  0.00    +0.000 F 
ATOM     17  C   UNL     1       7.980  -3.829 -11.893  0.00  0.00    +0.000 C 
ENDBRANCH  11  12
ENDBRANCH   9  11
ENDBRANCH   1   4
BRANCH   1  18
ATOM     18  C   UNL     1       5.129  -4.056  -4.371  0.00  0.00    +0.000 C 
BRANCH  18  23
ATOM     19  C   UNL     1       3.084  -0.843  -1.132  0.00  0.00    +0.000 A 
ATOM     20  C   UNL     1       4.001  -1.562  -0.372  0.00  0.00    +0.000 A 
ATOM     21  C   UNL     1       4.739  -2.576  -0.985  0.00  0.00    +0.000 A 
ATOM     22  C   UNL     1       4.562  -2.846  -2.342  0.00  0.00    +0.000 A 
ATOM     23  N   UNL     1       5.305  -3.885  -2.912  0.00  0.00    +0.000 N 
ATOM     24  N   UNL     1       3.652  -2.175  -3.077  0.00  0.00    +0.000 NA
ATOM     25  C   UNL     1       2.930  -1.200  -2.463  0.00  0.00    +0.000 A 
ATOM     26  H   UNL     1       6.286  -3.808  -2.656  0.00  0.00    +0.000 HD
BRANCH  19  28
ATOM     27  N   UNL     1       2.775   0.950   0.478  0.00  0.00    +0.000 N 
ATOM     28  C   UNL     1       2.263   0.257  -0.585  0.00  0.00    +0.000 C 
ATOM     29  O   UNL     1       1.192   0.566  -1.085  0.00  0.00    +0.000 OA
ATOM     30  H   UNL     1       2.255   1.768   0.772  0.00  0.00    +0.000 HD
ATOM     31  H   UNL     1       3.744   0.891   0.755  0.00  0.00    +0.000 HD
ENDBRANCH  19  28
ENDBRANCH  18  23
ENDBRANCH   1  18
TORSDOF 6
