REMARK  Name = 
REMARK  6 active torsions:
REMARK  status: ('A' for Active; 'I' for Inactive)
REMARK    1  A    between atoms: C_2  and  C_25
REMARK    2  A    between atoms: N_3  and  C_4
REMARK    3  A    between atoms: C_4  and  C_5
REMARK    4  A    between atoms: C_8  and  C_9
REMARK    5  A    between atoms: C_9  and  N_10
REMARK    6  A    between atoms: C_11  and  C_13
REMARK                            x       y       z     vdW  Elec       q    Type
REMARK                         _______ _______ _______ _____ _____    ______ ____
ROOT
ATOM      1  C   UNL     1       3.224  -3.057   2.059  0.00  0.00    +0.000 A 
ATOM      2  C   UNL     1       4.245  -2.570   2.887  0.00  0.00    +0.000 A 
ATOM      3  C   UNL     1       5.077  -3.452   3.588  0.00  0.00    +0.000 A 
ATOM      4  C   UNL     1       4.918  -4.838   3.461  0.00  0.00    +0.000 A 
ATOM      5  C   UNL     1       3.895  -5.323   2.636  0.00  0.00    +0.000 A 
ATOM      6  C   UNL     1       3.065  -4.443   1.935  0.00  0.00    +0.000 A 
ENDROOT
BRANCH   1   7
ATOM      7  C   UNL     1       2.287  -2.113   1.355  0.00  0.00    +0.000 C 
BRANCH   7  10
ATOM      8  O   UNL     1       0.896  -0.387  -0.365  0.00  0.00    +0.000 OA
ATOM      9  C   UNL     1       1.987  -0.829  -0.693  0.00  0.00    +0.000 C 
ATOM     10  N   UNL     1       2.758  -1.684   0.062  0.00  0.00    +0.000 N 
ATOM     11  H   UNL     1       3.656  -1.984  -0.306  0.00  0.00    +0.000 HD
BRANCH   9  12
ATOM     12  C   UNL     1       2.569  -0.436  -2.023  0.00  0.00    +0.000 C 
ATOM     13  C   UNL     1       1.869   0.470  -2.948  0.00  0.00    +0.000 C 
ATOM     14  C   UNL     1       2.778   0.589  -4.041  0.00  0.00    +0.000 C 
ATOM     15  C   UNL     1       3.829  -0.179  -3.717  0.00  0.00    +0.000 C 
ATOM     16  N   UNL     1       3.735  -0.823  -2.489  0.00  0.00    +0.000 NA
ENDBRANCH   9  12
ENDBRANCH   7  10
ENDBRANCH   1   7
BRANCH   4  17
ATOM     17  C   UNL     1       5.800  -5.796   4.222  0.00  0.00    +0.000 C 
BRANCH  17  18
ATOM     18  N   UNL     1       5.229  -6.135   5.502  0.00  0.00    +0.000 N 
ATOM     19  C   UNL     1       5.907  -6.924   6.397  0.00  0.00    +0.000 C 
ATOM     20  O   UNL     1       7.044  -7.333   6.172  0.00  0.00    +0.000 OA
ATOM     21  H   UNL     1       4.228  -6.003   5.609  0.00  0.00    +0.000 HD
BRANCH  19  22
ATOM     22  C   UNL     1       5.229  -7.211   7.668  0.00  0.00    +0.000 A 
ATOM     23  C   UNL     1       5.977  -7.570   8.782  0.00  0.00    +0.000 A 
ATOM     24  S   UNL     1       5.042  -7.815  10.186  0.00  0.00    +0.000 S 
ATOM     25  C   UNL     1       3.596  -7.503   9.344  0.00  0.00    +0.000 A 
ATOM     26  N   UNL     1       2.391  -7.572   9.973  0.00  0.00    +0.000 NA
ATOM     27  C   UNL     1       1.377  -7.342   9.208  0.00  0.00    +0.000 A 
ATOM     28  N   UNL     1       1.458  -7.044   7.873  0.00  0.00    +0.000 N 
ATOM     29  C   UNL     1       2.654  -6.939   7.202  0.00  0.00    +0.000 A 
ATOM     30  O   UNL     1       2.690  -6.638   6.013  0.00  0.00    +0.000 OA
ATOM     31  C   UNL     1       3.827  -7.197   8.014  0.00  0.00    +0.000 A 
ATOM     32  H   UNL     1       0.626  -6.872   7.331  0.00  0.00    +0.000 HD
ENDBRANCH  19  22
ENDBRANCH  17  18
ENDBRANCH   4  17
TORSDOF 6
