REMARK  Name = 
REMARK  8 active torsions:
REMARK  status: ('A' for Active; 'I' for Inactive)
REMARK    1  A    between atoms: C_2  and  C_3
REMARK    2  A    between atoms: C_3  and  N_4
REMARK    3  A    between atoms: C_3  and  C_26
REMARK    4  A    between atoms: N_4  and  C_5
REMARK    5  A    between atoms: C_5  and  C_6
REMARK    6  A    between atoms: C_9  and  C_10
REMARK    7  A    between atoms: C_10  and  N_11
REMARK    8  A    between atoms: C_12  and  C_14
REMARK                            x       y       z     vdW  Elec       q    Type
REMARK                         _______ _______ _______ _____ _____    ______ ____
ROOT
ATOM      1  C   UNL     1       0.368   0.143   1.509  0.00  0.00    +0.000 A 
ATOM      2  C   UNL     1      -0.325  -0.545   2.515  0.00  0.00    +0.000 A 
ATOM      3  C   UNL     1      -1.712  -0.418   2.651  0.00  0.00    +0.000 A 
ATOM      4  C   UNL     1      -2.441   0.393   1.772  0.00  0.00    +0.000 A 
ATOM      5  C   UNL     1      -1.749   1.080   0.765  0.00  0.00    +0.000 A 
ATOM      6  C   UNL     1      -0.362   0.949   0.626  0.00  0.00    +0.000 A 
ENDROOT
BRANCH   1   7
ATOM      7  C   UNL     1       1.878   0.091   1.457  0.00  0.00    +0.000 C 
BRANCH   7   8
ATOM      8  N   UNL     1       2.372  -1.282   1.358  0.00  0.00    +0.000 NA
ATOM      9  H   UNL     1       2.021  -1.692   0.490  0.00  0.00    +0.000 HD
BRANCH   8  10
ATOM     10  C   UNL     1       3.860  -1.341   1.312  0.00  0.00    +0.000 C 
BRANCH  10  11
ATOM     11  C   UNL     1       4.331  -2.790   1.181  0.00  0.00    +0.000 A 
ATOM     12  C   UNL     1       3.948  -3.750   2.122  0.00  0.00    +0.000 A 
ATOM     13  C   UNL     1       4.429  -5.048   2.000  0.00  0.00    +0.000 A 
ATOM     14  C   UNL     1       5.278  -5.361   0.945  0.00  0.00    +0.000 A 
ATOM     15  C   UNL     1       5.599  -4.360   0.043  0.00  0.00    +0.000 A 
ATOM     16  N   UNL     1       5.142  -3.090   0.131  0.00  0.00    +0.000 NA
ENDBRANCH  10  11
BRANCH  10  18
ATOM     17  N   UNL     1       5.052  -0.193   3.387  0.00  0.00    +0.000 NA
ATOM     18  C   UNL     1       4.541  -0.713   2.481  0.00  0.00    +0.000 C 
ENDBRANCH  10  18
ENDBRANCH   8  10
ENDBRANCH   7   8
ENDBRANCH   1   7
BRANCH   4  19
ATOM     19  C   UNL     1      -3.935   0.551   1.905  0.00  0.00    +0.000 C 
BRANCH  19  20
ATOM     20  N   UNL     1      -4.288   1.657   2.761  0.00  0.00    +0.000 N 
ATOM     21  C   UNL     1      -5.600   1.959   3.035  0.00  0.00    +0.000 C 
ATOM     22  O   UNL     1      -6.531   1.285   2.605  0.00  0.00    +0.000 OA
ATOM     23  H   UNL     1      -3.584   2.377   2.888  0.00  0.00    +0.000 HD
BRANCH  21  24
ATOM     24  C   UNL     1      -5.830   3.109   3.919  0.00  0.00    +0.000 A 
ATOM     25  C   UNL     1      -6.978   3.168   4.699  0.00  0.00    +0.000 A 
ATOM     26  S   UNL     1      -7.080   4.577   5.655  0.00  0.00    +0.000 S 
ATOM     27  C   UNL     1      -5.612   5.173   5.038  0.00  0.00    +0.000 A 
ATOM     28  N   UNL     1      -5.128   6.382   5.424  0.00  0.00    +0.000 NA
ATOM     29  C   UNL     1      -4.009   6.713   4.867  0.00  0.00    +0.000 A 
ATOM     30  N   UNL     1      -3.321   5.931   3.975  0.00  0.00    +0.000 N 
ATOM     31  C   UNL     1      -3.756   4.688   3.582  0.00  0.00    +0.000 A 
ATOM     32  O   UNL     1      -3.087   3.990   2.828  0.00  0.00    +0.000 OA
ATOM     33  C   UNL     1      -5.031   4.292   4.150  0.00  0.00    +0.000 A 
ATOM     34  H   UNL     1      -2.434   6.230   3.598  0.00  0.00    +0.000 HD
ENDBRANCH  21  24
ENDBRANCH  19  20
ENDBRANCH   4  19
TORSDOF 8
