REMARK  Name = 
REMARK  9 active torsions:
REMARK  status: ('A' for Active; 'I' for Inactive)
REMARK    1  A    between atoms: C_1  and  C_2
REMARK    2  A    between atoms: C_2  and  C_3
REMARK    3  A    between atoms: C_5  and  S_6
REMARK    4  A    between atoms: S_6  and  C_7
REMARK    5  A    between atoms: C_11  and  C_12
REMARK    6  A    between atoms: C_12  and  C_13
REMARK    7  A    between atoms: C_13  and  N_14
REMARK    8  A    between atoms: N_14  and  C_15
REMARK    9  A    between atoms: C_18  and  C_19
REMARK                            x       y       z     vdW  Elec       q    Type
REMARK                         _______ _______ _______ _____ _____    ______ ____
ROOT
ATOM      1  C   UNL     1      -7.798  -0.575   1.469  0.00  0.00    +0.000 C 
ENDROOT
BRANCH   1   6
ATOM      2  C   UNL     1      -4.167   0.631   1.306  0.00  0.00    +0.000 A 
ATOM      3  C   UNL     1      -3.840   0.531   2.652  0.00  0.00    +0.000 A 
ATOM      4  C   UNL     1      -4.813   0.072   3.522  0.00  0.00    +0.000 A 
ATOM      5  N   UNL     1      -6.062  -0.286   3.143  0.00  0.00    +0.000 NA
ATOM      6  C   UNL     1      -6.380  -0.186   1.834  0.00  0.00    +0.000 A 
ATOM      7  C   UNL     1      -5.453   0.278   0.896  0.00  0.00    +0.000 A 
BRANCH   2   8
ATOM      8  S   UNL     1      -3.024   1.326   0.125  0.00  0.00    +0.000 S 
BRANCH   8  13
ATOM      9  C   UNL     1      -0.901  -2.427  -2.109  0.00  0.00    +0.000 C 
ATOM     10  C   UNL     1      -1.642  -1.105  -2.310  0.00  0.00    +0.000 C 
ATOM     11  C   UNL     1      -1.826  -0.790  -3.792  0.00  0.00    +0.000 C 
ATOM     12  C   UNL     1      -1.082   0.083  -1.472  0.00  0.00    +0.000 C 
ATOM     13  C   UNL     1      -2.169  -0.206  -0.403  0.00  0.00    +0.000 C 
ATOM     14  C   UNL     1      -2.954  -0.980  -1.483  0.00  0.00    +0.000 C 
ENDBRANCH   8  13
ENDBRANCH   2   8
ENDBRANCH   1   6
BRANCH   1  15
ATOM     15  C   UNL     1      -8.129  -0.448  -0.017  0.00  0.00    +0.000 C 
BRANCH  15  16
ATOM     16  N   UNL     1      -9.507  -0.839  -0.337  0.00  0.00    +0.000 N 
ATOM     17  H   UNL     1     -10.196  -0.393   0.267  0.00  0.00    +0.000 HD
BRANCH  16  18
ATOM     18  C   UNL     1      -9.846  -0.718  -1.701  0.00  0.00    +0.000 A 
ATOM     19  C   UNL     1      -8.913  -0.918  -2.724  0.00  0.00    +0.000 A 
ATOM     20  C   UNL     1      -9.291  -0.861  -4.066  0.00  0.00    +0.000 A 
ATOM     21  C   UNL     1     -10.622  -0.631  -4.354  0.00  0.00    +0.000 A 
ATOM     22  N   UNL     1     -11.585  -0.455  -3.408  0.00  0.00    +0.000 NA
ATOM     23  C   UNL     1     -11.168  -0.521  -2.114  0.00  0.00    +0.000 A 
BRANCH  21  24
ATOM     24  C   UNL     1     -11.059  -0.608  -5.785  0.00  0.00    +0.000 C 
ATOM     25  N   UNL     1     -12.390  -0.387  -5.990  0.00  0.00    +0.000 N 
ATOM     26  O   UNL     1     -10.283  -0.787  -6.719  0.00  0.00    +0.000 OA
ATOM     27  H   UNL     1     -13.007  -0.278  -5.194  0.00  0.00    +0.000 HD
ATOM     28  H   UNL     1     -12.760  -0.400  -6.929  0.00  0.00    +0.000 HD
ENDBRANCH  21  24
ENDBRANCH  16  18
ENDBRANCH  15  16
ENDBRANCH   1  15
TORSDOF 7
