REMARK  Name = 
REMARK  7 active torsions:
REMARK  status: ('A' for Active; 'I' for Inactive)
REMARK    1  A    between atoms: C_2  and  C_3
REMARK    2  A    between atoms: N_7  and  C_8
REMARK    3  A    between atoms: C_8  and  C_9
REMARK    4  A    between atoms: C_9  and  C_10
REMARK    5  A    between atoms: C_9  and  C_12
REMARK    6  A    between atoms: C_16  and  O_17
REMARK    7  A    between atoms: O_17  and  C_18
REMARK                            x       y       z     vdW  Elec       q    Type
REMARK                         _______ _______ _______ _____ _____    ______ ____
ROOT
ATOM      1  C   UNL     1      -5.826   1.175  -0.218  0.00  0.00    +0.000 C 
ENDROOT
BRANCH   1   2
ATOM      2  C   UNL     1      -6.633   2.467  -0.307  0.00  0.00    +0.000 A 
ATOM      3  C   UNL     1      -7.868   2.464  -0.973  0.00  0.00    +0.000 A 
ATOM      4  C   UNL     1      -8.701   3.586  -0.934  0.00  0.00    +0.000 A 
ATOM      5  C   UNL     1      -8.313   4.730  -0.232  0.00  0.00    +0.000 A 
ATOM      6  C   UNL     1      -7.077   4.759   0.403  0.00  0.00    +0.000 A 
ATOM      7  C   UNL     1      -6.242   3.639   0.355  0.00  0.00    +0.000 A 
BRANCH   6   8
ATOM      8  O   UNL     1      -6.594   5.791   1.161  0.00  0.00    +0.000 OA
BRANCH   8   9
ATOM      9  C   UNL     1      -7.136   7.116   0.989  0.00  0.00    +0.000 C 
ATOM     10  C   UNL     1      -6.817   7.868  -0.320  0.00  0.00    +0.000 C 
ATOM     11  N   UNL     1      -6.468   9.074   0.461  0.00  0.00    +0.000 NA
ATOM     12  C   UNL     1      -6.303   8.232   1.661  0.00  0.00    +0.000 C 
ATOM     13  H   UNL     1      -7.226   9.748   0.539  0.00  0.00    +0.000 HD
ENDBRANCH   8   9
ENDBRANCH   6   8
ENDBRANCH   1   2
BRANCH   1  14
ATOM     14  C   UNL     1      -4.305   1.342  -0.126  0.00  0.00    +0.000 C 
ATOM     15  F   UNL     1      -3.847   1.936  -1.264  0.00  0.00    +0.000 F 
ENDBRANCH   1  14
BRANCH   1  16
ATOM     16  C   UNL     1      -6.343   0.298   0.949  0.00  0.00    +0.000 C 
BRANCH  16  21
ATOM     17  C   UNL     1      -7.242  -0.683   5.886  0.00  0.00    +0.000 A 
ATOM     18  C   UNL     1      -6.858  -1.558   4.877  0.00  0.00    +0.000 A 
ATOM     19  C   UNL     1      -6.498  -1.048   3.627  0.00  0.00    +0.000 A 
ATOM     20  C   UNL     1      -6.544   0.323   3.407  0.00  0.00    +0.000 A 
ATOM     21  N   UNL     1      -6.108   0.928   2.243  0.00  0.00    +0.000 N 
ATOM     22  N   UNL     1      -6.937   1.177   4.374  0.00  0.00    +0.000 NA
ATOM     23  C   UNL     1      -7.271   0.667   5.586  0.00  0.00    +0.000 A 
ATOM     24  H   UNL     1      -6.421   1.898   2.312  0.00  0.00    +0.000 HD
BRANCH  17  26
ATOM     25  N   UNL     1      -7.835  -1.535   8.256  0.00  0.00    +0.000 NA
ATOM     26  C   UNL     1      -7.574  -1.150   7.195  0.00  0.00    +0.000 C 
ENDBRANCH  17  26
ENDBRANCH  16  21
ENDBRANCH   1  16
TORSDOF 7
