REMARK  Name = 
REMARK  7 active torsions:
REMARK  status: ('A' for Active; 'I' for Inactive)
REMARK    1  A    between atoms: C_1  and  C_2
REMARK    2  A    between atoms: N_5  and  C_6
REMARK    3  A    between atoms: C_8  and  C_9
REMARK    4  A    between atoms: C_9  and  C_10
REMARK    5  A    between atoms: C_10  and  N_11
REMARK    6  A    between atoms: C_15  and  C_16
REMARK    7  A    between atoms: C_23  and  C_24
REMARK                            x       y       z     vdW  Elec       q    Type
REMARK                         _______ _______ _______ _____ _____    ______ ____
ROOT
ATOM      1  C   UNL     1       2.870  -0.030  -1.154  0.00  0.00    +0.000 A 
ATOM      2  C   UNL     1       4.097   0.588  -0.784  0.00  0.00    +0.000 A 
ATOM      3  C   UNL     1       5.251   0.591  -1.601  0.00  0.00    +0.000 A 
ATOM      4  C   UNL     1       5.166  -0.022  -2.851  0.00  0.00    +0.000 A 
ATOM      5  C   UNL     1       3.994  -0.651  -3.248  0.00  0.00    +0.000 A 
ATOM      6  C   UNL     1       2.867  -0.683  -2.410  0.00  0.00    +0.000 A 
ENDROOT
BRANCH   1  11
ATOM      7  C   UNL     1      -1.034   2.476   1.859  0.00  0.00    +0.000 C 
ATOM      8  C   UNL     1      -0.321   1.232   1.334  0.00  0.00    +0.000 C 
ATOM      9  C   UNL     1      -0.418   1.184  -0.192  0.00  0.00    +0.000 C 
ATOM     10  C   UNL     1       0.379   0.029  -0.790  0.00  0.00    +0.000 C 
ATOM     11  N   UNL     1       1.767   0.077  -0.309  0.00  0.00    +0.000 N 
ATOM     12  C   UNL     1       1.898   0.021   1.154  0.00  0.00    +0.000 C 
ATOM     13  C   UNL     1       1.151   1.204   1.776  0.00  0.00    +0.000 C 
ENDBRANCH   1  11
BRANCH   6  14
ATOM     14  C   UNL     1       1.769  -1.464  -2.909  0.00  0.00    +0.000 C 
ATOM     15  N   UNL     1       0.900  -2.091  -3.359  0.00  0.00    +0.000 NA
ENDBRANCH   6  14
BRANCH   3  16
ATOM     16  C   UNL     1       6.530   1.255  -1.107  0.00  0.00    +0.000 C 
BRANCH  16  17
ATOM     17  C   UNL     1       7.712   1.176  -2.091  0.00  0.00    +0.000 C 
BRANCH  17  18
ATOM     18  N   UNL     1       8.927   1.816  -1.579  0.00  0.00    +0.000 N 
ATOM     19  C   UNL     1      10.015   1.679  -2.473  0.00  0.00    +0.000 A 
ATOM     20  C   UNL     1      11.246   2.220  -2.113  0.00  0.00    +0.000 A 
ATOM     21  C   UNL     1      12.338   2.088  -2.977  0.00  0.00    +0.000 A 
ATOM     22  C   UNL     1      12.188   1.420  -4.192  0.00  0.00    +0.000 A 
ATOM     23  C   UNL     1      10.928   0.930  -4.481  0.00  0.00    +0.000 A 
ATOM     24  N   UNL     1       9.853   1.050  -3.657  0.00  0.00    +0.000 NA
ATOM     25  H   UNL     1       9.210   1.443  -0.676  0.00  0.00    +0.000 HD
BRANCH  22  26
ATOM     26  C   UNL     1      13.358   1.266  -5.090  0.00  0.00    +0.000 C 
ATOM     27  N   UNL     1      13.214   0.592  -6.273  0.00  0.00    +0.000 N 
ATOM     28  O   UNL     1      14.452   1.727  -4.786  0.00  0.00    +0.000 OA
ATOM     29  H   UNL     1      12.366   0.174  -6.620  0.00  0.00    +0.000 HD
ATOM     30  H   UNL     1      14.042   0.508  -6.845  0.00  0.00    +0.000 HD
ENDBRANCH  22  26
ENDBRANCH  17  18
ENDBRANCH  16  17
ENDBRANCH   3  16
TORSDOF 6
