REMARK  Name = 
REMARK  9 active torsions:
REMARK  status: ('A' for Active; 'I' for Inactive)
REMARK    1  A    between atoms: N_1  and  C_2
REMARK    2  A    between atoms: C_2  and  C_3
REMARK    3  A    between atoms: C_3  and  C_4
REMARK    4  A    between atoms: C_4  and  O_5
REMARK    5  A    between atoms: O_5  and  C_6
REMARK    6  A    between atoms: C_9  and  C_10
REMARK    7  A    between atoms: C_10  and  O_11
REMARK    8  A    between atoms: O_11  and  C_12
REMARK    9  A    between atoms: C_15  and  C_16
REMARK                            x       y       z     vdW  Elec       q    Type
REMARK                         _______ _______ _______ _____ _____    ______ ____
ROOT
ATOM      1  C   UNL     1       6.416  -1.071  -2.860  0.00  0.00    +0.000 A 
ATOM      2  C   UNL     1       7.259  -1.633  -1.899  0.00  0.00    +0.000 A 
ATOM      3  C   UNL     1       8.619  -1.815  -2.168  0.00  0.00    +0.000 A 
ATOM      4  C   UNL     1       9.161  -1.426  -3.398  0.00  0.00    +0.000 A 
ATOM      5  C   UNL     1       8.310  -0.879  -4.367  0.00  0.00    +0.000 A 
ATOM      6  C   UNL     1       6.950  -0.694  -4.093  0.00  0.00    +0.000 A 
ENDROOT
BRANCH   1   7
ATOM      7  O   UNL     1       5.071  -0.845  -2.711  0.00  0.00    +0.000 OA
BRANCH   7   8
ATOM      8  C   UNL     1       4.503  -1.292  -1.477  0.00  0.00    +0.000 C 
BRANCH   8   9
ATOM      9  C   UNL     1       3.001  -1.022  -1.484  0.00  0.00    +0.000 C 
BRANCH   9  10
ATOM     10  C   UNL     1       2.330  -1.514  -0.203  0.00  0.00    +0.000 C 
BRANCH  10  11
ATOM     11  N   UNL     1       2.869  -0.846   0.977  0.00  0.00    +0.000 NA
ATOM     12  H   UNL     1       2.375  -1.168   1.809  0.00  0.00    +0.000 HD
ATOM     13  H   UNL     1       2.696   0.157   0.913  0.00  0.00    +0.000 HD
ENDBRANCH  10  11
ENDBRANCH   9  10
ENDBRANCH   8   9
ENDBRANCH   7   8
ENDBRANCH   1   7
BRANCH   4  14
ATOM     14  C   UNL     1      10.642  -1.558  -3.654  0.00  0.00    +0.000 C 
BRANCH  14  15
ATOM     15  O   UNL     1      10.952  -2.854  -4.170  0.00  0.00    +0.000 OA
BRANCH  15  16
ATOM     16  C   UNL     1      12.278  -3.104  -4.396  0.00  0.00    +0.000 A 
ATOM     17  C   UNL     1      13.324  -2.199  -4.228  0.00  0.00    +0.000 A 
ATOM     18  C   UNL     1      14.635  -2.595  -4.486  0.00  0.00    +0.000 A 
ATOM     19  C   UNL     1      14.865  -3.896  -4.910  0.00  0.00    +0.000 A 
ATOM     20  N   UNL     1      13.876  -4.814  -5.096  0.00  0.00    +0.000 NA
ATOM     21  C   UNL     1      12.612  -4.385  -4.833  0.00  0.00    +0.000 A 
BRANCH  19  22
ATOM     22  C   UNL     1      16.272  -4.335  -5.172  0.00  0.00    +0.000 C 
ATOM     23  N   UNL     1      16.432  -5.630  -5.581  0.00  0.00    +0.000 N 
ATOM     24  O   UNL     1      17.233  -3.586  -5.028  0.00  0.00    +0.000 OA
ATOM     25  H   UNL     1      15.621  -6.229  -5.685  0.00  0.00    +0.000 HD
ATOM     26  H   UNL     1      17.360  -5.983  -5.758  0.00  0.00    +0.000 HD
ENDBRANCH  19  22
ENDBRANCH  15  16
ENDBRANCH  14  15
ENDBRANCH   4  14
TORSDOF 9
