REMARK  Name = 
REMARK  5 active torsions:
REMARK  status: ('A' for Active; 'I' for Inactive)
REMARK    1  A    between atoms: N_1  and  C_2
REMARK    2  A    between atoms: C_2  and  C_3
REMARK    3  A    between atoms: C_3  and  C_4
REMARK    4  A    between atoms: C_8  and  C_9
REMARK    5  A    between atoms: C_9  and  N_10
REMARK                            x       y       z     vdW  Elec       q    Type
REMARK                         _______ _______ _______ _____ _____    ______ ____
ROOT
ATOM      1  C   UNL     1       4.566   1.117   0.901  0.00  0.00    +0.000 A 
ATOM      2  C   UNL     1       5.279  -0.075   0.887  0.00  0.00    +0.000 A 
ATOM      3  N   UNL     1       6.625  -0.157   0.972  0.00  0.00    +0.000 NA
ATOM      4  C   UNL     1       7.298   1.009   1.079  0.00  0.00    +0.000 A 
ATOM      5  C   UNL     1       6.695   2.259   1.113  0.00  0.00    +0.000 A 
ATOM      6  C   UNL     1       5.297   2.304   1.022  0.00  0.00    +0.000 A 
ENDROOT
BRANCH   1   7
ATOM      7  C   UNL     1       3.064   1.122   0.809  0.00  0.00    +0.000 C 
BRANCH   7   8
ATOM      8  C   UNL     1       2.414   1.129   2.197  0.00  0.00    +0.000 C 
BRANCH   8   9
ATOM      9  N   UNL     1       0.956   1.115   2.094  0.00  0.00    +0.000 NA
ATOM     10  H   UNL     1       0.555   1.117   3.033  0.00  0.00    +0.000 HD
ATOM     11  H   UNL     1       0.648   0.246   1.660  0.00  0.00    +0.000 HD
ENDBRANCH   8   9
ENDBRANCH   7   8
ENDBRANCH   1   7
BRANCH   5  12
ATOM     12  C   UNL     1       7.528   3.503   1.157  0.00  0.00    +0.000 C 
BRANCH  12  13
ATOM     13  N   UNL     1       7.731   4.058   2.494  0.00  0.00    +0.000 N 
ATOM     14  C   UNL     1       6.850   4.943   3.072  0.00  0.00    +0.000 A 
ATOM     15  C   UNL     1       7.587   5.813   3.846  0.00  0.00    +0.000 A 
ATOM     16  C   UNL     1       8.929   5.343   3.864  0.00  0.00    +0.000 A 
ATOM     17  C   UNL     1      10.115   5.805   4.444  0.00  0.00    +0.000 A 
ATOM     18  N   UNL     1      11.248   5.068   4.374  0.00  0.00    +0.000 NA
ATOM     19  C   UNL     1      11.214   3.876   3.740  0.00  0.00    +0.000 A 
ATOM     20  C   UNL     1      10.107   3.363   3.071  0.00  0.00    +0.000 A 
ATOM     21  C   UNL     1       8.960   4.150   3.126  0.00  0.00    +0.000 A 
ENDBRANCH  12  13
ENDBRANCH   5  12
TORSDOF 5
