REMARK  Name = 
REMARK  7 active torsions:
REMARK  status: ('A' for Active; 'I' for Inactive)
REMARK    1  A    between atoms: C_1  and  C_2
REMARK    2  A    between atoms: C_2  and  C_3
REMARK    3  A    between atoms: C_2  and  C_4
REMARK    4  A    between atoms: C_2  and  C_5
REMARK    5  A    between atoms: C_7  and  C_8
REMARK    6  A    between atoms: C_8  and  N_9
REMARK    7  A    between atoms: C_14  and  C_15
REMARK                            x       y       z     vdW  Elec       q    Type
REMARK                         _______ _______ _______ _____ _____    ______ ____
ROOT
ATOM      1  N   UNL     1       3.597   4.796  -2.037  0.00  0.00    +0.000 N 
ATOM      2  C   UNL     1       4.912   5.163  -2.129  0.00  0.00    +0.000 A 
ATOM      3  N   UNL     1       5.234   6.050  -1.215  0.00  0.00    +0.000 NA
ATOM      4  C   UNL     1       4.085   6.260  -0.495  0.00  0.00    +0.000 A 
ATOM      5  C   UNL     1       3.864   7.136   0.581  0.00  0.00    +0.000 A 
ATOM      6  C   UNL     1       2.587   7.189   1.159  0.00  0.00    +0.000 A 
ATOM      7  C   UNL     1       1.567   6.350   0.679  0.00  0.00    +0.000 A 
ATOM      8  C   UNL     1       1.770   5.475  -0.395  0.00  0.00    +0.000 A 
ATOM      9  C   UNL     1       3.044   5.467  -0.970  0.00  0.00    +0.000 A 
ENDROOT
BRANCH   6  10
ATOM     10  C   UNL     1       2.241   8.121   2.271  0.00  0.00    +0.000 C 
ATOM     11  N   UNL     1       3.193   8.988   2.727  0.00  0.00    +0.000 N 
ATOM     12  O   UNL     1       1.120   8.132   2.769  0.00  0.00    +0.000 OA
ATOM     13  H   UNL     1       4.128   9.073   2.363  0.00  0.00    +0.000 HD
ATOM     14  H   UNL     1       2.912   9.624   3.462  0.00  0.00    +0.000 HD
ENDBRANCH   6  10
BRANCH   1  15
ATOM     15  C   UNL     1       2.897   3.964  -3.003  0.00  0.00    +0.000 C 
BRANCH  15  18
ATOM     16  C   UNL     1       2.843   0.529  -1.349  0.00  0.00    +0.000 A 
ATOM     17  C   UNL     1       2.678   1.901  -1.553  0.00  0.00    +0.000 A 
ATOM     18  C   UNL     1       3.093   2.493  -2.753  0.00  0.00    +0.000 A 
ATOM     19  C   UNL     1       3.648   1.669  -3.731  0.00  0.00    +0.000 A 
ATOM     20  C   UNL     1       3.774   0.316  -3.463  0.00  0.00    +0.000 A 
ATOM     21  N   UNL     1       3.386  -0.261  -2.307  0.00  0.00    +0.000 NA
BRANCH  16  23
ATOM     22  C   UNL     1       0.877   0.011   0.129  0.00  0.00    +0.000 C 
ATOM     23  C   UNL     1       2.405  -0.125  -0.032  0.00  0.00    +0.000 C 
ATOM     24  C   UNL     1       3.115   0.552   1.158  0.00  0.00    +0.000 C 
ATOM     25  C   UNL     1       2.754  -1.628   0.006  0.00  0.00    +0.000 C 
ENDBRANCH  16  23
ENDBRANCH  15  18
ENDBRANCH   1  15
TORSDOF 4
