REMARK  Name = 
REMARK  6 active torsions:
REMARK  status: ('A' for Active; 'I' for Inactive)
REMARK    1  A    between atoms: C_1  and  N_2
REMARK    2  A    between atoms: N_2  and  C_15
REMARK    3  A    between atoms: C_3  and  C_5
REMARK    4  A    between atoms: C_18  and  C_19
REMARK    5  A    between atoms: C_19  and  N_20
REMARK    6  A    between atoms: C_21  and  C_23
REMARK                            x       y       z     vdW  Elec       q    Type
REMARK                         _______ _______ _______ _____ _____    ______ ____
ROOT
ATOM      1  C   UNL     1       3.331   1.074  -0.584  0.00  0.00    +0.000 A 
ATOM      2  C   UNL     1       2.816   2.368  -0.618  0.00  0.00    +0.000 A 
ATOM      3  C   UNL     1       3.425   3.332  -1.425  0.00  0.00    +0.000 A 
ATOM      4  C   UNL     1       4.534   3.003  -2.222  0.00  0.00    +0.000 A 
ATOM      5  C   UNL     1       5.078   1.713  -2.132  0.00  0.00    +0.000 A 
ATOM      6  C   UNL     1       4.496   0.758  -1.293  0.00  0.00    +0.000 A 
ENDROOT
BRANCH   1   8
ATOM      7  C   UNL     1       3.066  -0.212   1.451  0.00  0.00    +0.000 C 
ATOM      8  N   UNL     1       2.632   0.044   0.079  0.00  0.00    +0.000 N 
ATOM      9  C   UNL     1       1.491  -0.620  -0.427  0.00  0.00    +0.000 C 
ATOM     10  O   UNL     1       0.941  -1.496   0.240  0.00  0.00    +0.000 OA
BRANCH   9  11
ATOM     11  C   UNL     1       0.966  -0.305  -1.784  0.00  0.00    +0.000 A 
ATOM     12  C   UNL     1       1.734   0.065  -2.876  0.00  0.00    +0.000 A 
ATOM     13  S   UNL     1       0.854   0.394  -4.294  0.00  0.00    +0.000 S 
ATOM     14  C   UNL     1      -0.576  -0.147  -3.571  0.00  0.00    +0.000 A 
ATOM     15  N   UNL     1      -1.713  -0.234  -4.306  0.00  0.00    +0.000 NA
ATOM     16  C   UNL     1      -2.719  -0.734  -3.660  0.00  0.00    +0.000 A 
ATOM     17  N   UNL     1      -2.691  -1.111  -2.348  0.00  0.00    +0.000 N 
ATOM     18  C   UNL     1      -1.598  -0.911  -1.524  0.00  0.00    +0.000 A 
ATOM     19  O   UNL     1      -1.705  -1.056  -0.315  0.00  0.00    +0.000 OA
ATOM     20  C   UNL     1      -0.408  -0.464  -2.231  0.00  0.00    +0.000 A 
ATOM     21  H   UNL     1      -3.528  -1.438  -1.891  0.00  0.00    +0.000 HD
ENDBRANCH   9  11
ENDBRANCH   1   8
BRANCH   4  22
ATOM     22  C   UNL     1       5.166   4.037  -3.119  0.00  0.00    +0.000 C 
BRANCH  22  23
ATOM     23  N   UNL     1       6.220   4.720  -2.409  0.00  0.00    +0.000 N 
ATOM     24  C   UNL     1       7.041   5.645  -3.022  0.00  0.00    +0.000 C 
ATOM     25  O   UNL     1       6.964   5.925  -4.212  0.00  0.00    +0.000 OA
ATOM     26  H   UNL     1       6.204   4.666  -1.396  0.00  0.00    +0.000 HD
BRANCH  24  27
ATOM     27  C   UNL     1       8.008   6.301  -2.049  0.00  0.00    +0.000 C 
ATOM     28  C   UNL     1       8.874   7.389  -2.644  0.00  0.00    +0.000 C 
ATOM     29  C   UNL     1      10.217   6.730  -2.858  0.00  0.00    +0.000 C 
ATOM     30  O   UNL     1      10.315   5.656  -1.923  0.00  0.00    +0.000 OA
ATOM     31  C   UNL     1       9.000   5.292  -1.495  0.00  0.00    +0.000 C 
ENDBRANCH  24  27
ENDBRANCH  22  23
ENDBRANCH   4  22
TORSDOF 5
