REMARK  Name = 
REMARK  5 active torsions:
REMARK  status: ('A' for Active; 'I' for Inactive)
REMARK    1  A    between atoms: C_2  and  C_17
REMARK    2  A    between atoms: N_3  and  C_4
REMARK    3  A    between atoms: C_4  and  C_5
REMARK    4  A    between atoms: C_8  and  C_9
REMARK    5  A    between atoms: C_9  and  N_10
REMARK                            x       y       z     vdW  Elec       q    Type
REMARK                         _______ _______ _______ _____ _____    ______ ____
ROOT
ATOM      1  O   UNL     1       1.074  -0.212  -0.229  0.00  0.00    +0.000 OA
ATOM      2  C   UNL     1       2.303  -0.164  -0.253  0.00  0.00    +0.000 C 
ATOM      3  N   UNL     1       3.057  -1.164   0.315  0.00  0.00    +0.000 N 
ATOM      4  H   UNL     1       4.069  -1.176   0.220  0.00  0.00    +0.000 HD
ENDROOT
BRANCH   2   5
ATOM      5  C   UNL     1       3.001   0.988  -0.842  0.00  0.00    +0.000 A 
ATOM      6  C   UNL     1       2.250   2.063  -1.303  0.00  0.00    +0.000 A 
ATOM      7  S   UNL     1       3.185   3.370  -1.866  0.00  0.00    +0.000 S 
ATOM      8  C   UNL     1       4.632   2.548  -1.521  0.00  0.00    +0.000 A 
ATOM      9  N   UNL     1       5.835   3.147  -1.726  0.00  0.00    +0.000 NA
ATOM     10  C   UNL     1       6.855   2.406  -1.448  0.00  0.00    +0.000 A 
ATOM     11  N   UNL     1       6.778   1.112  -1.003  0.00  0.00    +0.000 N 
ATOM     12  C   UNL     1       5.584   0.469  -0.770  0.00  0.00    +0.000 A 
ATOM     13  O   UNL     1       5.552  -0.691  -0.371  0.00  0.00    +0.000 OA
ATOM     14  C   UNL     1       4.405   1.272  -1.032  0.00  0.00    +0.000 A 
ATOM     15  H   UNL     1       7.616   0.578  -0.829  0.00  0.00    +0.000 HD
ENDBRANCH   2   5
BRANCH   3  16
ATOM     16  C   UNL     1       2.399  -2.248   1.005  0.00  0.00    +0.000 C 
BRANCH  16  17
ATOM     17  C   UNL     1       3.347  -3.264   1.566  0.00  0.00    +0.000 A 
ATOM     18  C   UNL     1       3.935  -3.114   2.824  0.00  0.00    +0.000 A 
ATOM     19  C   UNL     1       4.754  -4.123   3.335  0.00  0.00    +0.000 A 
ATOM     20  C   UNL     1       4.988  -5.259   2.562  0.00  0.00    +0.000 A 
ATOM     21  N   UNL     1       4.452  -5.410   1.325  0.00  0.00    +0.000 NA
ATOM     22  C   UNL     1       3.651  -4.422   0.861  0.00  0.00    +0.000 A 
BRANCH  20  23
ATOM     23  C   UNL     1       5.877  -6.369   3.063  0.00  0.00    +0.000 C 
BRANCH  23  24
ATOM     24  N   UNL     1       5.146  -7.375   3.815  0.00  0.00    +0.000 N 
ATOM     25  C   UNL     1       5.401  -7.766   5.104  0.00  0.00    +0.000 A 
ATOM     26  C   UNL     1       4.581  -8.849   5.314  0.00  0.00    +0.000 A 
ATOM     27  N   UNL     1       3.832  -9.118   4.198  0.00  0.00    +0.000 NA
ATOM     28  C   UNL     1       4.196  -8.219   3.311  0.00  0.00    +0.000 A 
ENDBRANCH  23  24
ENDBRANCH  20  23
ENDBRANCH  16  17
ENDBRANCH   3  16
TORSDOF 5
