REMARK  Name = 
REMARK  5 active torsions:
REMARK  status: ('A' for Active; 'I' for Inactive)
REMARK    1  A    between atoms: N_1  and  C_2
REMARK    2  A    between atoms: C_2  and  C_3
REMARK    3  A    between atoms: C_6  and  O_7
REMARK    4  A    between atoms: O_7  and  C_8
REMARK    5  A    between atoms: C_8  and  C_9
REMARK                            x       y       z     vdW  Elec       q    Type
REMARK                         _______ _______ _______ _____ _____    ______ ____
ROOT
ATOM      1  C   UNL     1       2.878   1.115   0.858  0.00  0.00    +0.000 A 
ATOM      2  C   UNL     1       2.790   2.470   0.506  0.00  0.00    +0.000 A 
ATOM      3  C   UNL     1       3.049   3.467   1.449  0.00  0.00    +0.000 A 
ATOM      4  C   UNL     1       3.386   3.124   2.759  0.00  0.00    +0.000 A 
ATOM      5  C   UNL     1       3.544   1.780   3.096  0.00  0.00    +0.000 A 
ATOM      6  C   UNL     1       3.279   0.782   2.156  0.00  0.00    +0.000 A 
ENDROOT
BRANCH   1   7
ATOM      7  C   UNL     1       2.518   0.031  -0.126  0.00  0.00    +0.000 C 
BRANCH   7   8
ATOM      8  N   UNL     1       3.365   0.066  -1.308  0.00  0.00    +0.000 NA
ATOM      9  H   UNL     1       3.183  -0.763  -1.871  0.00  0.00    +0.000 HD
ATOM     10  H   UNL     1       4.341   0.004  -1.015  0.00  0.00    +0.000 HD
ENDBRANCH   7   8
ENDBRANCH   1   7
BRANCH   4  11
ATOM     11  O   UNL     1       3.525   4.170   3.636  0.00  0.00    +0.000 OA
BRANCH  11  12
ATOM     12  C   UNL     1       3.340   3.823   5.008  0.00  0.00    +0.000 C 
BRANCH  12  13
ATOM     13  C   UNL     1       2.952   5.044   5.799  0.00  0.00    +0.000 A 
ATOM     14  C   UNL     1       1.827   5.796   5.443  0.00  0.00    +0.000 A 
ATOM     15  C   UNL     1       1.461   6.866   6.245  0.00  0.00    +0.000 A 
ATOM     16  N   UNL     1       2.126   7.231   7.361  0.00  0.00    +0.000 NA
ATOM     17  C   UNL     1       3.209   6.495   7.680  0.00  0.00    +0.000 A 
ATOM     18  F   UNL     1       3.881   6.830   8.791  0.00  0.00    +0.000 F 
ATOM     19  C   UNL     1       3.655   5.408   6.948  0.00  0.00    +0.000 A 
ENDBRANCH  12  13
ENDBRANCH  11  12
ENDBRANCH   4  11
TORSDOF 5
