REMARK  Name = 
REMARK  8 active torsions:
REMARK  status: ('A' for Active; 'I' for Inactive)
REMARK    1  A    between atoms: C_1  and  O_2
REMARK    2  A    between atoms: O_2  and  C_3
REMARK    3  A    between atoms: C_5  and  N_6
REMARK    4  A    between atoms: N_6  and  C_7
REMARK    5  A    between atoms: C_7  and  C_8
REMARK    6  A    between atoms: C_13  and  C_14
REMARK    7  A    between atoms: C_17  and  C_18
REMARK    8  A    between atoms: C_26  and  C_27
REMARK                            x       y       z     vdW  Elec       q    Type
REMARK                         _______ _______ _______ _____ _____    ______ ____
ROOT
ATOM      1  C   UNL     1       1.959   0.593   6.606  0.00  0.00    +0.000 A 
ATOM      2  C   UNL     1       1.860  -0.557   7.391  0.00  0.00    +0.000 A 
ATOM      3  C   UNL     1       1.731  -0.438   8.766  0.00  0.00    +0.000 A 
ATOM      4  F   UNL     1       1.610  -1.543   9.513  0.00  0.00    +0.000 F 
ATOM      5  C   UNL     1       1.712   0.809   9.385  0.00  0.00    +0.000 A 
ATOM      6  C   UNL     1       1.807   1.992   8.633  0.00  0.00    +0.000 A 
ATOM      7  C   UNL     1       1.935   1.853   7.235  0.00  0.00    +0.000 A 
ENDROOT
BRANCH   6   8
ATOM      8  C   UNL     1       1.758   3.328   9.278  0.00  0.00    +0.000 A 
ATOM      9  C   UNL     1       2.450   4.430   8.744  0.00  0.00    +0.000 A 
ATOM     10  C   UNL     1       2.392   5.696   9.341  0.00  0.00    +0.000 A 
ATOM     11  C   UNL     1       1.647   5.899  10.508  0.00  0.00    +0.000 A 
ATOM     12  C   UNL     1       0.961   4.812  11.059  0.00  0.00    +0.000 A 
ATOM     13  C   UNL     1       1.011   3.552  10.450  0.00  0.00    +0.000 A 
BRANCH  11  14
ATOM     14  C   UNL     1       1.575   7.253  11.167  0.00  0.00    +0.000 C 
ATOM     15  F   UNL     1       2.292   8.214  10.521  0.00  0.00    +0.000 F 
ATOM     16  F   UNL     1       0.300   7.727  11.241  0.00  0.00    +0.000 F 
ATOM     17  F   UNL     1       2.042   7.236  12.446  0.00  0.00    +0.000 F 
ENDBRANCH  11  14
ENDBRANCH   6   8
BRANCH   1  18
ATOM     18  C   UNL     1       2.050   0.486   5.107  0.00  0.00    +0.000 C 
BRANCH  18  19
ATOM     19  N   UNL     1       3.417   0.362   4.661  0.00  0.00    +0.000 N 
ATOM     20  H   UNL     1       4.172   0.278   5.329  0.00  0.00    +0.000 HD
BRANCH  19  23
ATOM     21  C   UNL     1       3.213   0.138   0.986  0.00  0.00    +0.000 A 
ATOM     22  C   UNL     1       2.820   0.253   2.316  0.00  0.00    +0.000 A 
ATOM     23  C   UNL     1       3.769   0.244   3.336  0.00  0.00    +0.000 A 
ATOM     24  N   UNL     1       5.083   0.134   3.066  0.00  0.00    +0.000 NA
ATOM     25  C   UNL     1       5.446   0.018   1.751  0.00  0.00    +0.000 A 
ATOM     26  C   UNL     1       4.555  -0.000   0.692  0.00  0.00    +0.000 A 
BRANCH  25  27
ATOM     27  C   UNL     1       6.914  -0.068   1.457  0.00  0.00    +0.000 C 
ATOM     28  N   UNL     1       7.743  -0.009   2.546  0.00  0.00    +0.000 N 
ATOM     29  O   UNL     1       7.359  -0.173   0.322  0.00  0.00    +0.000 OA
ATOM     30  H   UNL     1       7.343   0.102   3.470  0.00  0.00    +0.000 HD
ATOM     31  H   UNL     1       8.741  -0.029   2.409  0.00  0.00    +0.000 HD
ENDBRANCH  25  27
BRANCH  21  33
ATOM     32  C   UNL     1       1.109   0.778   0.118  0.00  0.00    +0.000 C 
ATOM     33  O   UNL     1       2.356   0.118  -0.080  0.00  0.00    +0.000 OA
ENDBRANCH  21  33
ENDBRANCH  19  23
ENDBRANCH  18  19
ENDBRANCH   1  18
TORSDOF 7
