REMARK  Name = 
REMARK  5 active torsions:
REMARK  status: ('A' for Active; 'I' for Inactive)
REMARK    1  A    between atoms: C_2  and  C_3
REMARK    2  A    between atoms: C_6  and  N_7
REMARK    3  A    between atoms: N_7  and  C_8
REMARK    4  A    between atoms: C_8  and  C_9
REMARK    5  A    between atoms: C_13  and  C_14
REMARK                            x       y       z     vdW  Elec       q    Type
REMARK                         _______ _______ _______ _____ _____    ______ ____
ROOT
ATOM      1  C   UNL     1       8.651  -0.861   0.009  0.00  0.00    +0.000 C 
ATOM      2  C   UNL     1       8.854  -1.473  -1.371  0.00  0.00    +0.000 C 
ATOM      3  C   UNL     1       8.907  -2.340  -0.157  0.00  0.00    +0.000 C 
ENDROOT
BRANCH   1   4
ATOM      4  C   UNL     1       9.735   0.017   0.610  0.00  0.00    +0.000 A 
ATOM      5  C   UNL     1      10.313  -0.254   1.859  0.00  0.00    +0.000 A 
ATOM      6  C   UNL     1      11.133   0.681   2.488  0.00  0.00    +0.000 A 
ATOM      7  C   UNL     1      11.376   1.915   1.882  0.00  0.00    +0.000 A 
ATOM      8  C   UNL     1      10.830   2.232   0.628  0.00  0.00    +0.000 A 
ATOM      9  C   UNL     1      10.055   1.244  -0.002  0.00  0.00    +0.000 A 
BRANCH   8  10
ATOM     10  C   UNL     1      10.961   3.580   0.032  0.00  0.00    +0.000 A 
ATOM     11  C   UNL     1      11.040   3.775  -1.359  0.00  0.00    +0.000 A 
ATOM     12  C   UNL     1      11.095   5.057  -1.913  0.00  0.00    +0.000 A 
ATOM     13  C   UNL     1      11.088   6.176  -1.086  0.00  0.00    +0.000 A 
ATOM     14  C   UNL     1      11.013   6.013   0.293  0.00  0.00    +0.000 A 
ATOM     15  C   UNL     1      10.942   4.730   0.843  0.00  0.00    +0.000 A 
ENDBRANCH   8  10
ENDBRANCH   1   4
BRANCH   1  16
ATOM     16  N   UNL     1       7.312  -0.256   0.153  0.00  0.00    +0.000 N 
ATOM     17  H   UNL     1       7.251   0.669  -0.273  0.00  0.00    +0.000 HD
BRANCH  16  21
ATOM     18  C   UNL     1       4.698  -0.552   3.315  0.00  0.00    +0.000 A 
ATOM     19  N   UNL     1       5.813  -1.305   3.399  0.00  0.00    +0.000 NA
ATOM     20  C   UNL     1       6.689  -1.172   2.376  0.00  0.00    +0.000 A 
ATOM     21  C   UNL     1       6.511  -0.325   1.300  0.00  0.00    +0.000 A 
ATOM     22  C   UNL     1       5.319   0.387   1.344  0.00  0.00    +0.000 A 
ATOM     23  N   UNL     1       4.400   0.307   2.326  0.00  0.00    +0.000 NA
BRANCH  18  25
ATOM     24  N   UNL     1       2.888  -0.859   5.162  0.00  0.00    +0.000 NA
ATOM     25  C   UNL     1       3.701  -0.721   4.342  0.00  0.00    +0.000 C 
ENDBRANCH  18  25
ENDBRANCH  16  21
ENDBRANCH   1  16
TORSDOF 5
