REMARK  Name = 
REMARK  7 active torsions:
REMARK  status: ('A' for Active; 'I' for Inactive)
REMARK    1  A    between atoms: C_1  and  O_2
REMARK    2  A    between atoms: O_2  and  C_3
REMARK    3  A    between atoms: C_7  and  N_8
REMARK    4  A    between atoms: N_8  and  C_9
REMARK    5  A    between atoms: C_12  and  C_13
REMARK    6  A    between atoms: C_13  and  N_14
REMARK    7  A    between atoms: C_15  and  C_17
REMARK                            x       y       z     vdW  Elec       q    Type
REMARK                         _______ _______ _______ _____ _____    ______ ____
ROOT
ATOM      1  C   UNL     1       6.919   2.886   2.801  0.00  0.00    +0.000 A 
ATOM      2  N   UNL     1       7.029   4.207   3.052  0.00  0.00    +0.000 NA
ATOM      3  C   UNL     1       7.659   4.623   4.171  0.00  0.00    +0.000 A 
ATOM      4  C   UNL     1       8.198   3.759   5.113  0.00  0.00    +0.000 A 
ATOM      5  C   UNL     1       8.114   2.393   4.848  0.00  0.00    +0.000 A 
ATOM      6  C   UNL     1       7.466   1.950   3.692  0.00  0.00    +0.000 A 
ATOM      7 CL   UNL     1       7.379   0.250   3.392  0.00  0.00    +0.000 Cl
ENDROOT
BRANCH   1   8
ATOM      8  N   UNL     1       6.249   2.467   1.647  0.00  0.00    +0.000 N 
ATOM      9  H   UNL     1       6.232   1.469   1.484  0.00  0.00    +0.000 HD
BRANCH   8  14
ATOM     10  C   UNL     1       4.992   3.019  -1.632  0.00  0.00    +0.000 A 
ATOM     11  C   UNL     1       4.931   4.391  -1.787  0.00  0.00    +0.000 A 
ATOM     12  C   UNL     1       5.314   5.177  -0.716  0.00  0.00    +0.000 A 
ATOM     13  C   UNL     1       5.740   4.557   0.455  0.00  0.00    +0.000 A 
ATOM     14  C   UNL     1       5.794   3.166   0.535  0.00  0.00    +0.000 A 
ATOM     15  N   UNL     1       5.410   2.397  -0.506  0.00  0.00    +0.000 NA
BRANCH  10  17
ATOM     16  C   UNL     1       4.734   0.869  -2.503  0.00  0.00    +0.000 C 
ATOM     17  O   UNL     1       4.595   2.268  -2.722  0.00  0.00    +0.000 OA
ENDBRANCH  10  17
ENDBRANCH   8  14
ENDBRANCH   1   8
BRANCH   4  18
ATOM     18  C   UNL     1       8.854   4.310   6.338  0.00  0.00    +0.000 C 
BRANCH  18  19
ATOM     19  N   UNL     1      10.260   4.539   6.131  0.00  0.00    +0.000 N 
ATOM     20  C   UNL     1      10.758   5.773   5.799  0.00  0.00    +0.000 C 
ATOM     21  O   UNL     1      10.025   6.748   5.642  0.00  0.00    +0.000 OA
ATOM     22  H   UNL     1      10.863   3.724   6.076  0.00  0.00    +0.000 HD
BRANCH  20  23
ATOM     23  C   UNL     1      12.217   5.891   5.703  0.00  0.00    +0.000 A 
ATOM     24  C   UNL     1      12.811   7.136   5.859  0.00  0.00    +0.000 A 
ATOM     25  S   UNL     1      14.510   7.105   5.732  0.00  0.00    +0.000 S 
ATOM     26  C   UNL     1      14.511   5.432   5.424  0.00  0.00    +0.000 A 
ATOM     27  N   UNL     1      15.672   4.768   5.182  0.00  0.00    +0.000 NA
ATOM     28  C   UNL     1      15.525   3.511   4.926  0.00  0.00    +0.000 A 
ATOM     29  N   UNL     1      14.322   2.854   4.911  0.00  0.00    +0.000 N 
ATOM     30  C   UNL     1      13.131   3.469   5.218  0.00  0.00    +0.000 A 
ATOM     31  O   UNL     1      12.086   2.830   5.316  0.00  0.00    +0.000 OA
ATOM     32  C   UNL     1      13.234   4.897   5.456  0.00  0.00    +0.000 A 
ATOM     33  H   UNL     1      14.281   1.861   4.734  0.00  0.00    +0.000 HD
ENDBRANCH  20  23
ENDBRANCH  18  19
ENDBRANCH   4  18
TORSDOF 6
