REMARK  Name = 
REMARK  8 active torsions:
REMARK  status: ('A' for Active; 'I' for Inactive)
REMARK    1  A    between atoms: C_1  and  C_2
REMARK    2  A    between atoms: C_2  and  C_3
REMARK    3  A    between atoms: C_2  and  C_4
REMARK    4  A    between atoms: C_2  and  C_5
REMARK    5  A    between atoms: C_8  and  C_9
REMARK    6  A    between atoms: N_16  and  C_17
REMARK    7  A    between atoms: C_17  and  C_18
REMARK    8  A    between atoms: C_21  and  O_22
REMARK                            x       y       z     vdW  Elec       q    Type
REMARK                         _______ _______ _______ _____ _____    ______ ____
ROOT
ATOM      1  C   UNL     1       3.025   1.119   0.944  0.00  0.00    +0.000 A 
ATOM      2  N   UNL     1       3.713   1.134   2.070  0.00  0.00    +0.000 NA
ATOM      3  C   UNL     1       3.703   2.422   2.537  0.00  0.00    +0.000 A 
ATOM      4  C   UNL     1       4.265   2.951   3.705  0.00  0.00    +0.000 A 
ATOM      5  C   UNL     1       4.099   4.313   3.883  0.00  0.00    +0.000 A 
ATOM      6  N   UNL     1       3.452   5.133   3.016  0.00  0.00    +0.000 NA
ATOM      7  C   UNL     1       2.893   4.612   1.895  0.00  0.00    +0.000 A 
ATOM      8  C   UNL     1       3.011   3.248   1.665  0.00  0.00    +0.000 A 
ATOM      9  N   UNL     1       2.542   2.403   0.673  0.00  0.00    +0.000 N 
ENDROOT
BRANCH   4  10
ATOM     10  C   UNL     1       4.952   2.121   4.698  0.00  0.00    +0.000 C 
ATOM     11  N   UNL     1       5.049   0.774   4.454  0.00  0.00    +0.000 N 
ATOM     12  O   UNL     1       5.420   2.609   5.718  0.00  0.00    +0.000 OA
ATOM     13  H   UNL     1       4.658   0.368   3.599  0.00  0.00    +0.000 HD
ATOM     14  H   UNL     1       5.499   0.177   5.124  0.00  0.00    +0.000 HD
ENDBRANCH   4  10
BRANCH   1  16
ATOM     15  C   UNL     1       1.266  -0.596   0.642  0.00  0.00    +0.000 C 
ATOM     16  C   UNL     1       2.701  -0.202   0.244  0.00  0.00    +0.000 C 
ATOM     17  C   UNL     1       3.623  -1.338   0.778  0.00  0.00    +0.000 C 
ATOM     18  C   UNL     1       2.959  -0.197  -1.275  0.00  0.00    +0.000 C 
ENDBRANCH   1  16
BRANCH   9  19
ATOM     19  C   UNL     1       1.821   2.881  -0.502  0.00  0.00    +0.000 C 
BRANCH  19  20
ATOM     20  C   UNL     1       0.428   3.447  -0.319  0.00  0.00    +0.000 A 
ATOM     21  C   UNL     1      -0.463   2.974   0.655  0.00  0.00    +0.000 A 
ATOM     22  C   UNL     1      -1.838   3.206   0.532  0.00  0.00    +0.000 A 
ATOM     23  C   UNL     1      -2.327   3.929  -0.554  0.00  0.00    +0.000 A 
ATOM     24  C   UNL     1      -1.445   4.505  -1.458  0.00  0.00    +0.000 A 
ATOM     25  F   UNL     1      -1.898   5.215  -2.502  0.00  0.00    +0.000 F 
ATOM     26  C   UNL     1      -0.078   4.268  -1.348  0.00  0.00    +0.000 A 
BRANCH  23  27
ATOM     27  O   UNL     1      -3.670   4.026  -0.774  0.00  0.00    +0.000 OA
ATOM     28  H   UNL     1      -4.093   3.225  -0.420  0.00  0.00    +0.000 HD
ENDBRANCH  23  27
ENDBRANCH  19  20
ENDBRANCH   9  19
TORSDOF 5
