REMARK  Name = 
REMARK  5 active torsions:
REMARK  status: ('A' for Active; 'I' for Inactive)
REMARK    1  A    between atoms: N_1  and  C_2
REMARK    2  A    between atoms: C_2  and  C_3
REMARK    3  A    between atoms: C_3  and  C_4
REMARK    4  A    between atoms: C_8  and  C_9
REMARK    5  A    between atoms: C_9  and  N_10
REMARK                            x       y       z     vdW  Elec       q    Type
REMARK                         _______ _______ _______ _____ _____    ______ ____
ROOT
ATOM      1  C   UNL     1       4.498   0.088   1.483  0.00  0.00    +0.000 A 
ATOM      2  C   UNL     1       5.355   0.092   0.383  0.00  0.00    +0.000 A 
ATOM      3  C   UNL     1       6.732   0.294   0.538  0.00  0.00    +0.000 A 
ATOM      4  C   UNL     1       7.277   0.501   1.806  0.00  0.00    +0.000 A 
ATOM      5  C   UNL     1       6.457   0.483   2.940  0.00  0.00    +0.000 A 
ATOM      6  C   UNL     1       5.074   0.291   2.761  0.00  0.00    +0.000 A 
ENDROOT
BRANCH   1   7
ATOM      7  C   UNL     1       3.004  -0.016   1.404  0.00  0.00    +0.000 C 
BRANCH   7   8
ATOM      8  C   UNL     1       2.433  -0.817   0.210  0.00  0.00    +0.000 C 
BRANCH   8   9
ATOM      9  N   UNL     1       0.967  -0.856   0.278  0.00  0.00    +0.000 NA
ATOM     10  H   UNL     1       0.604  -1.367  -0.526  0.00  0.00    +0.000 HD
ATOM     11  H   UNL     1       0.597   0.093   0.206  0.00  0.00    +0.000 HD
ENDBRANCH   8   9
ENDBRANCH   7   8
ENDBRANCH   1   7
BRANCH   5  12
ATOM     12  C   UNL     1       7.036   0.604   4.325  0.00  0.00    +0.000 C 
BRANCH  12  13
ATOM     13  N   UNL     1       7.050   1.972   4.833  0.00  0.00    +0.000 N 
ATOM     14  C   UNL     1       8.130   2.816   4.719  0.00  0.00    +0.000 A 
ATOM     15  C   UNL     1       7.830   3.985   5.378  0.00  0.00    +0.000 A 
ATOM     16  C   UNL     1       6.730   3.690   6.219  0.00  0.00    +0.000 A 
ATOM     17  C   UNL     1       6.195   4.306   7.366  0.00  0.00    +0.000 A 
ATOM     18  C   UNL     1       5.073   3.739   7.963  0.00  0.00    +0.000 A 
ATOM     19  F   UNL     1       4.637   4.230   9.131  0.00  0.00    +0.000 F 
ATOM     20  C   UNL     1       4.410   2.665   7.387  0.00  0.00    +0.000 A 
ATOM     21  C   UNL     1       4.931   2.033   6.252  0.00  0.00    +0.000 A 
ATOM     22  C   UNL     1       6.157   2.501   5.748  0.00  0.00    +0.000 A 
ENDBRANCH  12  13
ENDBRANCH   5  12
TORSDOF 5
