REMARK  Name = 
REMARK  5 active torsions:
REMARK  status: ('A' for Active; 'I' for Inactive)
REMARK    1  A    between atoms: C_2  and  C_4
REMARK    2  A    between atoms: C_7  and  O_8
REMARK    3  A    between atoms: O_8  and  C_9
REMARK    4  A    between atoms: C_9  and  C_10
REMARK    5  A    between atoms: C_15  and  N_16
REMARK                            x       y       z     vdW  Elec       q    Type
REMARK                         _______ _______ _______ _____ _____    ______ ____
ROOT
ATOM      1  C   UNL     1       5.909   7.165  -0.292  0.00  0.00    +0.000 A 
ATOM      2  C   UNL     1       5.378   8.458  -0.244  0.00  0.00    +0.000 A 
ATOM      3  C   UNL     1       6.208   9.552  -0.429  0.00  0.00    +0.000 A 
ATOM      4  F   UNL     1       5.695  10.790  -0.383  0.00  0.00    +0.000 F 
ATOM      5  C   UNL     1       7.570   9.385  -0.614  0.00  0.00    +0.000 A 
ATOM      6  C   UNL     1       8.147   8.109  -0.631  0.00  0.00    +0.000 A 
ATOM      7  C   UNL     1       7.285   7.006  -0.517  0.00  0.00    +0.000 A 
ENDROOT
BRANCH   6   8
ATOM      8  N   UNL     1       9.512   7.948  -0.699  0.00  0.00    +0.000 N 
ATOM      9  C   UNL     1      10.424   8.919  -0.084  0.00  0.00    +0.000 C 
ATOM     10  C   UNL     1      11.441   9.422  -1.125  0.00  0.00    +0.000 C 
ATOM     11  N   UNL     1      12.169   8.328  -1.807  0.00  0.00    +0.000 NA
ATOM     12  C   UNL     1      11.183   7.404  -2.415  0.00  0.00    +0.000 C 
ATOM     13  C   UNL     1      10.151   6.837  -1.410  0.00  0.00    +0.000 C 
ATOM     14  H   UNL     1      12.681   7.807  -1.095  0.00  0.00    +0.000 HD
ENDBRANCH   6   8
BRANCH   1  15
ATOM     15  C   UNL     1       5.025   5.991   0.054  0.00  0.00    +0.000 C 
BRANCH  15  16
ATOM     16  O   UNL     1       5.404   4.813  -0.657  0.00  0.00    +0.000 OA
BRANCH  16  20
ATOM     17  C   UNL     1       3.260   1.278  -0.084  0.00  0.00    +0.000 A 
ATOM     18  C   UNL     1       2.875   2.413   0.635  0.00  0.00    +0.000 A 
ATOM     19  C   UNL     1       3.572   3.615   0.476  0.00  0.00    +0.000 A 
ATOM     20  C   UNL     1       4.655   3.693  -0.404  0.00  0.00    +0.000 A 
ATOM     21  C   UNL     1       5.045   2.552  -1.110  0.00  0.00    +0.000 A 
ATOM     22  C   UNL     1       4.355   1.346  -0.951  0.00  0.00    +0.000 A 
BRANCH  17  24
ATOM     23  N   UNL     1       1.238   0.030   0.443  0.00  0.00    +0.000 N 
ATOM     24  C   UNL     1       2.562  -0.020   0.092  0.00  0.00    +0.000 C 
ATOM     25  O   UNL     1       3.130  -1.085  -0.088  0.00  0.00    +0.000 OA
ATOM     26  H   UNL     1       0.753  -0.857   0.485  0.00  0.00    +0.000 HD
ATOM     27  H   UNL     1       0.687   0.869   0.363  0.00  0.00    +0.000 HD
ENDBRANCH  17  24
ENDBRANCH  16  20
ENDBRANCH  15  16
ENDBRANCH   1  15
TORSDOF 5
