REMARK  Name = 
REMARK  4 active torsions:
REMARK  status: ('A' for Active; 'I' for Inactive)
REMARK    1  A    between atoms: C_2  and  C_4
REMARK    2  A    between atoms: N_8  and  C_9
REMARK    3  A    between atoms: C_9  and  C_10
REMARK    4  A    between atoms: C_14  and  C_15
REMARK                            x       y       z     vdW  Elec       q    Type
REMARK                         _______ _______ _______ _____ _____    ______ ____
ROOT
ATOM      1  C   UNL     1       5.169  -1.599   5.658  0.00  0.00    +0.000 C 
ATOM      2  C   UNL     1       5.179  -3.119   5.669  0.00  0.00    +0.000 C 
ATOM      3  C   UNL     1       3.926  -2.391   6.020  0.00  0.00    +0.000 C 
ENDROOT
BRANCH   1   8
ATOM      4  C   UNL     1       3.540   2.304   2.623  0.00  0.00    +0.000 A 
ATOM      5  C   UNL     1       2.780   1.474   3.443  0.00  0.00    +0.000 A 
ATOM      6  C   UNL     1       3.388   0.382   4.065  0.00  0.00    +0.000 A 
ATOM      7  C   UNL     1       4.737   0.135   3.847  0.00  0.00    +0.000 A 
ATOM      8  N   UNL     1       5.388  -1.009   4.321  0.00  0.00    +0.000 N 
ATOM      9  N   UNL     1       5.486   0.933   3.054  0.00  0.00    +0.000 NA
ATOM     10  C   UNL     1       4.879   1.994   2.459  0.00  0.00    +0.000 A 
ATOM     11  H   UNL     1       6.365  -0.866   4.068  0.00  0.00    +0.000 HD
BRANCH   4  13
ATOM     12  N   UNL     1       1.844   4.034   2.428  0.00  0.00    +0.000 N 
ATOM     13  C   UNL     1       2.964   3.459   1.896  0.00  0.00    +0.000 C 
ATOM     14  O   UNL     1       3.485   3.901   0.883  0.00  0.00    +0.000 OA
ATOM     15  H   UNL     1       1.506   4.872   1.971  0.00  0.00    +0.000 HD
ATOM     16  H   UNL     1       1.538   3.865   3.369  0.00  0.00    +0.000 HD
ENDBRANCH   4  13
ENDBRANCH   1   8
BRANCH   1  17
ATOM     17  C   UNL     1       5.900  -0.838   6.759  0.00  0.00    +0.000 A 
ATOM     18  C   UNL     1       7.302  -0.774   6.791  0.00  0.00    +0.000 A 
ATOM     19  C   UNL     1       7.969   0.095   7.655  0.00  0.00    +0.000 A 
ATOM     20  C   UNL     1       7.240   0.918   8.513  0.00  0.00    +0.000 A 
ATOM     21  C   UNL     1       5.837   0.867   8.554  0.00  0.00    +0.000 A 
ATOM     22  C   UNL     1       5.199  -0.046   7.688  0.00  0.00    +0.000 A 
BRANCH  21  23
ATOM     23  C   UNL     1       5.046   1.789   9.391  0.00  0.00    +0.000 A 
ATOM     24  N   UNL     1       5.694   2.811   9.989  0.00  0.00    +0.000 NA
ATOM     25  C   UNL     1       4.932   3.706  10.642  0.00  0.00    +0.000 A 
ATOM     26  C   UNL     1       3.564   3.620  10.728  0.00  0.00    +0.000 A 
ATOM     27  C   UNL     1       2.998   2.536  10.103  0.00  0.00    +0.000 A 
ATOM     28  N   UNL     1       3.708   1.617   9.430  0.00  0.00    +0.000 NA
ENDBRANCH  21  23
ENDBRANCH   1  17
TORSDOF 4
