REMARK  Name = 
REMARK  7 active torsions:
REMARK  status: ('A' for Active; 'I' for Inactive)
REMARK    1  A    between atoms: C_1  and  C_2
REMARK    2  A    between atoms: C_2  and  N_3
REMARK    3  A    between atoms: C_2  and  C_21
REMARK    4  A    between atoms: C_4  and  C_6
REMARK    5  A    between atoms: C_9  and  C_10
REMARK    6  A    between atoms: C_10  and  N_11
REMARK    7  A    between atoms: C_12  and  C_14
REMARK                            x       y       z     vdW  Elec       q    Type
REMARK                         _______ _______ _______ _____ _____    ______ ____
ROOT
ATOM      1  N   UNL     1       1.359   2.197   1.547  0.00  0.00    +0.000 N 
ATOM      2  C   UNL     1       2.697   1.928   1.760  0.00  0.00    +0.000 C 
ATOM      3  O   UNL     1       3.409   1.349   0.944  0.00  0.00    +0.000 OA
ATOM      4  H   UNL     1       0.884   2.741   2.260  0.00  0.00    +0.000 HD
ENDROOT
BRANCH   2   5
ATOM      5  C   UNL     1       3.267   2.402   3.069  0.00  0.00    +0.000 A 
ATOM      6  C   UNL     1       4.595   2.119   3.376  0.00  0.00    +0.000 A 
ATOM      7  C   UNL     1       5.126   2.603   4.572  0.00  0.00    +0.000 A 
ATOM      8  C   UNL     1       4.320   3.348   5.438  0.00  0.00    +0.000 A 
ATOM      9  C   UNL     1       3.000   3.569   5.044  0.00  0.00    +0.000 A 
ATOM     10  N   UNL     1       2.448   3.119   3.885  0.00  0.00    +0.000 NA
BRANCH   8  11
ATOM     11  C   UNL     1       4.847   3.883   6.742  0.00  0.00    +0.000 C 
BRANCH  11  12
ATOM     12  N   UNL     1       5.431   5.195   6.623  0.00  0.00    +0.000 N 
ATOM     13  C   UNL     1       5.883   5.888   7.729  0.00  0.00    +0.000 C 
ATOM     14  O   UNL     1       5.816   5.446   8.870  0.00  0.00    +0.000 OA
ATOM     15  H   UNL     1       5.615   5.628   5.722  0.00  0.00    +0.000 HD
BRANCH  13  16
ATOM     16  C   UNL     1       6.452   7.211   7.411  0.00  0.00    +0.000 A 
ATOM     17  C   UNL     1       7.034   8.137   8.321  0.00  0.00    +0.000 A 
ATOM     18  C   UNL     1       7.395   9.222   7.558  0.00  0.00    +0.000 A 
ATOM     19  N   UNL     1       7.027   8.918   6.283  0.00  0.00    +0.000 N 
ATOM     20  N   UNL     1       6.466   7.702   6.154  0.00  0.00    +0.000 NA
ATOM     21  H   UNL     1       7.130   9.491   5.451  0.00  0.00    +0.000 HD
ENDBRANCH  13  16
ENDBRANCH  11  12
ENDBRANCH   8  11
ENDBRANCH   2   5
BRANCH   1  23
ATOM     22  C   UNL     1       0.848   2.948  -0.752  0.00  0.00    +0.000 C 
ATOM     23  C   UNL     1       0.692   1.847   0.302  0.00  0.00    +0.000 C 
BRANCH  23  24
ATOM     24  C   UNL     1      -0.764   1.552   0.593  0.00  0.00    +0.000 A 
ATOM     25  C   UNL     1      -1.675   2.484   1.071  0.00  0.00    +0.000 A 
ATOM     26  S   UNL     1      -3.252   1.857   1.256  0.00  0.00    +0.000 S 
ATOM     27  C   UNL     1      -2.775   0.322   0.698  0.00  0.00    +0.000 A 
ATOM     28  N   UNL     1      -3.672  -0.697   0.593  0.00  0.00    +0.000 NA
ATOM     29  C   UNL     1      -3.172  -1.799   0.141  0.00  0.00    +0.000 A 
ATOM     30  N   UNL     1      -1.860  -1.977  -0.213  0.00  0.00    +0.000 N 
ATOM     31  C   UNL     1      -0.915  -0.979  -0.122  0.00  0.00    +0.000 A 
ATOM     32  O   UNL     1       0.245  -1.180  -0.459  0.00  0.00    +0.000 OA
ATOM     33  C   UNL     1      -1.430   0.285   0.379  0.00  0.00    +0.000 A 
ATOM     34  H   UNL     1      -1.532  -2.863  -0.565  0.00  0.00    +0.000 HD
ENDBRANCH  23  24
ENDBRANCH   1  23
TORSDOF 6
