REMARK  Name = 
REMARK  5 active torsions:
REMARK  status: ('A' for Active; 'I' for Inactive)
REMARK    1  A    between atoms: C_2  and  C_20
REMARK    2  A    between atoms: N_3  and  C_4
REMARK    3  A    between atoms: C_4  and  C_5
REMARK    4  A    between atoms: C_8  and  C_9
REMARK    5  A    between atoms: C_9  and  C_12
REMARK                            x       y       z     vdW  Elec       q    Type
REMARK                         _______ _______ _______ _____ _____    ______ ____
ROOT
ATOM      1  C   UNL     1       2.144  -2.691   0.177  0.00  0.00    +0.000 C 
ENDROOT
BRANCH   1   2
ATOM      2  C   UNL     1       3.156  -3.797  -0.008  0.00  0.00    +0.000 A 
ATOM      3  C   UNL     1       4.530  -3.522  -0.079  0.00  0.00    +0.000 A 
ATOM      4  C   UNL     1       5.458  -4.564  -0.198  0.00  0.00    +0.000 A 
ATOM      5  C   UNL     1       5.030  -5.901  -0.250  0.00  0.00    +0.000 A 
ATOM      6  C   UNL     1       3.651  -6.164  -0.258  0.00  0.00    +0.000 A 
ATOM      7  C   UNL     1       2.726  -5.123  -0.144  0.00  0.00    +0.000 A 
BRANCH   5   8
ATOM      8  C   UNL     1       6.038  -7.052  -0.201  0.00  0.00    +0.000 C 
ATOM      9  F   UNL     1       7.168  -6.654   0.483  0.00  0.00    +0.000 F 
ATOM     10  F   UNL     1       5.544  -8.065   0.595  0.00  0.00    +0.000 F 
BRANCH   8  11
ATOM     11  C   UNL     1       6.404  -7.583  -1.607  0.00  0.00    +0.000 A 
ATOM     12  N   UNL     1       7.439  -6.996  -2.263  0.00  0.00    +0.000 NA
ATOM     13  C   UNL     1       7.830  -7.570  -3.420  0.00  0.00    +0.000 A 
ATOM     14  C   UNL     1       7.238  -8.687  -3.952  0.00  0.00    +0.000 A 
ATOM     15  C   UNL     1       6.181  -9.193  -3.238  0.00  0.00    +0.000 A 
ATOM     16  N   UNL     1       5.742  -8.665  -2.080  0.00  0.00    +0.000 NA
ENDBRANCH   8  11
ENDBRANCH   5   8
ENDBRANCH   1   2
BRANCH   1  19
ATOM     17  O   UNL     1      -0.247  -3.304  -1.294  0.00  0.00    +0.000 OA
ATOM     18  C   UNL     1       0.639  -2.612  -1.781  0.00  0.00    +0.000 C 
ATOM     19  N   UNL     1       1.753  -2.170  -1.104  0.00  0.00    +0.000 N 
ATOM     20  H   UNL     1       2.503  -1.772  -1.647  0.00  0.00    +0.000 HD
BRANCH  18  21
ATOM     21  C   UNL     1       0.736  -2.324  -3.206  0.00  0.00    +0.000 A 
ATOM     22  C   UNL     1       0.448  -3.266  -4.176  0.00  0.00    +0.000 A 
ATOM     23  S   UNL     1       1.131  -2.846  -5.693  0.00  0.00    +0.000 S 
ATOM     24  C   UNL     1       1.698  -1.355  -5.091  0.00  0.00    +0.000 A 
ATOM     25  N   UNL     1       2.500  -0.531  -5.817  0.00  0.00    +0.000 NA
ATOM     26  C   UNL     1       2.795   0.580  -5.223  0.00  0.00    +0.000 A 
ATOM     27  N   UNL     1       2.323   0.965  -3.991  0.00  0.00    +0.000 N 
ATOM     28  C   UNL     1       1.502   0.172  -3.226  0.00  0.00    +0.000 A 
ATOM     29  O   UNL     1       1.033   0.560  -2.163  0.00  0.00    +0.000 OA
ATOM     30  C   UNL     1       1.253  -1.130  -3.806  0.00  0.00    +0.000 A 
ATOM     31  H   UNL     1       2.520   1.884  -3.623  0.00  0.00    +0.000 HD
ENDBRANCH  18  21
ENDBRANCH   1  19
TORSDOF 5
