REMARK  Name = 
REMARK  10 active torsions:
REMARK  status: ('A' for Active; 'I' for Inactive)
REMARK    1  A    between atoms: N_1  and  C_2
REMARK    2  A    between atoms: C_2  and  C_3
REMARK    3  A    between atoms: C_3  and  N_4
REMARK    4  A    between atoms: C_3  and  C_20
REMARK    5  A    between atoms: N_4  and  C_5
REMARK    6  A    between atoms: C_5  and  C_6
REMARK    7  A    between atoms: C_9  and  C_10
REMARK    8  A    between atoms: C_10  and  N_11
REMARK    9  A    between atoms: N_11  and  C_12
REMARK   10  A    between atoms: C_12  and  C_13
REMARK                            x       y       z     vdW  Elec       q    Type
REMARK                         _______ _______ _______ _____ _____    ______ ____
ROOT
ATOM      1  N   UNL     1      -5.582  10.654  -2.496  0.00  0.00    +0.000 NA
ATOM      2  H   UNL     1      -4.677  10.187  -2.487  0.00  0.00    +0.000 HD
ENDROOT
BRANCH   1   3
ATOM      3  C   UNL     1      -5.777  11.259  -1.162  0.00  0.00    +0.000 C 
BRANCH   3   4
ATOM      4  C   UNL     1      -4.532  12.085  -0.857  0.00  0.00    +0.000 A 
ATOM      5  C   UNL     1      -3.812  12.811  -1.798  0.00  0.00    +0.000 A 
ATOM      6  S   UNL     1      -2.485  13.651  -1.142  0.00  0.00    +0.000 S 
ATOM      7  C   UNL     1      -2.841  13.107   0.431  0.00  0.00    +0.000 A 
ATOM      8  N   UNL     1      -2.095  13.495   1.500  0.00  0.00    +0.000 NA
ATOM      9  C   UNL     1      -2.502  13.023   2.629  0.00  0.00    +0.000 A 
ATOM     10  N   UNL     1      -3.575  12.181   2.790  0.00  0.00    +0.000 N 
ATOM     11  C   UNL     1      -4.351  11.745   1.737  0.00  0.00    +0.000 A 
ATOM     12  O   UNL     1      -5.292  10.978   1.906  0.00  0.00    +0.000 OA
ATOM     13  C   UNL     1      -3.945  12.271   0.448  0.00  0.00    +0.000 A 
ATOM     14  H   UNL     1      -3.834  11.843   3.704  0.00  0.00    +0.000 HD
ENDBRANCH   3   4
BRANCH   3  15
ATOM     15  C   UNL     1      -7.069  12.135  -1.039  0.00  0.00    +0.000 C 
BRANCH  15  16
ATOM     16  N   UNL     1      -7.153  13.237  -2.007  0.00  0.00    +0.000 NA
ATOM     17  H   UNL     1      -8.075  13.663  -1.974  0.00  0.00    +0.000 HD
ATOM     18  H   UNL     1      -7.015  12.854  -2.943  0.00  0.00    +0.000 HD
ENDBRANCH  15  16
ENDBRANCH   3  15
ENDBRANCH   1   3
BRANCH   1  19
ATOM     19  C   UNL     1      -6.598   9.661  -2.839  0.00  0.00    +0.000 C 
BRANCH  19  20
ATOM     20  C   UNL     1      -6.283   8.991  -4.160  0.00  0.00    +0.000 A 
ATOM     21  C   UNL     1      -5.126   8.214  -4.324  0.00  0.00    +0.000 A 
ATOM     22  C   UNL     1      -4.840   7.614  -5.553  0.00  0.00    +0.000 A 
ATOM     23  C   UNL     1      -5.711   7.761  -6.641  0.00  0.00    +0.000 A 
ATOM     24  C   UNL     1      -6.877   8.518  -6.473  0.00  0.00    +0.000 A 
ATOM     25  C   UNL     1      -7.158   9.129  -5.248  0.00  0.00    +0.000 A 
BRANCH  23  26
ATOM     26  C   UNL     1      -5.388   7.136  -7.977  0.00  0.00    +0.000 C 
BRANCH  26  27
ATOM     27  N   UNL     1      -5.258   5.684  -7.859  0.00  0.00    +0.000 NA
ATOM     28  H   UNL     1      -6.116   5.319  -7.448  0.00  0.00    +0.000 HD
BRANCH  27  29
ATOM     29  C   UNL     1      -5.020   5.067  -9.164  0.00  0.00    +0.000 C 
BRANCH  29  30
ATOM     30  C   UNL     1      -4.908   3.547  -9.028  0.00  0.00    +0.000 C 
ATOM     31  C   UNL     1      -6.162   2.873  -8.486  0.00  0.00    +0.000 C 
ATOM     32  C   UNL     1      -6.037   1.470  -9.035  0.00  0.00    +0.000 C 
ATOM     33  N   UNL     1      -5.550   1.666 -10.404  0.00  0.00    +0.000 NA
ATOM     34  C   UNL     1      -4.672   2.848 -10.369  0.00  0.00    +0.000 C 
ATOM     35  H   UNL     1      -6.350   1.879 -11.002  0.00  0.00    +0.000 HD
ENDBRANCH  29  30
ENDBRANCH  27  29
ENDBRANCH  26  27
ENDBRANCH  23  26
ENDBRANCH  19  20
ENDBRANCH   1  19
TORSDOF 10
