REMARK  Name = 
REMARK  6 active torsions:
REMARK  status: ('A' for Active; 'I' for Inactive)
REMARK    1  A    between atoms: C_1  and  C_2
REMARK    2  A    between atoms: C_3  and  C_4
REMARK    3  A    between atoms: C_7  and  C_8
REMARK    4  A    between atoms: C_14  and  C_15
REMARK    5  A    between atoms: C_14  and  C_16
REMARK    6  A    between atoms: C_19  and  C_20
REMARK                            x       y       z     vdW  Elec       q    Type
REMARK                         _______ _______ _______ _____ _____    ______ ____
ROOT
ATOM      1  C   UNL     1       2.669   0.095  -1.479  0.00  0.00    +0.000 C 
ATOM      2  C   UNL     1       2.354  -0.012   0.010  0.00  0.00    +0.000 C 
ATOM      3  C   UNL     1       3.108  -1.133   0.820  0.00  0.00    +0.000 C 
ATOM      4  C   UNL     1       4.097  -0.027   1.261  0.00  0.00    +0.000 C 
ATOM      5  C   UNL     1       2.972   1.037   1.016  0.00  0.00    +0.000 C 
ATOM      6  C   UNL     1       2.067   1.250   2.245  0.00  0.00    +0.000 C 
ENDROOT
BRANCH   3   7
ATOM      7  C   UNL     1       3.635  -2.425   0.081  0.00  0.00    +0.000 A 
ATOM      8  C   UNL     1       4.986  -2.805   0.040  0.00  0.00    +0.000 A 
ATOM      9  C   UNL     1       5.395  -3.947  -0.648  0.00  0.00    +0.000 A 
ATOM     10  C   UNL     1       4.427  -4.707  -1.279  0.00  0.00    +0.000 A 
ATOM     11  N   UNL     1       3.098  -4.414  -1.252  0.00  0.00    +0.000 NA
ATOM     12  C   UNL     1       2.753  -3.297  -0.574  0.00  0.00    +0.000 A 
BRANCH  10  13
ATOM     13  C   UNL     1       4.822  -5.918  -2.062  0.00  0.00    +0.000 C 
ATOM     14  N   UNL     1       3.789  -6.594  -2.654  0.00  0.00    +0.000 N 
ATOM     15  O   UNL     1       5.986  -6.286  -2.176  0.00  0.00    +0.000 OA
ATOM     16  H   UNL     1       2.843  -6.245  -2.547  0.00  0.00    +0.000 HD
ATOM     17  H   UNL     1       3.980  -7.406  -3.219  0.00  0.00    +0.000 HD
ENDBRANCH  10  13
ENDBRANCH   3   7
BRANCH   5  18
ATOM     18  C   UNL     1       3.477   2.441   0.525  0.00  0.00    +0.000 A 
ATOM     19  N   UNL     1       2.671   3.210  -0.231  0.00  0.00    +0.000 NA
ATOM     20  C   UNL     1       3.137   4.441  -0.545  0.00  0.00    +0.000 A 
ATOM     21  C   UNL     1       4.356   4.929  -0.130  0.00  0.00    +0.000 A 
ATOM     22  C   UNL     1       5.098   4.065   0.639  0.00  0.00    +0.000 A 
ATOM     23  N   UNL     1       4.686   2.831   0.979  0.00  0.00    +0.000 NA
BRANCH  21  24
ATOM     24  C   UNL     1       4.865   6.283  -0.463  0.00  0.00    +0.000 C 
ATOM     25  F   UNL     1       4.019   7.013  -1.240  0.00  0.00    +0.000 F 
ATOM     26  F   UNL     1       5.098   7.038   0.646  0.00  0.00    +0.000 F 
ATOM     27  F   UNL     1       6.048   6.243  -1.136  0.00  0.00    +0.000 F 
ENDBRANCH  21  24
ENDBRANCH   5  18
TORSDOF 4
