REMARK  Name = 
REMARK  2 active torsions:
REMARK  status: ('A' for Active; 'I' for Inactive)
REMARK    1  A    between atoms: N_11  and  C_12
REMARK    2  A    between atoms: C_12  and  C_13
REMARK                            x       y       z     vdW  Elec       q    Type
REMARK                         _______ _______ _______ _____ _____    ______ ____
ROOT
ATOM      1  N   UNL     1       1.140   0.079  -0.075  0.00  0.00    +0.000 NA
ATOM      2  C   UNL     1       2.400  -0.156   0.053  0.00  0.00    +0.000 C 
ATOM      3  N   UNL     1       3.199   0.710   0.713  0.00  0.00    +0.000 N 
ATOM      4  N   UNL     1       3.017  -1.237  -0.494  0.00  0.00    +0.000 N 
ATOM      5  C   UNL     1       2.472  -1.877  -1.712  0.00  0.00    +0.000 C 
ATOM      6  C   UNL     1       3.397  -1.580  -2.924  0.00  0.00    +0.000 C 
ATOM      7  C   UNL     1       4.819  -1.884  -2.546  0.00  0.00    +0.000 A 
ATOM      8  C   UNL     1       5.253  -1.994  -1.235  0.00  0.00    +0.000 A 
ATOM      9  C   UNL     1       6.634  -2.289  -1.274  0.00  0.00    +0.000 A 
ATOM     10  C   UNL     1       7.007  -2.290  -2.602  0.00  0.00    +0.000 A 
ATOM     11  N   UNL     1       5.896  -2.033  -3.379  0.00  0.00    +0.000 N 
ATOM     12  C   UNL     1       4.316  -1.797  -0.075  0.00  0.00    +0.000 C 
ATOM     13  H   UNL     1       0.894   0.927   0.433  0.00  0.00    +0.000 HD
ATOM     14  H   UNL     1       2.778   1.612   0.887  0.00  0.00    +0.000 HD
ATOM     15  H   UNL     1       4.089   0.830   0.243  0.00  0.00    +0.000 HD
ENDROOT
BRANCH  11  16
ATOM     16  C   UNL     1       5.938  -1.746  -4.809  0.00  0.00    +0.000 C 
BRANCH  16  17
ATOM     17  C   UNL     1       5.774  -2.954  -5.696  0.00  0.00    +0.000 A 
ATOM     18  C   UNL     1       6.626  -4.055  -5.601  0.00  0.00    +0.000 A 
ATOM     19  C   UNL     1       6.534  -5.070  -6.552  0.00  0.00    +0.000 A 
ATOM     20  C   UNL     1       5.601  -4.967  -7.573  0.00  0.00    +0.000 A 
ATOM     21  C   UNL     1       4.782  -3.853  -7.595  0.00  0.00    +0.000 A 
ATOM     22  N   UNL     1       4.851  -2.851  -6.689  0.00  0.00    +0.000 NA
ENDBRANCH  16  17
ENDBRANCH  11  16
TORSDOF 2
