REMARK  Name = 
REMARK  8 active torsions:
REMARK  status: ('A' for Active; 'I' for Inactive)
REMARK    1  A    between atoms: C_1  and  N_2
REMARK    2  A    between atoms: N_2  and  C_3
REMARK    3  A    between atoms: N_2  and  C_4
REMARK    4  A    between atoms: C_4  and  C_5
REMARK    5  A    between atoms: C_5  and  C_6
REMARK    6  A    between atoms: N_8  and  C_9
REMARK    7  A    between atoms: C_9  and  C_10
REMARK    8  A    between atoms: C_13  and  C_14
REMARK                            x       y       z     vdW  Elec       q    Type
REMARK                         _______ _______ _______ _____ _____    ______ ____
ROOT
ATOM      1  C   UNL     1       4.863  -1.227  -2.618  0.00  0.00    +0.000 A 
ATOM      2  C   UNL     1       5.352  -0.528  -3.702  0.00  0.00    +0.000 A 
ATOM      3  N   UNL     1       5.627  -1.420  -4.709  0.00  0.00    +0.000 N 
ATOM      4  C   UNL     1       5.290  -2.699  -4.307  0.00  0.00    +0.000 A 
ATOM      5  C   UNL     1       5.341  -3.930  -4.982  0.00  0.00    +0.000 A 
ATOM      6  C   UNL     1       4.912  -5.076  -4.300  0.00  0.00    +0.000 A 
ATOM      7  C   UNL     1       4.467  -5.003  -2.984  0.00  0.00    +0.000 A 
ATOM      8  C   UNL     1       4.428  -3.777  -2.318  0.00  0.00    +0.000 A 
ATOM      9  C   UNL     1       4.828  -2.604  -2.991  0.00  0.00    +0.000 A 
ENDROOT
BRANCH   1  10
ATOM     10  C   UNL     1       4.446  -0.643  -1.306  0.00  0.00    +0.000 C 
BRANCH  10  11
ATOM     11  C   UNL     1       5.642  -0.487  -0.352  0.00  0.00    +0.000 C 
BRANCH  11  13
ATOM     12  C   UNL     1       6.517   0.165   1.785  0.00  0.00    +0.000 C 
ATOM     13  N   UNL     1       5.304   0.092   0.964  0.00  0.00    +0.000 NA
ATOM     14  C   UNL     1       4.711   1.424   0.843  0.00  0.00    +0.000 C 
ENDBRANCH  11  13
ENDBRANCH  10  11
ENDBRANCH   1  10
BRANCH   3  15
ATOM     15  C   UNL     1       6.218  -1.042  -5.992  0.00  0.00    +0.000 C 
BRANCH  15  16
ATOM     16  C   UNL     1       5.158  -0.785  -7.037  0.00  0.00    +0.000 A 
ATOM     17  C   UNL     1       4.217   0.244  -6.869  0.00  0.00    +0.000 A 
ATOM     18  C   UNL     1       3.154   0.389  -7.765  0.00  0.00    +0.000 A 
ATOM     19  C   UNL     1       3.041  -0.468  -8.862  0.00  0.00    +0.000 A 
ATOM     20  C   UNL     1       4.020  -1.444  -9.082  0.00  0.00    +0.000 A 
ATOM     21  C   UNL     1       5.071  -1.599  -8.175  0.00  0.00    +0.000 A 
BRANCH  19  22
ATOM     22  C   UNL     1       1.917  -0.363  -9.742  0.00  0.00    +0.000 C 
ATOM     23  N   UNL     1       0.997  -0.285 -10.452  0.00  0.00    +0.000 NA
ENDBRANCH  19  22
ENDBRANCH  15  16
ENDBRANCH   3  15
TORSDOF 6
