REMARK  Name = 
REMARK  6 active torsions:
REMARK  status: ('A' for Active; 'I' for Inactive)
REMARK    1  A    between atoms: C_1  and  N_2
REMARK    2  A    between atoms: C_3  and  C_5
REMARK    3  A    between atoms: C_8  and  N_9
REMARK    4  A    between atoms: N_9  and  C_10
REMARK    5  A    between atoms: C_10  and  C_11
REMARK    6  A    between atoms: C_10  and  C_12
REMARK                            x       y       z     vdW  Elec       q    Type
REMARK                         _______ _______ _______ _____ _____    ______ ____
ROOT
ATOM      1  C   UNL     1       9.382  -3.767  -4.458  0.00  0.00    +0.000 A 
ATOM      2  C   UNL     1      10.296  -3.421  -3.473  0.00  0.00    +0.000 A 
ATOM      3  N   UNL     1      10.244  -2.238  -2.801  0.00  0.00    +0.000 NA
ATOM      4  C   UNL     1       9.251  -1.394  -3.149  0.00  0.00    +0.000 A 
ATOM      5  C   UNL     1       8.360  -1.747  -4.176  0.00  0.00    +0.000 A 
ATOM      6  N   UNL     1       8.382  -2.930  -4.845  0.00  0.00    +0.000 NA
ENDROOT
BRANCH   1   9
ATOM      7  C   UNL     1       8.432  -6.614  -6.756  0.00  0.00    +0.000 C 
ATOM      8  N   UNL     1       8.501  -5.352  -6.070  0.00  0.00    +0.000 N 
ATOM      9  C   UNL     1       9.463  -5.103  -5.110  0.00  0.00    +0.000 C 
ATOM     10  O   UNL     1      10.333  -5.909  -4.790  0.00  0.00    +0.000 OA
ATOM     11  H   UNL     1       7.830  -4.613  -6.260  0.00  0.00    +0.000 HD
ENDBRANCH   1   9
BRANCH   4  12
ATOM     12  N   UNL     1       9.137  -0.129  -2.562  0.00  0.00    +0.000 N 
ATOM     13  H   UNL     1       9.566   0.548  -3.189  0.00  0.00    +0.000 HD
BRANCH  12  14
ATOM     14  C   UNL     1       9.621   0.010  -1.183  0.00  0.00    +0.000 C 
ATOM     15  C   UNL     1       8.405   0.367  -0.317  0.00  0.00    +0.000 C 
BRANCH  14  16
ATOM     16  C   UNL     1      10.700   1.081  -1.098  0.00  0.00    +0.000 A 
ATOM     17  C   UNL     1      11.976   0.751  -0.613  0.00  0.00    +0.000 A 
ATOM     18  C   UNL     1      12.989   1.713  -0.550  0.00  0.00    +0.000 A 
ATOM     19  C   UNL     1      12.741   3.016  -0.974  0.00  0.00    +0.000 A 
ATOM     20  C   UNL     1      11.476   3.364  -1.443  0.00  0.00    +0.000 A 
ATOM     21  C   UNL     1      10.462   2.406  -1.500  0.00  0.00    +0.000 A 
ENDBRANCH  14  16
ENDBRANCH  12  14
ENDBRANCH   4  12
TORSDOF 4
