REMARK  Name = 
REMARK  4 active torsions:
REMARK  status: ('A' for Active; 'I' for Inactive)
REMARK    1  A    between atoms: C_2  and  C_4
REMARK    2  A    between atoms: C_7  and  N_8
REMARK    3  A    between atoms: N_8  and  C_9
REMARK    4  A    between atoms: C_9  and  C_10
REMARK                            x       y       z     vdW  Elec       q    Type
REMARK                         _______ _______ _______ _____ _____    ______ ____
ROOT
ATOM      1  N   UNL     1       3.653   4.760   4.443  0.00  0.00    +0.000 N 
ATOM      2  H   UNL     1       3.675   5.061   5.414  0.00  0.00    +0.000 HD
ENDROOT
BRANCH   1   6
ATOM      3  C   UNL     1       0.614   1.969   3.553  0.00  0.00    +0.000 A 
ATOM      4  C   UNL     1       1.853   1.864   2.920  0.00  0.00    +0.000 A 
ATOM      5  C   UNL     1       2.874   2.771   3.224  0.00  0.00    +0.000 A 
ATOM      6  C   UNL     1       2.700   3.779   4.180  0.00  0.00    +0.000 A 
ATOM      7  C   UNL     1       1.442   3.881   4.793  0.00  0.00    +0.000 A 
ATOM      8  C   UNL     1       0.405   2.987   4.483  0.00  0.00    +0.000 A 
BRANCH   3  10
ATOM      9  N   UNL     1      -0.184  -0.193   2.755  0.00  0.00    +0.000 N 
ATOM     10  C   UNL     1      -0.506   1.048   3.224  0.00  0.00    +0.000 C 
ATOM     11  O   UNL     1      -1.674   1.376   3.387  0.00  0.00    +0.000 OA
ATOM     12  H   UNL     1      -0.952  -0.835   2.624  0.00  0.00    +0.000 HD
ATOM     13  H   UNL     1       0.746  -0.581   2.835  0.00  0.00    +0.000 HD
ENDBRANCH   3  10
ENDBRANCH   1   6
BRANCH   1  14
ATOM     14  C   UNL     1       4.955   4.722   3.791  0.00  0.00    +0.000 C 
BRANCH  14  15
ATOM     15  C   UNL     1       5.793   5.900   4.212  0.00  0.00    +0.000 A 
ATOM     16  C   UNL     1       7.053   5.734   4.780  0.00  0.00    +0.000 A 
ATOM     17  C   UNL     1       7.763   6.870   5.135  0.00  0.00    +0.000 A 
ATOM     18  N   UNL     1       7.311   8.135   4.972  0.00  0.00    +0.000 NA
ATOM     19  C   UNL     1       6.101   8.300   4.402  0.00  0.00    +0.000 A 
ATOM     20  N   UNL     1       5.549   9.569   4.253  0.00  0.00    +0.000 N 
ATOM     21  C   UNL     1       6.102  10.638   5.093  0.00  0.00    +0.000 C 
ATOM     22  C   UNL     1       5.093  11.803   5.061  0.00  0.00    +0.000 C 
ATOM     23  O   UNL     1       4.861  12.269   3.716  0.00  0.00    +0.000 OA
ATOM     24  C   UNL     1       4.383  11.198   2.879  0.00  0.00    +0.000 C 
ATOM     25  C   UNL     1       5.366  10.016   2.862  0.00  0.00    +0.000 C 
ATOM     26  C   UNL     1       5.329   7.203   4.013  0.00  0.00    +0.000 A 
ENDBRANCH  14  15
ENDBRANCH   1  14
TORSDOF 4
