REMARK  Name = 
REMARK  9 active torsions:
REMARK  status: ('A' for Active; 'I' for Inactive)
REMARK    1  A    between atoms: C_1  and  C_2
REMARK    2  A    between atoms: C_2  and  N_3
REMARK    3  A    between atoms: C_9  and  C_10
REMARK    4  A    between atoms: N_12  and  C_13
REMARK    5  A    between atoms: C_13  and  C_14
REMARK    6  A    between atoms: C_17  and  C_18
REMARK    7  A    between atoms: C_18  and  C_19
REMARK    8  A    between atoms: C_22  and  C_23
REMARK    9  A    between atoms: C_23  and  O_25
REMARK                            x       y       z     vdW  Elec       q    Type
REMARK                         _______ _______ _______ _____ _____    ______ ____
ROOT
ATOM      1  C   UNL     1       6.453  -0.031  -6.991  0.00  0.00    +0.000 C 
ENDROOT
BRANCH   1   2
ATOM      2  C   UNL     1       7.049   0.573  -8.219  0.00  0.00    +0.000 A 
ATOM      3  C   UNL     1       8.340   1.057  -8.264  0.00  0.00    +0.000 A 
ATOM      4  N   UNL     1       8.921   1.554  -9.376  0.00  0.00    +0.000 NA
ATOM      5  C   UNL     1       8.159   1.578 -10.489  0.00  0.00    +0.000 A 
ATOM      6  N   UNL     1       6.873   1.174 -10.542  0.00  0.00    +0.000 NA
ATOM      7  C   UNL     1       6.347   0.688  -9.399  0.00  0.00    +0.000 A 
BRANCH   5   8
ATOM      8  C   UNL     1       8.805   2.033 -11.776  0.00  0.00    +0.000 C 
BRANCH   8   9
ATOM      9  C   UNL     1       9.396   0.890 -12.577  0.00  0.00    +0.000 A 
ATOM     10  C   UNL     1       8.615   0.203 -13.518  0.00  0.00    +0.000 A 
ATOM     11  C   UNL     1       9.144  -0.878 -14.231  0.00  0.00    +0.000 A 
ATOM     12  C   UNL     1      10.458  -1.298 -13.991  0.00  0.00    +0.000 A 
ATOM     13  C   UNL     1      11.247  -0.605 -13.064  0.00  0.00    +0.000 A 
ATOM     14  C   UNL     1      10.718   0.478 -12.358  0.00  0.00    +0.000 A 
BRANCH  12  15
ATOM     15  C   UNL     1      11.076  -2.442 -14.711  0.00  0.00    +0.000 C 
ATOM     16  O   UNL     1      12.275  -2.527 -14.913  0.00  0.00    +0.000 OA
BRANCH  15  17
ATOM     17  O   UNL     1      10.202  -3.401 -15.084  0.00  0.00    +0.000 OA
ATOM     18  H   UNL     1       9.307  -3.315 -14.708  0.00  0.00    +0.000 HD
ENDBRANCH  15  17
ENDBRANCH  12  15
ENDBRANCH   8   9
ENDBRANCH   5   8
ENDBRANCH   1   2
BRANCH   1  21
ATOM     19  C   UNL     1       4.521   1.276  -6.176  0.00  0.00    +0.000 C 
ATOM     20  O   UNL     1       3.730   0.676  -6.899  0.00  0.00    +0.000 OA
ATOM     21  N   UNL     1       5.855   0.959  -6.135  0.00  0.00    +0.000 N 
ATOM     22  H   UNL     1       6.488   1.579  -5.642  0.00  0.00    +0.000 HD
BRANCH  19  29
ATOM     23  N   UNL     1       6.557   5.033  -4.222  0.00  0.00    +0.000 N 
ATOM     24  C   UNL     1       5.647   5.730  -3.452  0.00  0.00    +0.000 A 
ATOM     25  N   UNL     1       4.409   5.402  -3.270  0.00  0.00    +0.000 NA
ATOM     26  C   UNL     1       4.025   4.272  -3.915  0.00  0.00    +0.000 A 
ATOM     27  S   UNL     1       2.427   3.699  -3.800  0.00  0.00    +0.000 S 
ATOM     28  C   UNL     1       2.761   2.391  -4.842  0.00  0.00    +0.000 A 
ATOM     29  C   UNL     1       4.080   2.346  -5.270  0.00  0.00    +0.000 A 
ATOM     30  C   UNL     1       4.813   3.458  -4.706  0.00  0.00    +0.000 A 
ATOM     31  C   UNL     1       6.208   3.842  -4.851  0.00  0.00    +0.000 A 
ATOM     32  O   UNL     1       7.024   3.133  -5.436  0.00  0.00    +0.000 OA
BRANCH  23  34
ATOM     33  C   UNL     1       8.759   4.782  -3.158  0.00  0.00    +0.000 C 
ATOM     34  C   UNL     1       7.951   5.453  -4.261  0.00  0.00    +0.000 C 
ENDBRANCH  23  34
ENDBRANCH  19  29
ENDBRANCH   1  21
TORSDOF 8
