REMARK  Name = 
REMARK  4 active torsions:
REMARK  status: ('A' for Active; 'I' for Inactive)
REMARK    1  A    between atoms: C_2  and  C_4
REMARK    2  A    between atoms: C_7  and  N_8
REMARK    3  A    between atoms: N_8  and  C_9
REMARK    4  A    between atoms: C_9  and  C_10
REMARK                            x       y       z     vdW  Elec       q    Type
REMARK                         _______ _______ _______ _____ _____    ______ ____
ROOT
ATOM      1  C   UNL     1       3.215   0.688   1.010  0.00  0.00    +0.000 A 
ATOM      2  C   UNL     1       2.762   0.691   2.333  0.00  0.00    +0.000 A 
ATOM      3  C   UNL     1       3.543   1.271   3.341  0.00  0.00    +0.000 A 
ATOM      4  C   UNL     1       4.791   1.836   3.053  0.00  0.00    +0.000 A 
ATOM      5  C   UNL     1       5.196   1.890   1.714  0.00  0.00    +0.000 A 
ATOM      6  C   UNL     1       4.431   1.301   0.702  0.00  0.00    +0.000 A 
ENDROOT
BRANCH   1   8
ATOM      7  N   UNL     1       1.113  -0.128   0.082  0.00  0.00    +0.000 N 
ATOM      8  C   UNL     1       2.467   0.007  -0.077  0.00  0.00    +0.000 C 
ATOM      9  O   UNL     1       3.022  -0.402  -1.087  0.00  0.00    +0.000 OA
ATOM     10  H   UNL     1       0.608  -0.517  -0.704  0.00  0.00    +0.000 HD
ATOM     11  H   UNL     1       0.590   0.403   0.762  0.00  0.00    +0.000 HD
ENDBRANCH   1   8
BRANCH   4  12
ATOM     12  N   UNL     1       5.633   2.396   4.014  0.00  0.00    +0.000 N 
ATOM     13  H   UNL     1       5.596   3.416   4.022  0.00  0.00    +0.000 HD
BRANCH  12  14
ATOM     14  C   UNL     1       5.582   1.865   5.383  0.00  0.00    +0.000 C 
BRANCH  14  15
ATOM     15  C   UNL     1       6.568   2.556   6.315  0.00  0.00    +0.000 A 
ATOM     16  N   UNL     1       6.755   3.890   6.172  0.00  0.00    +0.000 NA
ATOM     17  C   UNL     1       7.590   4.473   7.052  0.00  0.00    +0.000 A 
ATOM     18  C   UNL     1       8.218   3.794   8.071  0.00  0.00    +0.000 A 
ATOM     19  C   UNL     1       7.941   2.451   8.148  0.00  0.00    +0.000 A 
ATOM     20  N   UNL     1       7.121   1.810   7.296  0.00  0.00    +0.000 NA
ENDBRANCH  14  15
ENDBRANCH  12  14
ENDBRANCH   4  12
TORSDOF 4
