REMARK  Name = 
REMARK  7 active torsions:
REMARK  status: ('A' for Active; 'I' for Inactive)
REMARK    1  A    between atoms: C_1  and  O_2
REMARK    2  A    between atoms: O_2  and  C_3
REMARK    3  A    between atoms: C_6  and  C_7
REMARK    4  A    between atoms: C_11  and  C_12
REMARK    5  A    between atoms: C_12  and  O_13
REMARK    6  A    between atoms: O_13  and  C_14
REMARK    7  A    between atoms: C_17  and  C_18
REMARK                            x       y       z     vdW  Elec       q    Type
REMARK                         _______ _______ _______ _____ _____    ______ ____
ROOT
ATOM      1  C   UNL     1       5.365   0.664   4.685  0.00  0.00    +0.000 A 
ATOM      2  C   UNL     1       5.837  -0.435   5.423  0.00  0.00    +0.000 A 
ATOM      3  C   UNL     1       6.665  -0.268   6.535  0.00  0.00    +0.000 A 
ATOM      4  C   UNL     1       7.051   1.009   6.930  0.00  0.00    +0.000 A 
ATOM      5  C   UNL     1       6.615   2.128   6.213  0.00  0.00    +0.000 A 
ATOM      6  C   UNL     1       5.755   1.945   5.119  0.00  0.00    +0.000 A 
ENDROOT
BRANCH   1  10
ATOM      7  C   UNL     1       2.928   0.116   1.164  0.00  0.00    +0.000 A 
ATOM      8  C   UNL     1       2.768   1.248   1.959  0.00  0.00    +0.000 A 
ATOM      9  C   UNL     1       3.553   1.422   3.105  0.00  0.00    +0.000 A 
ATOM     10  C   UNL     1       4.524   0.479   3.482  0.00  0.00    +0.000 A 
ATOM     11  C   UNL     1       4.673  -0.649   2.657  0.00  0.00    +0.000 A 
ATOM     12  C   UNL     1       3.886  -0.829   1.516  0.00  0.00    +0.000 A 
BRANCH   7  14
ATOM     13  C   UNL     1       1.194   0.746  -0.318  0.00  0.00    +0.000 C 
ATOM     14  O   UNL     1       2.215  -0.177   0.035  0.00  0.00    +0.000 OA
ENDBRANCH   7  14
ENDBRANCH   1  10
BRANCH   5  15
ATOM     15  C   UNL     1       7.092   3.512   6.574  0.00  0.00    +0.000 C 
BRANCH  15  16
ATOM     16  O   UNL     1       6.198   4.110   7.512  0.00  0.00    +0.000 OA
BRANCH  16  17
ATOM     17  C   UNL     1       6.495   5.392   7.889  0.00  0.00    +0.000 A 
ATOM     18  C   UNL     1       7.592   6.139   7.467  0.00  0.00    +0.000 A 
ATOM     19  C   UNL     1       7.758   7.446   7.928  0.00  0.00    +0.000 A 
ATOM     20  C   UNL     1       6.814   7.964   8.805  0.00  0.00    +0.000 A 
ATOM     21  N   UNL     1       5.732   7.267   9.248  0.00  0.00    +0.000 NA
ATOM     22  C   UNL     1       5.607   6.000   8.774  0.00  0.00    +0.000 A 
BRANCH  20  23
ATOM     23  C   UNL     1       6.964   9.373   9.294  0.00  0.00    +0.000 C 
ATOM     24  N   UNL     1       5.993   9.805  10.151  0.00  0.00    +0.000 N 
ATOM     25  O   UNL     1       7.890  10.096   8.947  0.00  0.00    +0.000 OA
ATOM     26  H   UNL     1       5.233   9.185  10.402  0.00  0.00    +0.000 HD
ATOM     27  H   UNL     1       6.022  10.753  10.504  0.00  0.00    +0.000 HD
ENDBRANCH  20  23
ENDBRANCH  16  17
ENDBRANCH  15  16
ENDBRANCH   5  15
TORSDOF 6
