REMARK  Name = 
REMARK  3 active torsions:
REMARK  status: ('A' for Active; 'I' for Inactive)
REMARK    1  A    between atoms: C_2  and  C_4
REMARK    2  A    between atoms: N_8  and  C_9
REMARK    3  A    between atoms: C_9  and  C_10
REMARK                            x       y       z     vdW  Elec       q    Type
REMARK                         _______ _______ _______ _____ _____    ______ ____
ROOT
ATOM      1  C   UNL     1       4.072  -0.885  -1.673  0.00  0.00    +0.000 A 
ATOM      2  C   UNL     1       5.304  -0.943  -1.029  0.00  0.00    +0.000 A 
ATOM      3  C   UNL     1       5.813  -2.188  -0.669  0.00  0.00    +0.000 A 
ATOM      4  C   UNL     1       5.108  -3.348  -0.992  0.00  0.00    +0.000 A 
ATOM      5  N   UNL     1       5.687  -4.562  -0.616  0.00  0.00    +0.000 N 
ATOM      6  N   UNL     1       3.912  -3.305  -1.607  0.00  0.00    +0.000 NA
ATOM      7  C   UNL     1       3.409  -2.080  -1.914  0.00  0.00    +0.000 A 
ATOM      8  H   UNL     1       5.643  -4.625   0.398  0.00  0.00    +0.000 HD
ENDROOT
BRANCH   1  10
ATOM      9  N   UNL     1       4.275   1.428  -2.379  0.00  0.00    +0.000 N 
ATOM     10  C   UNL     1       3.442   0.383  -2.082  0.00  0.00    +0.000 C 
ATOM     11  O   UNL     1       2.228   0.492  -2.188  0.00  0.00    +0.000 OA
ATOM     12  H   UNL     1       3.836   2.257  -2.761  0.00  0.00    +0.000 HD
ATOM     13  H   UNL     1       5.262   1.304  -2.550  0.00  0.00    +0.000 HD
ENDBRANCH   1  10
BRANCH   5  14
ATOM     14  C   UNL     1       5.187  -5.766  -1.272  0.00  0.00    +0.000 C 
BRANCH  14  15
ATOM     15  C   UNL     1       6.197  -6.921  -1.071  0.00  0.00    +0.000 C 
ATOM     16  C   UNL     1       6.353  -7.299   0.414  0.00  0.00    +0.000 C 
ATOM     17  C   UNL     1       7.401  -8.388   0.629  0.00  0.00    +0.000 C 
ATOM     18  C   UNL     1       8.742  -7.998   0.016  0.00  0.00    +0.000 C 
ATOM     19  C   UNL     1       8.596  -7.687  -1.469  0.00  0.00    +0.000 C 
ATOM     20  C   UNL     1       7.560  -6.593  -1.712  0.00  0.00    +0.000 C 
ENDBRANCH  14  15
ENDBRANCH   5  14
TORSDOF 3
