REMARK  Name = 
REMARK  6 active torsions:
REMARK  status: ('A' for Active; 'I' for Inactive)
REMARK    1  A    between atoms: C_2  and  C_18
REMARK    2  A    between atoms: N_3  and  C_4
REMARK    3  A    between atoms: C_4  and  C_5
REMARK    4  A    between atoms: C_8  and  O_9
REMARK    5  A    between atoms: O_9  and  C_10
REMARK    6  A    between atoms: C_10  and  C_11
REMARK                            x       y       z     vdW  Elec       q    Type
REMARK                         _______ _______ _______ _____ _____    ______ ____
ROOT
ATOM      1  O   UNL     1       0.623   0.342   0.404  0.00  0.00    +0.000 OA
ATOM      2  C   UNL     1       1.417   0.919   1.139  0.00  0.00    +0.000 C 
ATOM      3  N   UNL     1       2.184   1.979   0.709  0.00  0.00    +0.000 N 
ATOM      4  H   UNL     1       2.969   2.281   1.277  0.00  0.00    +0.000 HD
ENDROOT
BRANCH   2   5
ATOM      5  C   UNL     1       1.571   0.549   2.549  0.00  0.00    +0.000 A 
ATOM      6  C   UNL     1       0.520  -0.022   3.253  0.00  0.00    +0.000 A 
ATOM      7  S   UNL     1       0.906  -0.369   4.882  0.00  0.00    +0.000 S 
ATOM      8  C   UNL     1       2.501   0.193   4.682  0.00  0.00    +0.000 A 
ATOM      9  N   UNL     1       3.398   0.158   5.705  0.00  0.00    +0.000 NA
ATOM     10  C   UNL     1       4.575   0.583   5.394  0.00  0.00    +0.000 A 
ATOM     11  N   UNL     1       4.943   1.047   4.157  0.00  0.00    +0.000 N 
ATOM     12  C   UNL     1       4.058   1.153   3.108  0.00  0.00    +0.000 A 
ATOM     13  O   UNL     1       4.403   1.666   2.049  0.00  0.00    +0.000 OA
ATOM     14  C   UNL     1       2.728   0.660   3.401  0.00  0.00    +0.000 A 
ATOM     15  H   UNL     1       5.874   1.395   3.986  0.00  0.00    +0.000 HD
ENDBRANCH   2   5
BRANCH   3  16
ATOM     16  C   UNL     1       2.187   2.361  -0.678  0.00  0.00    +0.000 C 
BRANCH  16  17
ATOM     17  C   UNL     1       3.098   3.518  -0.975  0.00  0.00    +0.000 A 
ATOM     18  C   UNL     1       2.677   4.842  -0.835  0.00  0.00    +0.000 A 
ATOM     19  C   UNL     1       3.514   5.884  -1.242  0.00  0.00    +0.000 A 
ATOM     20  C   UNL     1       4.764   5.567  -1.751  0.00  0.00    +0.000 A 
ATOM     21  N   UNL     1       5.224   4.303  -1.846  0.00  0.00    +0.000 NA
ATOM     22  C   UNL     1       4.385   3.314  -1.460  0.00  0.00    +0.000 A 
BRANCH  20  23
ATOM     23  O   UNL     1       5.550   6.613  -2.197  0.00  0.00    +0.000 OA
BRANCH  23  24
ATOM     24  C   UNL     1       6.805   6.174  -2.737  0.00  0.00    +0.000 C 
BRANCH  24  25
ATOM     25  C   UNL     1       7.554   7.381  -3.326  0.00  0.00    +0.000 C 
ATOM     26  C   UNL     1       6.795   8.044  -4.460  0.00  0.00    +0.000 C 
ATOM     27  C   UNL     1       7.088   7.114  -5.620  0.00  0.00    +0.000 C 
ATOM     28  O   UNL     1       8.414   6.605  -5.399  0.00  0.00    +0.000 OA
ATOM     29  C   UNL     1       8.814   6.951  -4.061  0.00  0.00    +0.000 C 
ENDBRANCH  24  25
ENDBRANCH  23  24
ENDBRANCH  20  23
ENDBRANCH  16  17
ENDBRANCH   3  16
TORSDOF 6
