REMARK  Name = 
REMARK  5 active torsions:
REMARK  status: ('A' for Active; 'I' for Inactive)
REMARK    1  A    between atoms: C_2  and  C_3
REMARK    2  A    between atoms: N_7  and  C_8
REMARK    3  A    between atoms: C_8  and  C_9
REMARK    4  A    between atoms: C_9  and  C_12
REMARK    5  A    between atoms: C_16  and  C_17
REMARK                            x       y       z     vdW  Elec       q    Type
REMARK                         _______ _______ _______ _____ _____    ______ ____
ROOT
ATOM      1  C   UNL     1      -5.696   0.977  -0.098  0.00  0.00    +0.000 C 
ATOM      2  F   UNL     1      -6.342  -0.001   0.605  0.00  0.00    +0.000 F 
ATOM      3  F   UNL     1      -4.525   1.197   0.562  0.00  0.00    +0.000 F 
ENDROOT
BRANCH   1   4
ATOM      4  C   UNL     1      -6.532   2.234  -0.246  0.00  0.00    +0.000 A 
ATOM      5  C   UNL     1      -7.912   2.101  -0.454  0.00  0.00    +0.000 A 
ATOM      6  C   UNL     1      -8.662   3.194  -0.854  0.00  0.00    +0.000 A 
ATOM      7  C   UNL     1      -8.056   4.440  -0.952  0.00  0.00    +0.000 A 
ATOM      8  C   UNL     1      -6.729   4.645  -0.521  0.00  0.00    +0.000 A 
ATOM      9  C   UNL     1      -5.942   3.514  -0.270  0.00  0.00    +0.000 A 
BRANCH   8  10
ATOM     10  C   UNL     1      -6.329   6.088  -0.183  0.00  0.00    +0.000 C 
ATOM     11  F   UNL     1      -6.432   6.868  -1.308  0.00  0.00    +0.000 F 
ATOM     12  C   UNL     1      -4.936   6.365   0.411  0.00  0.00    +0.000 C 
ATOM     13  C   UNL     1      -4.767   5.883   1.856  0.00  0.00    +0.000 C 
ATOM     14  N   UNL     1      -5.874   6.237   2.748  0.00  0.00    +0.000 NA
ATOM     15  C   UNL     1      -7.172   5.897   2.173  0.00  0.00    +0.000 C 
ATOM     16  C   UNL     1      -7.350   6.627   0.845  0.00  0.00    +0.000 C 
ATOM     17  H   UNL     1      -5.852   7.237   2.948  0.00  0.00    +0.000 HD
ENDBRANCH   8  10
ENDBRANCH   1   4
BRANCH   1  18
ATOM     18  C   UNL     1      -5.402   0.447  -1.526  0.00  0.00    +0.000 C 
BRANCH  18  23
ATOM     19  C   UNL     1      -3.625  -2.714  -5.068  0.00  0.00    +0.000 A 
ATOM     20  C   UNL     1      -3.785  -1.339  -5.114  0.00  0.00    +0.000 A 
ATOM     21  C   UNL     1      -4.128  -0.657  -3.951  0.00  0.00    +0.000 A 
ATOM     22  C   UNL     1      -4.317  -1.365  -2.767  0.00  0.00    +0.000 A 
ATOM     23  N   UNL     1      -4.574  -0.759  -1.551  0.00  0.00    +0.000 N 
ATOM     24  N   UNL     1      -4.184  -2.704  -2.719  0.00  0.00    +0.000 NA
ATOM     25  C   UNL     1      -3.835  -3.350  -3.857  0.00  0.00    +0.000 A 
ATOM     26  H   UNL     1      -4.823  -1.481  -0.875  0.00  0.00    +0.000 HD
BRANCH  19  28
ATOM     27  N   UNL     1      -2.913  -4.049  -7.159  0.00  0.00    +0.000 NA
ATOM     28  C   UNL     1      -3.235  -3.455  -6.215  0.00  0.00    +0.000 C 
ENDBRANCH  19  28
ENDBRANCH  18  23
ENDBRANCH   1  18
TORSDOF 5
