REMARK  Name = 
REMARK  5 active torsions:
REMARK  status: ('A' for Active; 'I' for Inactive)
REMARK    1  A    between atoms: N_1  and  C_2
REMARK    2  A    between atoms: C_2  and  C_3
REMARK    3  A    between atoms: C_3  and  C_4
REMARK    4  A    between atoms: C_7  and  C_8
REMARK    5  A    between atoms: C_8  and  N_9
REMARK                            x       y       z     vdW  Elec       q    Type
REMARK                         _______ _______ _______ _____ _____    ______ ____
ROOT
ATOM      1  C   UNL     1       4.740   0.817   1.219  0.00  0.00    +0.000 A 
ATOM      2  C   UNL     1       5.594   0.045   0.428  0.00  0.00    +0.000 A 
ATOM      3  C   UNL     1       6.991   0.220   0.497  0.00  0.00    +0.000 A 
ATOM      4  C   UNL     1       7.561   1.187   1.338  0.00  0.00    +0.000 A 
ATOM      5  C   UNL     1       6.701   1.944   2.142  0.00  0.00    +0.000 A 
ATOM      6  C   UNL     1       5.316   1.757   2.087  0.00  0.00    +0.000 A 
ENDROOT
BRANCH   1   7
ATOM      7  C   UNL     1       3.225   0.733   1.191  0.00  0.00    +0.000 C 
BRANCH   7   8
ATOM      8  C   UNL     1       2.561  -0.197   0.160  0.00  0.00    +0.000 C 
BRANCH   8   9
ATOM      9  N   UNL     1       1.100  -0.123   0.270  0.00  0.00    +0.000 NA
ATOM     10  H   UNL     1       0.672  -0.733  -0.426  0.00  0.00    +0.000 HD
ATOM     11  H   UNL     1       0.785   0.822   0.052  0.00  0.00    +0.000 HD
ENDBRANCH   8   9
ENDBRANCH   7   8
ENDBRANCH   1   7
BRANCH   4  12
ATOM     12  C   UNL     1       9.039   1.551   1.263  0.00  0.00    +0.000 C 
BRANCH  12  13
ATOM     13  N   UNL     1       9.185   2.698   0.388  0.00  0.00    +0.000 N 
ATOM     14  C   UNL     1       8.846   2.618  -1.033  0.00  0.00    +0.000 C 
ATOM     15  C   UNL     1       8.607   4.078  -1.439  0.00  0.00    +0.000 C 
ATOM     16  C   UNL     1       9.726   4.663  -0.643  0.00  0.00    +0.000 A 
ATOM     17  C   UNL     1      10.466   5.793  -0.874  0.00  0.00    +0.000 A 
ATOM     18  N   UNL     1      11.490   6.128  -0.072  0.00  0.00    +0.000 NA
ATOM     19  C   UNL     1      11.717   5.315   0.994  0.00  0.00    +0.000 A 
ATOM     20 CL   UNL     1      13.105   5.765   1.908  0.00  0.00    +0.000 Cl
ATOM     21  C   UNL     1      10.995   4.171   1.325  0.00  0.00    +0.000 A 
ATOM     22  C   UNL     1       9.998   3.819   0.449  0.00  0.00    +0.000 A 
ENDBRANCH  12  13
ENDBRANCH   4  12
TORSDOF 5
