REMARK  Name = 
REMARK  8 active torsions:
REMARK  status: ('A' for Active; 'I' for Inactive)
REMARK    1  A    between atoms: C_1  and  C_2
REMARK    2  A    between atoms: C_2  and  C_3
REMARK    3  A    between atoms: C_2  and  C_4
REMARK    4  A    between atoms: C_2  and  C_5
REMARK    5  A    between atoms: C_8  and  C_9
REMARK    6  A    between atoms: C_9  and  O_10
REMARK    7  A    between atoms: O_10  and  C_11
REMARK    8  A    between atoms: C_14  and  C_15
REMARK                            x       y       z     vdW  Elec       q    Type
REMARK                         _______ _______ _______ _____ _____    ______ ____
ROOT
ATOM      1  C   UNL     1       3.488   3.285  -3.199  0.00  0.00    +0.000 C 
ENDROOT
BRANCH   1   5
ATOM      2  C   UNL     1       3.074   1.247   0.410  0.00  0.00    +0.000 C 
ATOM      3  N   UNL     1       4.454   1.490   0.012  0.00  0.00    +0.000 NA
ATOM      4  C   UNL     1       4.602   1.977  -1.346  0.00  0.00    +0.000 C 
ATOM      5  C   UNL     1       3.663   3.137  -1.680  0.00  0.00    +0.000 C 
ATOM      6  C   UNL     1       2.278   2.983  -1.048  0.00  0.00    +0.000 C 
ATOM      7  O   UNL     1       2.290   2.423   0.250  0.00  0.00    +0.000 OA
ATOM      8  H   UNL     1       5.019   0.660   0.164  0.00  0.00    +0.000 HD
BRANCH   2  10
ATOM      9  C   UNL     1       3.130  -1.299   0.556  0.00  0.00    +0.000 C 
ATOM     10  C   UNL     1       2.384  -0.093  -0.061  0.00  0.00    +0.000 C 
ATOM     11  C   UNL     1       2.346  -0.333  -1.582  0.00  0.00    +0.000 C 
ATOM     12  C   UNL     1       0.925  -0.127   0.446  0.00  0.00    +0.000 C 
ENDBRANCH   2  10
ENDBRANCH   1   5
BRANCH   1  13
ATOM     13  O   UNL     1       4.739   3.534  -3.854  0.00  0.00    +0.000 OA
BRANCH  13  14
ATOM     14  C   UNL     1       4.605   3.558  -5.231  0.00  0.00    +0.000 A 
ATOM     15  C   UNL     1       5.738   3.802  -6.004  0.00  0.00    +0.000 A 
ATOM     16  N   UNL     1       5.720   3.820  -7.364  0.00  0.00    +0.000 NA
ATOM     17  C   UNL     1       4.497   3.580  -7.919  0.00  0.00    +0.000 A 
ATOM     18  C   UNL     1       3.365   3.343  -7.152  0.00  0.00    +0.000 A 
ATOM     19  N   UNL     1       3.395   3.326  -5.794  0.00  0.00    +0.000 NA
BRANCH  17  20
ATOM     20  C   UNL     1       4.381   3.555  -9.406  0.00  0.00    +0.000 C 
ATOM     21  N   UNL     1       5.540   3.785 -10.098  0.00  0.00    +0.000 N 
ATOM     22  O   UNL     1       3.319   3.341  -9.976  0.00  0.00    +0.000 OA
ATOM     23  H   UNL     1       6.407   3.953  -9.609  0.00  0.00    +0.000 HD
ATOM     24  H   UNL     1       5.520   3.766 -11.111  0.00  0.00    +0.000 HD
ENDBRANCH  17  20
ENDBRANCH  13  14
ENDBRANCH   1  13
TORSDOF 5
