REMARK  Name = 
REMARK  6 active torsions:
REMARK  status: ('A' for Active; 'I' for Inactive)
REMARK    1  A    between atoms: C_2  and  C_25
REMARK    2  A    between atoms: N_3  and  C_4
REMARK    3  A    between atoms: C_4  and  C_5
REMARK    4  A    between atoms: C_8  and  C_9
REMARK    5  A    between atoms: C_9  and  N_10
REMARK    6  A    between atoms: C_11  and  C_13
REMARK                            x       y       z     vdW  Elec       q    Type
REMARK                         _______ _______ _______ _____ _____    ______ ____
ROOT
ATOM      1  C   UNL     1       3.319  -3.339  -1.152  0.00  0.00    +0.000 A 
ATOM      2  C   UNL     1       4.642  -3.046  -1.513  0.00  0.00    +0.000 A 
ATOM      3  C   UNL     1       5.557  -4.073  -1.789  0.00  0.00    +0.000 A 
ATOM      4  C   UNL     1       5.162  -5.417  -1.742  0.00  0.00    +0.000 A 
ATOM      5  C   UNL     1       3.838  -5.708  -1.386  0.00  0.00    +0.000 A 
ATOM      6  C   UNL     1       2.925  -4.683  -1.104  0.00  0.00    +0.000 A 
ENDROOT
BRANCH   1   7
ATOM      7  C   UNL     1       2.347  -2.236  -0.820  0.00  0.00    +0.000 C 
BRANCH   7  10
ATOM      8  O   UNL     1       0.351  -0.306  -0.801  0.00  0.00    +0.000 OA
ATOM      9  C   UNL     1       0.645  -0.808  -1.882  0.00  0.00    +0.000 C 
ATOM     10  N   UNL     1       1.619  -1.782  -1.979  0.00  0.00    +0.000 N 
ATOM     11  H   UNL     1       1.927  -2.072  -2.899  0.00  0.00    +0.000 HD
BRANCH   9  12
ATOM     12  C   UNL     1       0.009  -0.419  -3.125  0.00  0.00    +0.000 A 
ATOM     13  C   UNL     1      -0.922   0.586  -3.318  0.00  0.00    +0.000 A 
ATOM     14  N   UNL     1      -1.398   0.732  -4.609  0.00  0.00    +0.000 NA
ATOM     15  C   UNL     1      -0.831  -0.168  -5.380  0.00  0.00    +0.000 A 
ATOM     16  S   UNL     1       0.306  -1.204  -4.625  0.00  0.00    +0.000 S 
ENDBRANCH   9  12
ENDBRANCH   7  10
ENDBRANCH   1   7
BRANCH   4  17
ATOM     17  C   UNL     1       6.134  -6.537  -2.045  0.00  0.00    +0.000 C 
BRANCH  17  18
ATOM     18  N   UNL     1       6.818  -6.988  -0.861  0.00  0.00    +0.000 N 
ATOM     19  C   UNL     1       7.786  -7.965  -0.905  0.00  0.00    +0.000 C 
ATOM     20  O   UNL     1       8.149  -8.486  -1.953  0.00  0.00    +0.000 OA
ATOM     21  H   UNL     1       6.363  -6.796   0.024  0.00  0.00    +0.000 HD
BRANCH  19  22
ATOM     22  C   UNL     1       8.416  -8.300   0.384  0.00  0.00    +0.000 A 
ATOM     23  C   UNL     1       9.706  -8.812   0.419  0.00  0.00    +0.000 A 
ATOM     24  S   UNL     1      10.289  -9.091   1.999  0.00  0.00    +0.000 S 
ATOM     25  C   UNL     1       8.820  -8.586   2.692  0.00  0.00    +0.000 A 
ATOM     26  N   UNL     1       8.631  -8.607   4.038  0.00  0.00    +0.000 NA
ATOM     27  C   UNL     1       7.462  -8.221   4.422  0.00  0.00    +0.000 A 
ATOM     28  N   UNL     1       6.461  -7.806   3.580  0.00  0.00    +0.000 N 
ATOM     29  C   UNL     1       6.620  -7.733   2.219  0.00  0.00    +0.000 A 
ATOM     30  O   UNL     1       5.723  -7.298   1.499  0.00  0.00    +0.000 OA
ATOM     31  C   UNL     1       7.908  -8.180   1.731  0.00  0.00    +0.000 A 
ATOM     32  H   UNL     1       5.572  -7.500   3.943  0.00  0.00    +0.000 HD
ENDBRANCH  19  22
ENDBRANCH  17  18
ENDBRANCH   4  17
TORSDOF 6
