REMARK  Name = 
REMARK  8 active torsions:
REMARK  status: ('A' for Active; 'I' for Inactive)
REMARK    1  A    between atoms: C_2  and  C_3
REMARK    2  A    between atoms: C_7  and  C_8
REMARK    3  A    between atoms: C_8  and  N_9
REMARK    4  A    between atoms: N_9  and  C_10
REMARK    5  A    between atoms: C_10  and  C_11
REMARK    6  A    between atoms: C_14  and  C_15
REMARK    7  A    between atoms: C_15  and  N_16
REMARK    8  A    between atoms: C_17  and  C_19
REMARK                            x       y       z     vdW  Elec       q    Type
REMARK                         _______ _______ _______ _____ _____    ______ ____
ROOT
ATOM      1  C   UNL     1      -5.822  -3.475   0.008  0.00  0.00    +0.000 A 
ATOM      2  C   UNL     1      -6.660  -4.600   0.041  0.00  0.00    +0.000 A 
ATOM      3  C   UNL     1      -8.049  -4.455   0.058  0.00  0.00    +0.000 A 
ATOM      4  C   UNL     1      -8.629  -3.180   0.039  0.00  0.00    +0.000 A 
ATOM      5  C   UNL     1      -7.791  -2.056   0.052  0.00  0.00    +0.000 A 
ATOM      6  C   UNL     1      -6.402  -2.201   0.030  0.00  0.00    +0.000 A 
ENDROOT
BRANCH   1   7
ATOM      7  C   UNL     1      -4.323  -3.643  -0.086  0.00  0.00    +0.000 C 
BRANCH   7   8
ATOM      8  N   UNL     1      -3.909  -4.434  -1.250  0.00  0.00    +0.000 NA
ATOM      9  H   UNL     1      -2.894  -4.537  -1.231  0.00  0.00    +0.000 HD
BRANCH   8  10
ATOM     10  C   UNL     1      -4.256  -3.767  -2.513  0.00  0.00    +0.000 C 
BRANCH  10  15
ATOM     11  C   UNL     1      -2.158  -5.098  -5.249  0.00  0.00    +0.000 A 
ATOM     12  C   UNL     1      -2.942  -6.071  -5.853  0.00  0.00    +0.000 A 
ATOM     13  C   UNL     1      -4.213  -6.303  -5.338  0.00  0.00    +0.000 A 
ATOM     14  C   UNL     1      -4.654  -5.556  -4.249  0.00  0.00    +0.000 A 
ATOM     15  C   UNL     1      -3.810  -4.585  -3.708  0.00  0.00    +0.000 A 
ATOM     16  N   UNL     1      -2.561  -4.357  -4.189  0.00  0.00    +0.000 NA
BRANCH  11  18
ATOM     17  N   UNL     1       0.228  -4.619  -6.160  0.00  0.00    +0.000 NA
ATOM     18  C   UNL     1      -0.835  -4.819  -5.739  0.00  0.00    +0.000 C 
ENDBRANCH  11  18
ENDBRANCH  10  15
ENDBRANCH   8  10
ENDBRANCH   7   8
ENDBRANCH   1   7
BRANCH   4  19
ATOM     19  C   UNL     1     -10.125  -3.007   0.042  0.00  0.00    +0.000 C 
BRANCH  19  20
ATOM     20  N   UNL     1     -10.632  -2.924   1.386  0.00  0.00    +0.000 N 
ATOM     21  C   UNL     1     -11.973  -2.809   1.640  0.00  0.00    +0.000 C 
ATOM     22  O   UNL     1     -12.812  -2.802   0.743  0.00  0.00    +0.000 OA
ATOM     23  H   UNL     1      -9.966  -2.671   2.109  0.00  0.00    +0.000 HD
BRANCH  21  24
ATOM     24  C   UNL     1     -12.360  -2.759   3.055  0.00  0.00    +0.000 A 
ATOM     25  C   UNL     1     -13.628  -3.173   3.441  0.00  0.00    +0.000 A 
ATOM     26  S   UNL     1     -13.888  -3.093   5.125  0.00  0.00    +0.000 S 
ATOM     27  C   UNL     1     -12.333  -2.456   5.391  0.00  0.00    +0.000 A 
ATOM     28  N   UNL     1     -11.914  -2.128   6.643  0.00  0.00    +0.000 NA
ATOM     29  C   UNL     1     -10.721  -1.637   6.696  0.00  0.00    +0.000 A 
ATOM     30  N   UNL     1      -9.906  -1.448   5.610  0.00  0.00    +0.000 N 
ATOM     31  C   UNL     1     -10.276  -1.789   4.332  0.00  0.00    +0.000 A 
ATOM     32  O   UNL     1      -9.503  -1.649   3.389  0.00  0.00    +0.000 OA
ATOM     33  C   UNL     1     -11.616  -2.331   4.215  0.00  0.00    +0.000 A 
ATOM     34  H   UNL     1      -8.976  -1.071   5.718  0.00  0.00    +0.000 HD
ENDBRANCH  21  24
ENDBRANCH  19  20
ENDBRANCH   4  19
TORSDOF 8
