REMARK  Name = 
REMARK  9 active torsions:
REMARK  status: ('A' for Active; 'I' for Inactive)
REMARK    1  A    between atoms: N_1  and  C_2
REMARK    2  A    between atoms: C_2  and  C_3
REMARK    3  A    between atoms: C_3  and  C_4
REMARK    4  A    between atoms: C_4  and  O_5
REMARK    5  A    between atoms: O_5  and  C_6
REMARK    6  A    between atoms: C_9  and  C_10
REMARK    7  A    between atoms: C_10  and  O_11
REMARK    8  A    between atoms: O_11  and  C_12
REMARK    9  A    between atoms: C_15  and  C_16
REMARK                            x       y       z     vdW  Elec       q    Type
REMARK                         _______ _______ _______ _____ _____    ______ ____
ROOT
ATOM      1  C   UNL     1       6.402  -2.240   2.114  0.00  0.00    +0.000 A 
ATOM      2  C   UNL     1       7.220  -1.127   2.264  0.00  0.00    +0.000 A 
ATOM      3  N   UNL     1       8.570  -1.225   2.447  0.00  0.00    +0.000 NA
ATOM      4  C   UNL     1       9.072  -2.491   2.476  0.00  0.00    +0.000 A 
ATOM      5  C   UNL     1       8.240  -3.590   2.309  0.00  0.00    +0.000 A 
ATOM      6  N   UNL     1       6.909  -3.487   2.109  0.00  0.00    +0.000 NA
ENDROOT
BRANCH   1   7
ATOM      7  O   UNL     1       5.043  -2.092   1.963  0.00  0.00    +0.000 OA
BRANCH   7   8
ATOM      8  C   UNL     1       4.330  -3.261   2.421  0.00  0.00    +0.000 C 
BRANCH   8   9
ATOM      9  C   UNL     1       2.832  -3.039   2.222  0.00  0.00    +0.000 C 
BRANCH   9  10
ATOM     10  C   UNL     1       2.021  -4.233   2.717  0.00  0.00    +0.000 C 
BRANCH  10  11
ATOM     11  N   UNL     1       0.593  -4.005   2.518  0.00  0.00    +0.000 NA
ATOM     12  H   UNL     1       0.070  -4.826   2.823  0.00  0.00    +0.000 HD
ATOM     13  H   UNL     1       0.395  -3.897   1.524  0.00  0.00    +0.000 HD
ENDBRANCH  10  11
ENDBRANCH   9  10
ENDBRANCH   8   9
ENDBRANCH   7   8
ENDBRANCH   1   7
BRANCH   4  14
ATOM     14  C   UNL     1      10.557  -2.699   2.677  0.00  0.00    +0.000 C 
BRANCH  14  15
ATOM     15  O   UNL     1      10.851  -2.809   4.071  0.00  0.00    +0.000 OA
BRANCH  15  16
ATOM     16  C   UNL     1      12.165  -2.973   4.419  0.00  0.00    +0.000 A 
ATOM     17  C   UNL     1      13.243  -3.094   3.542  0.00  0.00    +0.000 A 
ATOM     18  C   UNL     1      14.546  -3.245   4.041  0.00  0.00    +0.000 A 
ATOM     19  C   UNL     1      14.790  -3.260   5.421  0.00  0.00    +0.000 A 
ATOM     20  C   UNL     1      13.711  -3.117   6.301  0.00  0.00    +0.000 A 
ATOM     21  C   UNL     1      12.410  -2.991   5.796  0.00  0.00    +0.000 A 
BRANCH  19  22
ATOM     22  C   UNL     1      16.184  -3.463   5.891  0.00  0.00    +0.000 C 
ATOM     23  N   UNL     1      16.558  -2.910   7.081  0.00  0.00    +0.000 N 
ATOM     24  O   UNL     1      16.999  -4.096   5.214  0.00  0.00    +0.000 OA
ATOM     25  H   UNL     1      15.956  -2.357   7.675  0.00  0.00    +0.000 HD
ATOM     26  H   UNL     1      17.513  -3.064   7.378  0.00  0.00    +0.000 HD
ENDBRANCH  19  22
ENDBRANCH  15  16
ENDBRANCH  14  15
ENDBRANCH   4  14
TORSDOF 9
