REMARK  Name = 
REMARK  7 active torsions:
REMARK  status: ('A' for Active; 'I' for Inactive)
REMARK    1  A    between atoms: C_2  and  C_4
REMARK    2  A    between atoms: C_7  and  O_8
REMARK    3  A    between atoms: O_8  and  C_9
REMARK    4  A    between atoms: C_9  and  C_10
REMARK    5  A    between atoms: C_10  and  C_13
REMARK    6  A    between atoms: C_17  and  O_18
REMARK    7  A    between atoms: O_18  and  C_19
REMARK                            x       y       z     vdW  Elec       q    Type
REMARK                         _______ _______ _______ _____ _____    ______ ____
ROOT
ATOM      1  C   UNL     1       6.367  -4.542   5.286  0.00  0.00    +0.000 C 
ATOM      2  F   UNL     1       7.617  -4.456   4.743  0.00  0.00    +0.000 F 
ATOM      3  F   UNL     1       6.354  -3.653   6.322  0.00  0.00    +0.000 F 
ENDROOT
BRANCH   1   4
ATOM      4  C   UNL     1       6.055  -5.948   5.753  0.00  0.00    +0.000 A 
ATOM      5  C   UNL     1       6.610  -7.062   5.115  0.00  0.00    +0.000 A 
ATOM      6  C   UNL     1       6.248  -8.327   5.553  0.00  0.00    +0.000 A 
ATOM      7  N   UNL     1       5.359  -8.554   6.545  0.00  0.00    +0.000 NA
ATOM      8  C   UNL     1       4.847  -7.468   7.156  0.00  0.00    +0.000 A 
ATOM      9  C   UNL     1       5.172  -6.165   6.818  0.00  0.00    +0.000 A 
BRANCH   8  10
ATOM     10  O   UNL     1       3.913  -7.636   8.159  0.00  0.00    +0.000 OA
BRANCH  10  11
ATOM     11  C   UNL     1       3.255  -8.917   8.192  0.00  0.00    +0.000 C 
ATOM     12  C   UNL     1       2.231  -9.203   7.080  0.00  0.00    +0.000 C 
ATOM     13  C   UNL     1       1.296  -9.569   8.223  0.00  0.00    +0.000 C 
ATOM     14  O   UNL     1       2.190  -8.974   9.191  0.00  0.00    +0.000 OA
ENDBRANCH  10  11
ENDBRANCH   8  10
ENDBRANCH   1   4
BRANCH   1  15
ATOM     15  C   UNL     1       5.340  -4.087   4.229  0.00  0.00    +0.000 C 
BRANCH  15  16
ATOM     16  O   UNL     1       5.595  -2.729   3.838  0.00  0.00    +0.000 OA
BRANCH  16  20
ATOM     17  C   UNL     1       3.281  -0.793   1.052  0.00  0.00    +0.000 A 
ATOM     18  C   UNL     1       2.934  -2.108   1.340  0.00  0.00    +0.000 A 
ATOM     19  C   UNL     1       3.689  -2.810   2.281  0.00  0.00    +0.000 A 
ATOM     20  C   UNL     1       4.763  -2.181   2.906  0.00  0.00    +0.000 A 
ATOM     21  C   UNL     1       5.028  -0.858   2.551  0.00  0.00    +0.000 A 
ATOM     22  N   UNL     1       4.323  -0.144   1.637  0.00  0.00    +0.000 NA
BRANCH  17  24
ATOM     23  N   UNL     1       2.929   1.235  -0.243  0.00  0.00    +0.000 N 
ATOM     24  C   UNL     1       2.488  -0.032   0.035  0.00  0.00    +0.000 C 
ATOM     25  O   UNL     1       1.512  -0.509  -0.529  0.00  0.00    +0.000 OA
ATOM     26  H   UNL     1       2.467   1.771  -0.961  0.00  0.00    +0.000 HD
ATOM     27  H   UNL     1       3.785   1.574   0.184  0.00  0.00    +0.000 HD
ENDBRANCH  17  24
ENDBRANCH  16  20
ENDBRANCH  15  16
ENDBRANCH   1  15
TORSDOF 7
