REMARK  Name = 
REMARK  8 active torsions:
REMARK  status: ('A' for Active; 'I' for Inactive)
REMARK    1  A    between atoms: N_1  and  C_2
REMARK    2  A    between atoms: C_2  and  C_3
REMARK    3  A    between atoms: C_3  and  C_4
REMARK    4  A    between atoms: C_9  and  C_10
REMARK    5  A    between atoms: C_10  and  C_11
REMARK    6  A    between atoms: C_11  and  O_12
REMARK    7  A    between atoms: C_11  and  C_13
REMARK    8  A    between atoms: C_13  and  O_14
REMARK                            x       y       z     vdW  Elec       q    Type
REMARK                         _______ _______ _______ _____ _____    ______ ____
ROOT
ATOM      1  C   UNL     1       4.584   1.040   0.769  0.00  0.00    +0.000 A 
ATOM      2  C   UNL     1       5.273   2.244   0.783  0.00  0.00    +0.000 A 
ATOM      3  N   UNL     1       6.624   2.311   0.825  0.00  0.00    +0.000 NA
ATOM      4  C   UNL     1       7.285   1.140   0.863  0.00  0.00    +0.000 A 
ATOM      5  C   UNL     1       8.667   1.149   0.970  0.00  0.00    +0.000 A 
ATOM      6  C   UNL     1       9.363  -0.048   1.087  0.00  0.00    +0.000 A 
ATOM      7  N   UNL     1       8.744  -1.245   1.029  0.00  0.00    +0.000 NA
ATOM      8  C   UNL     1       7.391  -1.225   0.896  0.00  0.00    +0.000 A 
ATOM      9  C   UNL     1       6.600  -0.088   0.837  0.00  0.00    +0.000 A 
ATOM     10  N   UNL     1       5.243  -0.146   0.785  0.00  0.00    +0.000 NA
ENDROOT
BRANCH   1  11
ATOM     11  C   UNL     1       3.080   1.015   0.804  0.00  0.00    +0.000 C 
BRANCH  11  12
ATOM     12  C   UNL     1       2.569   0.966   2.246  0.00  0.00    +0.000 C 
BRANCH  12  13
ATOM     13  N   UNL     1       1.107   0.979   2.290  0.00  0.00    +0.000 NA
ATOM     14  H   UNL     1       0.801   0.932   3.263  0.00  0.00    +0.000 HD
ATOM     15  H   UNL     1       0.746   0.134   1.847  0.00  0.00    +0.000 HD
ENDBRANCH  12  13
ENDBRANCH  11  12
ENDBRANCH   1  11
BRANCH   6  16
ATOM     16  C   UNL     1      10.841  -0.039   1.388  0.00  0.00    +0.000 C 
BRANCH  16  17
ATOM     17  C   UNL     1      11.732  -0.040   0.145  0.00  0.00    +0.000 C 
BRANCH  17  18
ATOM     18  O   UNL     1      11.523   1.153  -0.622  0.00  0.00    +0.000 OA
ATOM     19  H   UNL     1      12.006   1.882  -0.195  0.00  0.00    +0.000 HD
ENDBRANCH  17  18
BRANCH  17  20
ATOM     20  C   UNL     1      13.212  -0.125   0.567  0.00  0.00    +0.000 C 
BRANCH  20  21
ATOM     21  O   UNL     1      14.088  -0.086  -0.555  0.00  0.00    +0.000 OA
ATOM     22  H   UNL     1      13.632  -0.502  -1.308  0.00  0.00    +0.000 HD
ENDBRANCH  20  21
ENDBRANCH  17  20
ENDBRANCH  16  17
ENDBRANCH   6  16
TORSDOF 8
