REMARK  Name = 
REMARK  9 active torsions:
REMARK  status: ('A' for Active; 'I' for Inactive)
REMARK    1  A    between atoms: C_1  and  C_2
REMARK    2  A    between atoms: C_2  and  C_3
REMARK    3  A    between atoms: C_2  and  C_4
REMARK    4  A    between atoms: C_2  and  C_22
REMARK    5  A    between atoms: C_5  and  C_6
REMARK    6  A    between atoms: C_10  and  C_11
REMARK    7  A    between atoms: C_15  and  C_16
REMARK    8  A    between atoms: C_25  and  S_26
REMARK    9  A    between atoms: S_26  and  N_27
REMARK                            x       y       z     vdW  Elec       q    Type
REMARK                         _______ _______ _______ _____ _____    ______ ____
ROOT
ATOM      1  C   UNL     1       2.932  -1.474  -0.224  0.00  0.00    +0.000 C 
ATOM      2  C   UNL     1       2.581  -2.582   0.446  0.00  0.00    +0.000 C 
ENDROOT
BRANCH   2   3
ATOM      3  C   UNL     1       3.147  -3.884   0.089  0.00  0.00    +0.000 A 
ATOM      4  C   UNL     1       2.465  -4.744  -0.771  0.00  0.00    +0.000 A 
ATOM      5  C   UNL     1       3.023  -5.975  -1.106  0.00  0.00    +0.000 A 
ATOM      6  C   UNL     1       4.271  -6.344  -0.592  0.00  0.00    +0.000 A 
ATOM      7  C   UNL     1       5.001  -5.486   0.250  0.00  0.00    +0.000 A 
ATOM      8  C   UNL     1       4.404  -4.256   0.586  0.00  0.00    +0.000 A 
BRANCH   7   9
ATOM      9  C   UNL     1       6.355  -5.842   0.740  0.00  0.00    +0.000 A 
ATOM     10  C   UNL     1       6.816  -5.421   1.995  0.00  0.00    +0.000 A 
ATOM     11  C   UNL     1       8.105  -5.743   2.393  0.00  0.00    +0.000 A 
ATOM     12  N   UNL     1       8.964  -6.459   1.644  0.00  0.00    +0.000 NA
ATOM     13  C   UNL     1       8.530  -6.886   0.427  0.00  0.00    +0.000 A 
ATOM     14  C   UNL     1       7.247  -6.587  -0.044  0.00  0.00    +0.000 A 
BRANCH  13  15
ATOM     15  C   UNL     1       9.459  -7.706  -0.459  0.00  0.00    +0.000 C 
ATOM     16  F   UNL     1      10.686  -7.950   0.078  0.00  0.00    +0.000 F 
ATOM     17  F   UNL     1       8.936  -8.932  -0.762  0.00  0.00    +0.000 F 
ATOM     18  F   UNL     1       9.693  -7.107  -1.665  0.00  0.00    +0.000 F 
ENDBRANCH  13  15
ENDBRANCH   7   9
ENDBRANCH   2   3
BRANCH   1  20
ATOM     19  C   UNL     1       3.538   0.606   0.956  0.00  0.00    +0.000 C 
ATOM     20  C   UNL     1       2.467  -0.042   0.049  0.00  0.00    +0.000 C 
ATOM     21  C   UNL     1       2.486   0.728  -1.297  0.00  0.00    +0.000 C 
BRANCH  20  22
ATOM     22  C   UNL     1       1.047   0.046   0.635  0.00  0.00    +0.000 A 
ATOM     23  C   UNL     1      -0.055  -0.494  -0.059  0.00  0.00    +0.000 A 
ATOM     24  C   UNL     1      -1.347  -0.363   0.444  0.00  0.00    +0.000 A 
ATOM     25  C   UNL     1      -1.491   0.311   1.643  0.00  0.00    +0.000 A 
ATOM     26  N   UNL     1      -0.476   0.839   2.375  0.00  0.00    +0.000 NA
ATOM     27  C   UNL     1       0.762   0.686   1.848  0.00  0.00    +0.000 A 
BRANCH  25  28
ATOM     28  S   UNL     1      -3.118   0.570   2.332  0.00  0.00    +0.000 S 
ATOM     29  O   UNL     1      -3.833   1.458   1.445  0.00  0.00    +0.000 OA
ATOM     30  O   UNL     1      -3.632  -0.721   2.740  0.00  0.00    +0.000 OA
BRANCH  28  31
ATOM     31  N   UNL     1      -2.799   1.443   3.751  0.00  0.00    +0.000 NA
ATOM     32  H   UNL     1      -2.304   2.304   3.515  0.00  0.00    +0.000 HD
ATOM     33  H   UNL     1      -2.252   0.862   4.388  0.00  0.00    +0.000 HD
ENDBRANCH  28  31
ENDBRANCH  25  28
ENDBRANCH  20  22
ENDBRANCH   1  20
TORSDOF 7
