REMARK  Name = 
REMARK  6 active torsions:
REMARK  status: ('A' for Active; 'I' for Inactive)
REMARK    1  A    between atoms: C_2  and  C_25
REMARK    2  A    between atoms: N_3  and  C_4
REMARK    3  A    between atoms: C_4  and  C_5
REMARK    4  A    between atoms: C_8  and  C_9
REMARK    5  A    between atoms: C_9  and  N_10
REMARK    6  A    between atoms: C_11  and  C_13
REMARK                            x       y       z     vdW  Elec       q    Type
REMARK                         _______ _______ _______ _____ _____    ______ ____
ROOT
ATOM      1  C   UNL     1       3.130  -2.308   2.880  0.00  0.00    +0.000 A 
ATOM      2  C   UNL     1       4.061  -1.592   3.635  0.00  0.00    +0.000 A 
ATOM      3  C   UNL     1       4.898  -2.266   4.520  0.00  0.00    +0.000 A 
ATOM      4  C   UNL     1       4.766  -3.645   4.653  0.00  0.00    +0.000 A 
ATOM      5  N   UNL     1       3.877  -4.364   3.921  0.00  0.00    +0.000 NA
ATOM      6  C   UNL     1       3.088  -3.685   3.057  0.00  0.00    +0.000 A 
ENDROOT
BRANCH   1   7
ATOM      7  C   UNL     1       2.192  -1.622   1.936  0.00  0.00    +0.000 C 
BRANCH   7  10
ATOM      8  O   UNL     1       0.041  -0.328   0.689  0.00  0.00    +0.000 OA
ATOM      9  C   UNL     1      -0.054  -0.633   1.871  0.00  0.00    +0.000 C 
ATOM     10  N   UNL     1       0.954  -1.255   2.578  0.00  0.00    +0.000 N 
ATOM     11  H   UNL     1       0.786  -1.463   3.559  0.00  0.00    +0.000 HD
BRANCH   9  12
ATOM     12  C   UNL     1      -1.298  -0.356   2.641  0.00  0.00    +0.000 A 
ATOM     13  C   UNL     1      -2.372   0.257   2.012  0.00  0.00    +0.000 A 
ATOM     14  N   UNL     1      -3.540   0.512   2.656  0.00  0.00    +0.000 NA
ATOM     15  C   UNL     1      -3.581   0.125   3.952  0.00  0.00    +0.000 A 
ATOM     16  C   UNL     1      -2.504  -0.484   4.582  0.00  0.00    +0.000 A 
ATOM     17  N   UNL     1      -1.334  -0.743   3.950  0.00  0.00    +0.000 NA
ENDBRANCH   9  12
ENDBRANCH   7  10
ENDBRANCH   1   7
BRANCH   4  18
ATOM     18  C   UNL     1       5.628  -4.401   5.633  0.00  0.00    +0.000 C 
BRANCH  18  19
ATOM     19  N   UNL     1       6.853  -4.878   5.037  0.00  0.00    +0.000 N 
ATOM     20  C   UNL     1       8.051  -4.232   5.185  0.00  0.00    +0.000 C 
ATOM     21  O   UNL     1       8.157  -3.195   5.835  0.00  0.00    +0.000 OA
ATOM     22  H   UNL     1       6.744  -5.589   4.320  0.00  0.00    +0.000 HD
BRANCH  20  23
ATOM     23  C   UNL     1       9.222  -4.885   4.586  0.00  0.00    +0.000 A 
ATOM     24  C   UNL     1      10.491  -4.609   5.079  0.00  0.00    +0.000 A 
ATOM     25  S   UNL     1      11.734  -5.478   4.299  0.00  0.00    +0.000 S 
ATOM     26  C   UNL     1      10.626  -6.221   3.243  0.00  0.00    +0.000 A 
ATOM     27  N   UNL     1      11.049  -7.083   2.279  0.00  0.00    +0.000 NA
ATOM     28  C   UNL     1      10.106  -7.549   1.530  0.00  0.00    +0.000 A 
ATOM     29  N   UNL     1       8.778  -7.240   1.664  0.00  0.00    +0.000 N 
ATOM     30  C   UNL     1       8.300  -6.419   2.656  0.00  0.00    +0.000 A 
ATOM     31  O   UNL     1       7.097  -6.239   2.806  0.00  0.00    +0.000 OA
ATOM     32  C   UNL     1       9.323  -5.835   3.503  0.00  0.00    +0.000 A 
ATOM     33  H   UNL     1       8.084  -7.657   1.061  0.00  0.00    +0.000 HD
ENDBRANCH  20  23
ENDBRANCH  18  19
ENDBRANCH   4  18
TORSDOF 6
