REMARK  Name = 
REMARK  5 active torsions:
REMARK  status: ('A' for Active; 'I' for Inactive)
REMARK    1  A    between atoms: C_2  and  C_4
REMARK    2  A    between atoms: C_7  and  N_8
REMARK    3  A    between atoms: N_8  and  C_9
REMARK    4  A    between atoms: C_9  and  C_10
REMARK    5  A    between atoms: C_14  and  C_15
REMARK                            x       y       z     vdW  Elec       q    Type
REMARK                         _______ _______ _______ _____ _____    ______ ____
ROOT
ATOM      1  N   UNL     1       4.112  -5.715  -3.232  0.00  0.00    +0.000 N 
ATOM      2  H   UNL     1       4.683  -5.400  -4.009  0.00  0.00    +0.000 HD
ENDROOT
BRANCH   1   6
ATOM      3  C   UNL     1       0.276  -4.268  -3.382  0.00  0.00    +0.000 A 
ATOM      4  C   UNL     1       1.015  -4.177  -2.216  0.00  0.00    +0.000 A 
ATOM      5  N   UNL     1       2.303  -4.607  -2.133  0.00  0.00    +0.000 NA
ATOM      6  C   UNL     1       2.841  -5.135  -3.253  0.00  0.00    +0.000 A 
ATOM      7  C   UNL     1       2.074  -5.207  -4.426  0.00  0.00    +0.000 A 
ATOM      8  N   UNL     1       0.789  -4.779  -4.536  0.00  0.00    +0.000 NA
BRANCH   3  10
ATOM      9  N   UNL     1      -1.814  -4.032  -4.576  0.00  0.00    +0.000 N 
ATOM     10  C   UNL     1      -1.146  -3.824  -3.399  0.00  0.00    +0.000 C 
ATOM     11  O   UNL     1      -1.689  -3.320  -2.426  0.00  0.00    +0.000 OA
ATOM     12  H   UNL     1      -2.791  -3.786  -4.646  0.00  0.00    +0.000 HD
ATOM     13  H   UNL     1      -1.342  -4.479  -5.353  0.00  0.00    +0.000 HD
ENDBRANCH   3  10
ENDBRANCH   1   6
BRANCH   1  14
ATOM     14  C   UNL     1       4.832  -5.664  -1.968  0.00  0.00    +0.000 C 
BRANCH  14  15
ATOM     15  C   UNL     1       5.792  -6.832  -1.910  0.00  0.00    +0.000 A 
ATOM     16  C   UNL     1       7.174  -6.643  -1.830  0.00  0.00    +0.000 A 
ATOM     17  C   UNL     1       8.022  -7.744  -1.732  0.00  0.00    +0.000 A 
ATOM     18  C   UNL     1       7.496  -9.040  -1.696  0.00  0.00    +0.000 A 
ATOM     19  C   UNL     1       6.110  -9.272  -1.742  0.00  0.00    +0.000 A 
ATOM     20  C   UNL     1       5.280  -8.145  -1.873  0.00  0.00    +0.000 A 
BRANCH  19  21
ATOM     21  C   UNL     1       5.541 -10.632  -1.580  0.00  0.00    +0.000 A 
ATOM     22  C   UNL     1       6.129 -11.559  -0.699  0.00  0.00    +0.000 A 
ATOM     23  C   UNL     1       5.566 -12.820  -0.476  0.00  0.00    +0.000 A 
ATOM     24  C   UNL     1       4.393 -13.182  -1.128  0.00  0.00    +0.000 A 
ATOM     25  C   UNL     1       3.794 -12.292  -2.014  0.00  0.00    +0.000 A 
ATOM     26  C   UNL     1       4.367 -11.034  -2.243  0.00  0.00    +0.000 A 
ENDBRANCH  19  21
ENDBRANCH  14  15
ENDBRANCH   1  14
TORSDOF 5
