REMARK  Name = 
REMARK  7 active torsions:
REMARK  status: ('A' for Active; 'I' for Inactive)
REMARK    1  A    between atoms: C_1  and  C_2
REMARK    2  A    between atoms: C_2  and  C_3
REMARK    3  A    between atoms: C_2  and  C_4
REMARK    4  A    between atoms: C_2  and  C_19
REMARK    5  A    between atoms: C_5  and  C_6
REMARK    6  A    between atoms: C_10  and  C_11
REMARK    7  A    between atoms: C_22  and  C_23
REMARK                            x       y       z     vdW  Elec       q    Type
REMARK                         _______ _______ _______ _____ _____    ______ ____
ROOT
ATOM      1  C   UNL     1       2.904   0.983   1.057  0.00  0.00    +0.000 C 
ATOM      2  C   UNL     1       2.655   2.303   1.011  0.00  0.00    +0.000 C 
ENDROOT
BRANCH   2   3
ATOM      3  C   UNL     1       3.264   3.182   2.008  0.00  0.00    +0.000 A 
ATOM      4  C   UNL     1       2.560   3.570   3.145  0.00  0.00    +0.000 A 
ATOM      5  C   UNL     1       3.191   4.346   4.115  0.00  0.00    +0.000 A 
ATOM      6  C   UNL     1       4.529   4.724   3.953  0.00  0.00    +0.000 A 
ATOM      7  C   UNL     1       5.273   4.331   2.825  0.00  0.00    +0.000 A 
ATOM      8  C   UNL     1       4.605   3.566   1.854  0.00  0.00    +0.000 A 
BRANCH   7   9
ATOM      9  C   UNL     1       6.711   4.663   2.684  0.00  0.00    +0.000 A 
ATOM     10  C   UNL     1       7.289   4.935   1.428  0.00  0.00    +0.000 A 
ATOM     11  C   UNL     1       8.657   5.205   1.291  0.00  0.00    +0.000 A 
ATOM     12  C   UNL     1       9.477   5.221   2.414  0.00  0.00    +0.000 A 
ATOM     13  C   UNL     1       8.922   4.962   3.659  0.00  0.00    +0.000 A 
ATOM     14  F   UNL     1       9.706   4.972   4.745  0.00  0.00    +0.000 F 
ATOM     15  C   UNL     1       7.564   4.683   3.800  0.00  0.00    +0.000 A 
ENDBRANCH   7   9
ENDBRANCH   2   3
BRANCH   1  17
ATOM     16  C   UNL     1       3.704  -0.234  -0.910  0.00  0.00    +0.000 C 
ATOM     17  C   UNL     1       2.491  -0.074   0.037  0.00  0.00    +0.000 C 
ATOM     18  C   UNL     1       2.317  -1.426   0.772  0.00  0.00    +0.000 C 
BRANCH  17  19
ATOM     19  C   UNL     1       1.173   0.253  -0.692  0.00  0.00    +0.000 A 
ATOM     20  C   UNL     1       1.100   0.410  -2.087  0.00  0.00    +0.000 A 
ATOM     21  C   UNL     1      -0.120   0.657  -2.726  0.00  0.00    +0.000 A 
ATOM     22  C   UNL     1      -1.300   0.749  -1.987  0.00  0.00    +0.000 A 
ATOM     23  C   UNL     1      -1.249   0.632  -0.597  0.00  0.00    +0.000 A 
ATOM     24  C   UNL     1      -0.025   0.389   0.039  0.00  0.00    +0.000 A 
BRANCH  22  25
ATOM     25  C   UNL     1      -2.573   0.985  -2.721  0.00  0.00    +0.000 C 
ATOM     26  N   UNL     1      -3.728   0.558  -2.126  0.00  0.00    +0.000 N 
ATOM     27  O   UNL     1      -2.590   1.494  -3.832  0.00  0.00    +0.000 OA
ATOM     28  H   UNL     1      -3.734  -0.079  -1.344  0.00  0.00    +0.000 HD
ATOM     29  H   UNL     1      -4.565   0.614  -2.695  0.00  0.00    +0.000 HD
ENDBRANCH  22  25
ENDBRANCH  17  19
ENDBRANCH   1  17
TORSDOF 5
