REMARK  Name = 
REMARK  4 active torsions:
REMARK  status: ('A' for Active; 'I' for Inactive)
REMARK    1  A    between atoms: C_2  and  C_4
REMARK    2  A    between atoms: N_8  and  C_9
REMARK    3  A    between atoms: C_9  and  C_10
REMARK    4  A    between atoms: C_14  and  C_15
REMARK                            x       y       z     vdW  Elec       q    Type
REMARK                         _______ _______ _______ _____ _____    ______ ____
ROOT
ATOM      1  C   UNL     1       3.228   0.345   1.248  0.00  0.00    +0.000 A 
ATOM      2  C   UNL     1       2.834  -0.174   2.475  0.00  0.00    +0.000 A 
ATOM      3  C   UNL     1       3.583   0.128   3.608  0.00  0.00    +0.000 A 
ATOM      4  C   UNL     1       4.711   0.938   3.506  0.00  0.00    +0.000 A 
ATOM      5  N   UNL     1       5.482   1.270   4.581  0.00  0.00    +0.000 N 
ATOM      6  N   UNL     1       5.101   1.442   2.319  0.00  0.00    +0.000 NA
ATOM      7  C   UNL     1       4.368   1.133   1.217  0.00  0.00    +0.000 A 
ATOM      8  H   UNL     1       6.298   1.847   4.402  0.00  0.00    +0.000 HD
ENDROOT
BRANCH   1  10
ATOM      9  N   UNL     1       1.164  -0.214   0.101  0.00  0.00    +0.000 N 
ATOM     10  C   UNL     1       2.502   0.056  -0.003  0.00  0.00    +0.000 C 
ATOM     11  O   UNL     1       3.064   0.073  -1.090  0.00  0.00    +0.000 OA
ATOM     12  H   UNL     1       0.656  -0.334  -0.767  0.00  0.00    +0.000 HD
ATOM     13  H   UNL     1       0.629  -0.001   0.930  0.00  0.00    +0.000 HD
ENDBRANCH   1  10
BRANCH   5  14
ATOM     14  C   UNL     1       5.257   0.807   5.935  0.00  0.00    +0.000 C 
BRANCH  14  15
ATOM     15  C   UNL     1       6.268   1.337   6.940  0.00  0.00    +0.000 A 
ATOM     16  N   UNL     1       7.272   2.126   6.506  0.00  0.00    +0.000 NA
ATOM     17  C   UNL     1       8.097   2.609   7.447  0.00  0.00    +0.000 A 
ATOM     18  C   UNL     1       7.958   2.344   8.789  0.00  0.00    +0.000 A 
ATOM     19  C   UNL     1       6.911   1.516   9.154  0.00  0.00    +0.000 A 
ATOM     20  N   UNL     1       6.068   1.003   8.232  0.00  0.00    +0.000 NA
BRANCH  19  21
ATOM     21  C   UNL     1       6.638   1.137  10.549  0.00  0.00    +0.000 A 
ATOM     22  C   UNL     1       6.930   1.971  11.639  0.00  0.00    +0.000 A 
ATOM     23  C   UNL     1       6.659   1.559  12.943  0.00  0.00    +0.000 A 
ATOM     24  C   UNL     1       6.093   0.311  13.133  0.00  0.00    +0.000 A 
ATOM     25  N   UNL     1       5.783  -0.527  12.125  0.00  0.00    +0.000 NA
ATOM     26  C   UNL     1       6.056  -0.093  10.868  0.00  0.00    +0.000 A 
ENDBRANCH  19  21
ENDBRANCH  14  15
ENDBRANCH   5  14
TORSDOF 4
