REMARK  Name = 
REMARK  8 active torsions:
REMARK  status: ('A' for Active; 'I' for Inactive)
REMARK    1  A    between atoms: N_1  and  C_2
REMARK    2  A    between atoms: C_2  and  C_3
REMARK    3  A    between atoms: C_7  and  O_8
REMARK    4  A    between atoms: O_8  and  C_9
REMARK    5  A    between atoms: C_9  and  C_10
REMARK    6  A    between atoms: C_10  and  O_11
REMARK    7  A    between atoms: C_10  and  C_12
REMARK    8  A    between atoms: C_16  and  C_17
REMARK                            x       y       z     vdW  Elec       q    Type
REMARK                         _______ _______ _______ _____ _____    ______ ____
ROOT
ATOM      1  C   UNL     1       3.251  -3.978   6.153  0.00  0.00    +0.000 C 
ENDROOT
BRANCH   1   2
ATOM      2  C   UNL     1       4.286  -5.009   5.767  0.00  0.00    +0.000 A 
ATOM      3  C   UNL     1       5.088  -5.616   6.740  0.00  0.00    +0.000 A 
ATOM      4  C   UNL     1       6.021  -6.569   6.350  0.00  0.00    +0.000 A 
ATOM      5  N   UNL     1       6.214  -6.957   5.073  0.00  0.00    +0.000 NA
ATOM      6  C   UNL     1       5.419  -6.362   4.141  0.00  0.00    +0.000 A 
ATOM      7  C   UNL     1       4.459  -5.404   4.437  0.00  0.00    +0.000 A 
BRANCH   6   8
ATOM      8  C   UNL     1       5.614  -6.787   2.718  0.00  0.00    +0.000 C 
ATOM      9  N   UNL     1       6.566  -7.749   2.520  0.00  0.00    +0.000 N 
ATOM     10  O   UNL     1       4.970  -6.316   1.788  0.00  0.00    +0.000 OA
ATOM     11  H   UNL     1       7.072  -8.120   3.318  0.00  0.00    +0.000 HD
ATOM     12  H   UNL     1       6.743  -8.091   1.588  0.00  0.00    +0.000 HD
ENDBRANCH   6   8
ENDBRANCH   1   2
BRANCH   1  13
ATOM     13  O   UNL     1       1.960  -4.464   5.776  0.00  0.00    +0.000 OA
ATOM     14  H   UNL     1       1.847  -4.232   4.836  0.00  0.00    +0.000 HD
ENDBRANCH   1  13
BRANCH   1  15
ATOM     15  C   UNL     1       3.497  -2.564   5.592  0.00  0.00    +0.000 C 
BRANCH  15  16
ATOM     16  O   UNL     1       3.378  -2.552   4.162  0.00  0.00    +0.000 OA
BRANCH  16  21
ATOM     17  C   UNL     1       3.611  -0.185   1.395  0.00  0.00    +0.000 A 
ATOM     18  C   UNL     1       3.856   1.019   2.069  0.00  0.00    +0.000 A 
ATOM     19  C   UNL     1       3.977   1.041   3.457  0.00  0.00    +0.000 A 
ATOM     20  C   UNL     1       3.836  -0.136   4.192  0.00  0.00    +0.000 A 
ATOM     21  C   UNL     1       3.574  -1.344   3.544  0.00  0.00    +0.000 A 
ATOM     22  C   UNL     1       3.475  -1.364   2.147  0.00  0.00    +0.000 A 
BRANCH  17  23
ATOM     23  C   UNL     1       3.451  -0.196  -0.105  0.00  0.00    +0.000 C 
BRANCH  23  24
ATOM     24  N   UNL     1       4.607   0.386  -0.779  0.00  0.00    +0.000 NA
ATOM     25  H   UNL     1       4.497   0.269  -1.785  0.00  0.00    +0.000 HD
ATOM     26  H   UNL     1       5.436  -0.148  -0.519  0.00  0.00    +0.000 HD
ENDBRANCH  23  24
ENDBRANCH  17  23
ENDBRANCH  16  21
ENDBRANCH  15  16
ENDBRANCH   1  15
TORSDOF 8
