REMARK  Name = 
REMARK  5 active torsions:
REMARK  status: ('A' for Active; 'I' for Inactive)
REMARK    1  A    between atoms: C_1  and  C_2
REMARK    2  A    between atoms: C_2  and  N_3
REMARK    3  A    between atoms: C_2  and  C_13
REMARK    4  A    between atoms: N_3  and  C_4
REMARK    5  A    between atoms: C_7  and  C_8
REMARK                            x       y       z     vdW  Elec       q    Type
REMARK                         _______ _______ _______ _____ _____    ______ ____
ROOT
ATOM      1  C   UNL     1       2.310   2.110   1.461  0.00  0.00    +0.000 A 
ATOM      2  C   UNL     1       2.094   2.649   2.722  0.00  0.00    +0.000 A 
ATOM      3  N   UNL     1       1.798   3.943   2.977  0.00  0.00    +0.000 NA
ATOM      4  C   UNL     1       1.740   4.743   1.887  0.00  0.00    +0.000 A 
ATOM      5  N   UNL     1       1.974   4.361   0.619  0.00  0.00    +0.000 NA
ATOM      6  C   UNL     1       2.265   3.053   0.447  0.00  0.00    +0.000 A 
ENDROOT
BRANCH   4   7
ATOM      7  C   UNL     1       1.363   6.188   2.131  0.00  0.00    +0.000 C 
ATOM      8  N   UNL     1       1.094   6.518   3.440  0.00  0.00    +0.000 N 
ATOM      9  O   UNL     1       1.283   7.036   1.249  0.00  0.00    +0.000 OA
ATOM     10  H   UNL     1       1.142   5.808   4.162  0.00  0.00    +0.000 HD
ATOM     11  H   UNL     1       0.815   7.462   3.661  0.00  0.00    +0.000 HD
ENDBRANCH   4   7
BRANCH   1  12
ATOM     12  N   UNL     1       2.659   0.761   1.324  0.00  0.00    +0.000 N 
ATOM     13  H   UNL     1       3.631   0.653   1.613  0.00  0.00    +0.000 HD
BRANCH  12  15
ATOM     14  C   UNL     1       0.874  -0.010  -0.186  0.00  0.00    +0.000 C 
ATOM     15  C   UNL     1       2.390   0.063   0.051  0.00  0.00    +0.000 C 
BRANCH  15  16
ATOM     16  C   UNL     1       3.018  -1.366   0.051  0.00  0.00    +0.000 C 
ATOM     17  C   UNL     1       2.464  -2.292   1.151  0.00  0.00    +0.000 C 
ATOM     18  C   UNL     1       3.118  -3.674   1.123  0.00  0.00    +0.000 C 
ATOM     19  C   UNL     1       4.636  -3.578   1.204  0.00  0.00    +0.000 C 
ATOM     20  C   UNL     1       5.187  -2.711   0.078  0.00  0.00    +0.000 C 
ATOM     21  C   UNL     1       4.560  -1.318   0.089  0.00  0.00    +0.000 C 
ENDBRANCH  15  16
ENDBRANCH  12  15
ENDBRANCH   1  12
TORSDOF 4
