REMARK  Name = 
REMARK  10 active torsions:
REMARK  status: ('A' for Active; 'I' for Inactive)
REMARK    1  A    between atoms: N_1  and  C_2
REMARK    2  A    between atoms: C_2  and  C_3
REMARK    3  A    between atoms: C_3  and  N_4
REMARK    4  A    between atoms: N_4  and  C_5
REMARK    5  A    between atoms: C_5  and  C_6
REMARK    6  A    between atoms: C_9  and  C_10
REMARK    7  A    between atoms: C_10  and  N_11
REMARK    8  A    between atoms: C_12  and  C_14
REMARK    9  A    between atoms: C_25  and  C_26
REMARK   10  A    between atoms: C_26  and  N_27
REMARK                            x       y       z     vdW  Elec       q    Type
REMARK                         _______ _______ _______ _____ _____    ______ ____
ROOT
ATOM      1  C   UNL     1       6.418  -2.337  -1.405  0.00  0.00    +0.000 A 
ATOM      2  C   UNL     1       7.150  -1.338  -0.729  0.00  0.00    +0.000 A 
ATOM      3  C   UNL     1       8.544  -1.360  -0.676  0.00  0.00    +0.000 A 
ATOM      4  C   UNL     1       9.251  -2.392  -1.292  0.00  0.00    +0.000 A 
ATOM      5  C   UNL     1       8.536  -3.406  -1.944  0.00  0.00    +0.000 A 
ATOM      6  C   UNL     1       7.125  -3.394  -2.027  0.00  0.00    +0.000 A 
ENDROOT
BRANCH   1   7
ATOM      7  C   UNL     1       4.912  -2.170  -1.466  0.00  0.00    +0.000 C 
BRANCH   7   8
ATOM      8  N   UNL     1       4.185  -3.159  -0.669  0.00  0.00    +0.000 NA
ATOM      9  H   UNL     1       4.374  -4.093  -1.019  0.00  0.00    +0.000 HD
BRANCH   8  10
ATOM     10  C   UNL     1       2.740  -2.901  -0.745  0.00  0.00    +0.000 C 
BRANCH  10  11
ATOM     11  C   UNL     1       1.930  -4.015  -0.060  0.00  0.00    +0.000 C 
BRANCH  11  12
ATOM     12  N   UNL     1       0.493  -3.756  -0.148  0.00  0.00    +0.000 NA
ATOM     13  H   UNL     1      -0.013  -4.531   0.279  0.00  0.00    +0.000 HD
ATOM     14  H   UNL     1       0.206  -3.732  -1.126  0.00  0.00    +0.000 HD
ENDBRANCH  11  12
ENDBRANCH  10  11
ENDBRANCH   8  10
ENDBRANCH   7   8
ENDBRANCH   1   7
BRANCH   4  15
ATOM     15  C   UNL     1      10.754  -2.437  -1.234  0.00  0.00    +0.000 C 
BRANCH  15  16
ATOM     16  N   UNL     1      11.197  -3.092  -0.028  0.00  0.00    +0.000 N 
ATOM     17  C   UNL     1      12.132  -4.090  -0.021  0.00  0.00    +0.000 C 
ATOM     18  O   UNL     1      12.644  -4.517  -1.052  0.00  0.00    +0.000 OA
ATOM     19  H   UNL     1      10.725  -2.827   0.830  0.00  0.00    +0.000 HD
BRANCH  17  20
ATOM     20  C   UNL     1      12.541  -4.596   1.297  0.00  0.00    +0.000 A 
ATOM     21  C   UNL     1      13.750  -5.269   1.423  0.00  0.00    +0.000 A 
ATOM     22  S   UNL     1      14.087  -5.782   3.013  0.00  0.00    +0.000 S 
ATOM     23  C   UNL     1      12.611  -5.159   3.584  0.00  0.00    +0.000 A 
ATOM     24  N   UNL     1      12.256  -5.293   4.890  0.00  0.00    +0.000 NA
ATOM     25  C   UNL     1      11.096  -4.807   5.181  0.00  0.00    +0.000 A 
ATOM     26  N   UNL     1      10.261  -4.186   4.289  0.00  0.00    +0.000 N 
ATOM     27  C   UNL     1      10.612  -3.959   2.979  0.00  0.00    +0.000 A 
ATOM     28  O   UNL     1       9.910  -3.272   2.245  0.00  0.00    +0.000 OA
ATOM     29  C   UNL     1      11.884  -4.537   2.583  0.00  0.00    +0.000 A 
ATOM     30  H   UNL     1       9.383  -3.791   4.589  0.00  0.00    +0.000 HD
ENDBRANCH  17  20
ENDBRANCH  15  16
ENDBRANCH   4  15
BRANCH   6  31
ATOM     31  C   UNL     1       6.473  -4.478  -2.873  0.00  0.00    +0.000 C 
BRANCH  31  32
ATOM     32  N   UNL     1       6.381  -4.010  -4.235  0.00  0.00    +0.000 N 
ATOM     33  C   UNL     1       5.740  -4.809  -5.158  0.00  0.00    +0.000 A 
ATOM     34  N   UNL     1       5.228  -4.152  -6.209  0.00  0.00    +0.000 NA
ATOM     35  C   UNL     1       4.649  -4.892  -7.179  0.00  0.00    +0.000 A 
ATOM     36  C   UNL     1       4.547  -6.254  -7.126  0.00  0.00    +0.000 A 
ATOM     37  C   UNL     1       5.078  -6.835  -5.997  0.00  0.00    +0.000 A 
ATOM     38  N   UNL     1       5.669  -6.138  -5.006  0.00  0.00    +0.000 NA
ATOM     39  H   UNL     1       6.058  -3.063  -4.367  0.00  0.00    +0.000 HD
ENDBRANCH  31  32
ENDBRANCH   6  31
TORSDOF 10
