REMARK  Name = 
REMARK  7 active torsions:
REMARK  status: ('A' for Active; 'I' for Inactive)
REMARK    1  A    between atoms: C_1  and  O_2
REMARK    2  A    between atoms: O_2  and  C_3
REMARK    3  A    between atoms: C_5  and  C_6
REMARK    4  A    between atoms: C_6  and  N_7
REMARK    5  A    between atoms: C_8  and  C_10
REMARK    6  A    between atoms: C_22  and  C_23
REMARK    7  A    between atoms: C_23  and  N_24
REMARK                            x       y       z     vdW  Elec       q    Type
REMARK                         _______ _______ _______ _____ _____    ______ ____
ROOT
ATOM      1  C   UNL     1       2.973   0.144   5.145  0.00  0.00    +0.000 C 
ENDROOT
BRANCH   1   4
ATOM      2  C   UNL     1       3.086   0.373   1.322  0.00  0.00    +0.000 A 
ATOM      3  C   UNL     1       2.665   0.090   2.634  0.00  0.00    +0.000 A 
ATOM      4  C   UNL     1       3.418   0.490   3.748  0.00  0.00    +0.000 A 
ATOM      5  C   UNL     1       4.588   1.215   3.529  0.00  0.00    +0.000 A 
ATOM      6  C   UNL     1       4.975   1.554   2.228  0.00  0.00    +0.000 A 
ATOM      7  C   UNL     1       4.220   1.174   1.098  0.00  0.00    +0.000 A 
BRANCH   2   9
ATOM      8  C   UNL     1       2.946  -0.980  -0.595  0.00  0.00    +0.000 C 
ATOM      9  O   UNL     1       2.274  -0.143   0.345  0.00  0.00    +0.000 OA
ENDBRANCH   2   9
BRANCH   7  10
ATOM     10  C   UNL     1       4.691   1.684  -0.254  0.00  0.00    +0.000 C 
BRANCH  10  11
ATOM     11  N   UNL     1       4.175   2.960  -0.776  0.00  0.00    +0.000 NA
ATOM     12  C   UNL     1       4.408   4.133   0.064  0.00  0.00    +0.000 C 
ATOM     13  C   UNL     1       3.131   4.292   0.863  0.00  0.00    +0.000 C 
ATOM     14  C   UNL     1       2.061   3.922  -0.147  0.00  0.00    +0.000 C 
ATOM     15  C   UNL     1       2.751   2.970  -1.122  0.00  0.00    +0.000 C 
ENDBRANCH  10  11
ENDBRANCH   7  10
ENDBRANCH   1   4
BRANCH   1  16
ATOM     16  N   UNL     1       2.194   1.199   5.752  0.00  0.00    +0.000 N 
ATOM     17  C   UNL     1       0.825   1.166   5.804  0.00  0.00    +0.000 C 
ATOM     18  O   UNL     1       0.177   0.250   5.305  0.00  0.00    +0.000 OA
ATOM     19  H   UNL     1       2.691   2.038   6.030  0.00  0.00    +0.000 HD
BRANCH  17  20
ATOM     20  C   UNL     1       0.166   2.242   6.558  0.00  0.00    +0.000 A 
ATOM     21  C   UNL     1      -1.143   2.055   7.000  0.00  0.00    +0.000 A 
ATOM     22  S   UNL     1      -1.765   3.373   7.887  0.00  0.00    +0.000 S 
ATOM     23  C   UNL     1      -0.325   4.255   7.682  0.00  0.00    +0.000 A 
ATOM     24  N   UNL     1      -0.207   5.518   8.193  0.00  0.00    +0.000 NA
ATOM     25  C   UNL     1       0.927   6.086   7.942  0.00  0.00    +0.000 A 
ATOM     26  N   UNL     1       1.949   5.509   7.235  0.00  0.00    +0.000 N 
ATOM     27  C   UNL     1       1.890   4.226   6.747  0.00  0.00    +0.000 A 
ATOM     28  O   UNL     1       2.861   3.709   6.201  0.00  0.00    +0.000 OA
ATOM     29  C   UNL     1       0.626   3.548   6.967  0.00  0.00    +0.000 A 
ATOM     30  H   UNL     1       2.819   6.001   7.096  0.00  0.00    +0.000 HD
ENDBRANCH  17  20
ENDBRANCH   1  16
TORSDOF 6
