REMARK  Name = 
REMARK  3 active torsions:
REMARK  status: ('A' for Active; 'I' for Inactive)
REMARK    1  A    between atoms: C_2  and  C_4
REMARK    2  A    between atoms: N_8  and  C_9
REMARK    3  A    between atoms: C_9  and  C_10
REMARK                            x       y       z     vdW  Elec       q    Type
REMARK                         _______ _______ _______ _____ _____    ______ ____
ROOT
ATOM      1  C   UNL     1       7.754   2.085  -0.652  0.00  0.00    +0.000 A 
ATOM      2  C   UNL     1       7.683   3.462  -0.468  0.00  0.00    +0.000 A 
ATOM      3  C   UNL     1       6.789   4.204  -1.241  0.00  0.00    +0.000 A 
ATOM      4  C   UNL     1       5.979   3.565  -2.173  0.00  0.00    +0.000 A 
ATOM      5  N   UNL     1       5.061   4.206  -2.950  0.00  0.00    +0.000 N 
ATOM      6  N   UNL     1       6.067   2.235  -2.380  0.00  0.00    +0.000 NA
ATOM      7  C   UNL     1       6.950   1.525  -1.630  0.00  0.00    +0.000 A 
ATOM      8  H   UNL     1       4.554   3.590  -3.575  0.00  0.00    +0.000 HD
ENDROOT
BRANCH   1  10
ATOM      9  N   UNL     1       9.002   1.654   1.383  0.00  0.00    +0.000 N 
ATOM     10  C   UNL     1       8.649   1.216   0.136  0.00  0.00    +0.000 C 
ATOM     11  O   UNL     1       9.030   0.134  -0.288  0.00  0.00    +0.000 OA
ATOM     12  H   UNL     1       9.527   1.003   1.953  0.00  0.00    +0.000 HD
ATOM     13  H   UNL     1       8.519   2.402   1.857  0.00  0.00    +0.000 HD
ENDBRANCH   1  10
BRANCH   5  14
ATOM     14  C   UNL     1       4.663   5.590  -2.859  0.00  0.00    +0.000 C 
BRANCH  14  15
ATOM     15  C   UNL     1       5.444   6.496  -3.779  0.00  0.00    +0.000 A 
ATOM     16  C   UNL     1       6.385   6.040  -4.700  0.00  0.00    +0.000 A 
ATOM     17  C   UNL     1       7.047   6.970  -5.483  0.00  0.00    +0.000 A 
ATOM     18  N   UNL     1       6.847   8.304  -5.410  0.00  0.00    +0.000 NA
ATOM     19  C   UNL     1       5.935   8.758  -4.527  0.00  0.00    +0.000 A 
ATOM     20  N   UNL     1       5.749  10.136  -4.339  0.00  0.00    +0.000 N 
ATOM     21  C   UNL     1       6.876  10.951  -4.806  0.00  0.00    +0.000 C 
ATOM     22  C   UNL     1       6.728  12.347  -4.198  0.00  0.00    +0.000 C 
ATOM     23  C   UNL     1       5.373  12.967  -4.542  0.00  0.00    +0.000 C 
ATOM     24  C   UNL     1       4.217  12.015  -4.226  0.00  0.00    +0.000 C 
ATOM     25  C   UNL     1       4.451  10.624  -4.819  0.00  0.00    +0.000 C 
ATOM     26  C   UNL     1       5.219   7.877  -3.712  0.00  0.00    +0.000 A 
ENDBRANCH  14  15
ENDBRANCH   5  14
TORSDOF 3
