REMARK  Name = 
REMARK  5 active torsions:
REMARK  status: ('A' for Active; 'I' for Inactive)
REMARK    1  A    between atoms: N_1  and  C_2
REMARK    2  A    between atoms: C_2  and  C_3
REMARK    3  A    between atoms: C_6  and  O_7
REMARK    4  A    between atoms: O_7  and  C_8
REMARK    5  A    between atoms: C_8  and  C_9
REMARK                            x       y       z     vdW  Elec       q    Type
REMARK                         _______ _______ _______ _____ _____    ______ ____
ROOT
ATOM      1  C   UNL     1       2.976  -1.258  -0.574  0.00  0.00    +0.000 A 
ATOM      2  C   UNL     1       4.111  -1.335  -1.394  0.00  0.00    +0.000 A 
ATOM      3  C   UNL     1       4.557  -2.569  -1.877  0.00  0.00    +0.000 A 
ATOM      4  C   UNL     1       3.884  -3.742  -1.538  0.00  0.00    +0.000 A 
ATOM      5  C   UNL     1       2.724  -3.666  -0.766  0.00  0.00    +0.000 A 
ATOM      6  C   UNL     1       2.279  -2.436  -0.279  0.00  0.00    +0.000 A 
ENDROOT
BRANCH   1   7
ATOM      7  C   UNL     1       2.530   0.056   0.011  0.00  0.00    +0.000 C 
BRANCH   7   8
ATOM      8  N   UNL     1       2.192   1.025  -1.022  0.00  0.00    +0.000 NA
ATOM      9  H   UNL     1       1.832   1.868  -0.580  0.00  0.00    +0.000 HD
ATOM     10  H   UNL     1       1.432   0.648  -1.587  0.00  0.00    +0.000 HD
ENDBRANCH   7   8
ENDBRANCH   1   7
BRANCH   4  11
ATOM     11  O   UNL     1       4.440  -4.902  -2.004  0.00  0.00    +0.000 OA
BRANCH  11  12
ATOM     12  C   UNL     1       4.075  -6.080  -1.281  0.00  0.00    +0.000 C 
BRANCH  12  13
ATOM     13  C   UNL     1       5.108  -7.155  -1.508  0.00  0.00    +0.000 A 
ATOM     14  C   UNL     1       6.459  -6.910  -1.211  0.00  0.00    +0.000 A 
ATOM     15  C   UNL     1       7.414  -7.917  -1.358  0.00  0.00    +0.000 A 
ATOM     16  C   UNL     1       7.026  -9.181  -1.801  0.00  0.00    +0.000 A 
ATOM     17  C   UNL     1       5.689  -9.424  -2.093  0.00  0.00    +0.000 A 
ATOM     18  F   UNL     1       5.317 -10.641  -2.510  0.00  0.00    +0.000 F 
ATOM     19  C   UNL     1       4.729  -8.429  -1.950  0.00  0.00    +0.000 A 
ENDBRANCH  12  13
ENDBRANCH  11  12
ENDBRANCH   4  11
TORSDOF 5
