REMARK  Name = 
REMARK  6 active torsions:
REMARK  status: ('A' for Active; 'I' for Inactive)
REMARK    1  A    between atoms: C_1  and  C_2
REMARK    2  A    between atoms: C_4  and  O_5
REMARK    3  A    between atoms: O_5  and  C_6
REMARK    4  A    between atoms: C_6  and  C_7
REMARK    5  A    between atoms: C_11  and  C_12
REMARK    6  A    between atoms: C_22  and  C_23
REMARK                            x       y       z     vdW  Elec       q    Type
REMARK                         _______ _______ _______ _____ _____    ______ ____
ROOT
ATOM      1  C   UNL     1       1.117  -3.546  -0.035  0.00  0.00    +0.000 C 
ENDROOT
BRANCH   1   2
ATOM      2  C   UNL     1       2.120  -4.679  -0.065  0.00  0.00    +0.000 A 
ATOM      3  C   UNL     1       1.837  -5.885   0.586  0.00  0.00    +0.000 A 
ATOM      4  C   UNL     1       2.730  -6.950   0.511  0.00  0.00    +0.000 A 
ATOM      5  C   UNL     1       3.905  -6.827  -0.234  0.00  0.00    +0.000 A 
ATOM      6  C   UNL     1       4.207  -5.649  -0.940  0.00  0.00    +0.000 A 
ATOM      7  C   UNL     1       3.294  -4.583  -0.831  0.00  0.00    +0.000 A 
BRANCH   6   8
ATOM      8  C   UNL     1       5.411  -5.541  -1.794  0.00  0.00    +0.000 A 
ATOM      9  C   UNL     1       6.100  -4.321  -1.946  0.00  0.00    +0.000 A 
ATOM     10  C   UNL     1       7.218  -4.213  -2.779  0.00  0.00    +0.000 A 
ATOM     11  C   UNL     1       7.688  -5.327  -3.464  0.00  0.00    +0.000 A 
ATOM     12  C   UNL     1       7.030  -6.544  -3.324  0.00  0.00    +0.000 A 
ATOM     13 CL   UNL     1       7.607  -7.931  -4.163  0.00  0.00    +0.000 Cl
ATOM     14  C   UNL     1       5.901  -6.650  -2.508  0.00  0.00    +0.000 A 
ENDBRANCH   6   8
ENDBRANCH   1   2
BRANCH   1  15
ATOM     15  O   UNL     1       1.776  -2.274  -0.065  0.00  0.00    +0.000 OA
BRANCH  15  19
ATOM     16  C   UNL     1       1.094   2.551  -0.089  0.00  0.00    +0.000 C 
ATOM     17  C   UNL     1       0.526   1.159  -0.089  0.00  0.00    +0.000 A 
ATOM     18  C   UNL     1       1.403   0.060  -0.092  0.00  0.00    +0.000 A 
ATOM     19  C   UNL     1       0.879  -1.226  -0.080  0.00  0.00    +0.000 A 
ATOM     20  N   UNL     1      -0.443  -1.487  -0.071  0.00  0.00    +0.000 NA
ATOM     21  C   UNL     1      -1.274  -0.419  -0.059  0.00  0.00    +0.000 A 
ATOM     22  C   UNL     1      -0.858   0.908  -0.079  0.00  0.00    +0.000 A 
BRANCH  22  23
ATOM     23  C   UNL     1      -1.878   1.993  -0.039  0.00  0.00    +0.000 C 
ATOM     24  N   UNL     1      -3.113   1.725  -0.562  0.00  0.00    +0.000 N 
ATOM     25  O   UNL     1      -1.644   3.095   0.432  0.00  0.00    +0.000 OA
ATOM     26  H   UNL     1      -3.335   0.920  -1.130  0.00  0.00    +0.000 HD
ATOM     27  H   UNL     1      -3.768   2.498  -0.576  0.00  0.00    +0.000 HD
ENDBRANCH  22  23
ENDBRANCH  15  19
ENDBRANCH   1  15
TORSDOF 5
