REMARK  Name = 
REMARK  10 active torsions:
REMARK  status: ('A' for Active; 'I' for Inactive)
REMARK    1  A    between atoms: C_1  and  C_2
REMARK    2  A    between atoms: C_2  and  C_3
REMARK    3  A    between atoms: C_5  and  N_6
REMARK    4  A    between atoms: N_6  and  C_7
REMARK    5  A    between atoms: C_9  and  S_10
REMARK    6  A    between atoms: S_10  and  C_11
REMARK    7  A    between atoms: C_11  and  C_12
REMARK    8  A    between atoms: C_12  and  C_15
REMARK    9  A    between atoms: C_18  and  C_19
REMARK   10  A    between atoms: C_25  and  C_26
REMARK                            x       y       z     vdW  Elec       q    Type
REMARK                         _______ _______ _______ _____ _____    ______ ____
ROOT
ATOM      1  C   UNL     1      -1.574  -1.040  -2.962  0.00  0.00    +0.000 A 
ATOM      2  C   UNL     1      -0.417  -0.647  -3.658  0.00  0.00    +0.000 A 
ATOM      3  C   UNL     1      -0.395  -0.618  -5.057  0.00  0.00    +0.000 A 
ATOM      4  C   UNL     1      -1.545  -0.996  -5.759  0.00  0.00    +0.000 A 
ATOM      5  C   UNL     1      -2.709  -1.399  -5.086  0.00  0.00    +0.000 A 
ATOM      6  C   UNL     1      -2.708  -1.408  -3.690  0.00  0.00    +0.000 A 
ENDROOT
BRANCH   5   7
ATOM      7  C   UNL     1      -3.918  -1.863  -5.854  0.00  0.00    +0.000 C 
ATOM      8  F   UNL     1      -3.726  -1.846  -7.203  0.00  0.00    +0.000 F 
ATOM      9  F   UNL     1      -4.271  -3.140  -5.545  0.00  0.00    +0.000 F 
ATOM     10  F   UNL     1      -5.024  -1.102  -5.626  0.00  0.00    +0.000 F 
ENDBRANCH   5   7
BRANCH   1  11
ATOM     11  N   UNL     1      -1.563  -1.111  -1.557  0.00  0.00    +0.000 N 
ATOM     12  H   UNL     1      -0.769  -0.680  -1.097  0.00  0.00    +0.000 HD
BRANCH  11  17
ATOM     13  C   UNL     1      -4.003  -0.226  -0.009  0.00  0.00    +0.000 C 
ATOM     14  C   UNL     1      -3.621  -1.683  -0.066  0.00  0.00    +0.000 C 
ATOM     15  C   UNL     1      -4.786  -2.637  -0.138  0.00  0.00    +0.000 C 
ATOM     16  C   UNL     1      -2.372  -2.115   0.668  0.00  0.00    +0.000 C 
ATOM     17  C   UNL     1      -2.377  -2.086  -0.832  0.00  0.00    +0.000 C 
ENDBRANCH  11  17
ENDBRANCH   1  11
BRANCH   3  18
ATOM     18  S   UNL     1       1.034  -0.227  -6.056  0.00  0.00    +0.000 S 
BRANCH  18  19
ATOM     19  C   UNL     1       1.964   0.970  -5.026  0.00  0.00    +0.000 C 
BRANCH  19  20
ATOM     20  C   UNL     1       3.246   1.443  -5.731  0.00  0.00    +0.000 C 
ATOM     21  F   UNL     1       4.050   0.366  -5.981  0.00  0.00    +0.000 F 
ATOM     22  F   UNL     1       2.918   1.947  -6.961  0.00  0.00    +0.000 F 
BRANCH  20  23
ATOM     23  C   UNL     1       3.955   2.491  -4.876  0.00  0.00    +0.000 A 
ATOM     24  C   UNL     1       4.729   3.477  -5.494  0.00  0.00    +0.000 A 
ATOM     25  C   UNL     1       5.382   4.421  -4.706  0.00  0.00    +0.000 A 
ATOM     26  C   UNL     1       5.281   4.362  -3.323  0.00  0.00    +0.000 A 
ATOM     27  C   UNL     1       4.504   3.345  -2.775  0.00  0.00    +0.000 A 
ATOM     28  N   UNL     1       3.835   2.428  -3.523  0.00  0.00    +0.000 NA
BRANCH  26  29
ATOM     29  C   UNL     1       6.014   5.333  -2.466  0.00  0.00    +0.000 C 
ATOM     30  N   UNL     1       6.252   6.583  -2.983  0.00  0.00    +0.000 N 
ATOM     31  O   UNL     1       6.397   5.033  -1.355  0.00  0.00    +0.000 OA
ATOM     32  H   UNL     1       5.918   6.933  -3.866  0.00  0.00    +0.000 HD
ATOM     33  H   UNL     1       6.738   7.228  -2.371  0.00  0.00    +0.000 HD
ENDBRANCH  26  29
ENDBRANCH  20  23
ENDBRANCH  19  20
ENDBRANCH  18  19
ENDBRANCH   3  18
TORSDOF 8
