REMARK  Name = 
REMARK  6 active torsions:
REMARK  status: ('A' for Active; 'I' for Inactive)
REMARK    1  A    between atoms: C_2  and  C_4
REMARK    2  A    between atoms: C_8  and  C_9
REMARK    3  A    between atoms: C_9  and  C_10
REMARK    4  A    between atoms: C_13  and  C_14
REMARK    5  A    between atoms: C_14  and  N_15
REMARK    6  A    between atoms: C_16  and  C_18
REMARK                            x       y       z     vdW  Elec       q    Type
REMARK                         _______ _______ _______ _____ _____    ______ ____
ROOT
ATOM      1  C   UNL     1       2.152  -1.961  -4.793  0.00  0.00    +0.000 A 
ATOM      2  C   UNL     1       2.340  -0.579  -4.936  0.00  0.00    +0.000 A 
ATOM      3  C   UNL     1       1.333   0.227  -5.476  0.00  0.00    +0.000 A 
ATOM      4  C   UNL     1       0.111  -0.332  -5.874  0.00  0.00    +0.000 A 
ATOM      5  C   UNL     1      -0.056  -1.719  -5.783  0.00  0.00    +0.000 A 
ATOM      6  C   UNL     1       0.950  -2.524  -5.240  0.00  0.00    +0.000 A 
ENDROOT
BRANCH   1   7
ATOM      7  C   UNL     1       3.201  -2.819  -4.124  0.00  0.00    +0.000 C 
BRANCH   7  12
ATOM      8  C   UNL     1       2.080  -3.896  -0.634  0.00  0.00    +0.000 A 
ATOM      9  C   UNL     1       2.706  -2.901   0.103  0.00  0.00    +0.000 A 
ATOM     10  N   UNL     1       3.491  -1.942  -0.444  0.00  0.00    +0.000 NA
ATOM     11  C   UNL     1       3.629  -1.963  -1.789  0.00  0.00    +0.000 A 
ATOM     12  C   UNL     1       3.033  -2.904  -2.627  0.00  0.00    +0.000 A 
ATOM     13  C   UNL     1       2.242  -3.892  -2.024  0.00  0.00    +0.000 A 
BRANCH   8  15
ATOM     14  N   UNL     1       1.134  -6.130  -0.485  0.00  0.00    +0.000 N 
ATOM     15  C   UNL     1       1.258  -4.893   0.084  0.00  0.00    +0.000 C 
ATOM     16  O   UNL     1       0.736  -4.639   1.162  0.00  0.00    +0.000 OA
ATOM     17  H   UNL     1       0.664  -6.831   0.075  0.00  0.00    +0.000 HD
ATOM     18  H   UNL     1       1.753  -6.456  -1.213  0.00  0.00    +0.000 HD
ENDBRANCH   8  15
ENDBRANCH   7  12
ENDBRANCH   1   7
BRANCH   4  19
ATOM     19  C   UNL     1      -1.003   0.536  -6.399  0.00  0.00    +0.000 C 
BRANCH  19  20
ATOM     20  N   UNL     1      -0.933   0.680  -7.829  0.00  0.00    +0.000 N 
ATOM     21  C   UNL     1      -1.807   1.499  -8.497  0.00  0.00    +0.000 C 
ATOM     22  O   UNL     1      -2.645   2.177  -7.908  0.00  0.00    +0.000 OA
ATOM     23  H   UNL     1      -0.419  -0.030  -8.340  0.00  0.00    +0.000 HD
BRANCH  21  24
ATOM     24  C   UNL     1      -1.651   1.576  -9.955  0.00  0.00    +0.000 A 
ATOM     25  C   UNL     1      -2.130   2.684 -10.640  0.00  0.00    +0.000 A 
ATOM     26  S   UNL     1      -1.816   2.643 -12.315  0.00  0.00    +0.000 S 
ATOM     27  C   UNL     1      -1.075   1.116 -12.193  0.00  0.00    +0.000 A 
ATOM     28  N   UNL     1      -0.589   0.486 -13.296  0.00  0.00    +0.000 NA
ATOM     29  C   UNL     1      -0.085  -0.680 -13.065  0.00  0.00    +0.000 A 
ATOM     30  N   UNL     1      -0.017  -1.270 -11.829  0.00  0.00    +0.000 N 
ATOM     31  C   UNL     1      -0.468  -0.659 -10.684  0.00  0.00    +0.000 A 
ATOM     32  O   UNL     1      -0.357  -1.201  -9.588  0.00  0.00    +0.000 OA
ATOM     33  C   UNL     1      -1.055   0.651 -10.890  0.00  0.00    +0.000 A 
ATOM     34  H   UNL     1       0.396  -2.183 -11.715  0.00  0.00    +0.000 HD
ENDBRANCH  21  24
ENDBRANCH  19  20
ENDBRANCH   4  19
TORSDOF 6
