REMARK  Name = 
REMARK  7 active torsions:
REMARK  status: ('A' for Active; 'I' for Inactive)
REMARK    1  A    between atoms: C_1  and  N_2
REMARK    2  A    between atoms: N_2  and  C_3
REMARK    3  A    between atoms: C_3  and  C_4
REMARK    4  A    between atoms: C_4  and  C_5
REMARK    5  A    between atoms: C_8  and  O_9
REMARK    6  A    between atoms: O_9  and  C_10
REMARK    7  A    between atoms: C_10  and  C_11
REMARK                            x       y       z     vdW  Elec       q    Type
REMARK                         _______ _______ _______ _____ _____    ______ ____
ROOT
ATOM      1  C   UNL     1       4.946   0.082  -2.788  0.00  0.00    +0.000 A 
ATOM      2  C   UNL     1       5.167   1.317  -3.419  0.00  0.00    +0.000 A 
ATOM      3  C   UNL     1       5.715   1.364  -4.702  0.00  0.00    +0.000 A 
ATOM      4  C   UNL     1       6.070   0.185  -5.355  0.00  0.00    +0.000 A 
ATOM      5  C   UNL     1       5.813  -1.045  -4.749  0.00  0.00    +0.000 A 
ATOM      6  C   UNL     1       5.266  -1.093  -3.468  0.00  0.00    +0.000 A 
ENDROOT
BRANCH   1   7
ATOM      7  C   UNL     1       4.386   0.015  -1.387  0.00  0.00    +0.000 C 
BRANCH   7   8
ATOM      8  C   UNL     1       2.968   0.592  -1.297  0.00  0.00    +0.000 C 
BRANCH   8  10
ATOM      9  C   UNL     1       1.118   1.033   0.171  0.00  0.00    +0.000 C 
ATOM     10  N   UNL     1       2.455   0.464   0.070  0.00  0.00    +0.000 NA
ATOM     11  H   UNL     1       2.420  -0.522   0.329  0.00  0.00    +0.000 HD
ENDBRANCH   8  10
ENDBRANCH   7   8
ENDBRANCH   1   7
BRANCH   4  12
ATOM     12  O   UNL     1       6.666   0.336  -6.579  0.00  0.00    +0.000 OA
BRANCH  12  13
ATOM     13  C   UNL     1       7.530  -0.746  -6.944  0.00  0.00    +0.000 C 
BRANCH  13  14
ATOM     14  C   UNL     1       8.550  -0.324  -7.970  0.00  0.00    +0.000 A 
ATOM     15  C   UNL     1       9.024   0.981  -8.029  0.00  0.00    +0.000 A 
ATOM     16  C   UNL     1      10.013   1.284  -8.953  0.00  0.00    +0.000 A 
ATOM     17 CL   UNL     1      10.617   2.894  -9.061  0.00  0.00    +0.000 Cl
ATOM     18  C   UNL     1      10.536   0.297  -9.770  0.00  0.00    +0.000 A 
ATOM     19  C   UNL     1      10.027  -0.978  -9.631  0.00  0.00    +0.000 A 
ATOM     20  N   UNL     1       9.052  -1.308  -8.757  0.00  0.00    +0.000 NA
ENDBRANCH  13  14
ENDBRANCH  12  13
ENDBRANCH   4  12
TORSDOF 6
