REMARK  Name = 
REMARK  5 active torsions:
REMARK  status: ('A' for Active; 'I' for Inactive)
REMARK    1  A    between atoms: N_1  and  C_2
REMARK    2  A    between atoms: C_2  and  C_3
REMARK    3  A    between atoms: C_3  and  C_4
REMARK    4  A    between atoms: C_7  and  C_8
REMARK    5  A    between atoms: C_8  and  N_9
REMARK                            x       y       z     vdW  Elec       q    Type
REMARK                         _______ _______ _______ _____ _____    ______ ____
ROOT
ATOM      1  C   UNL     1       4.400   1.002   1.177  0.00  0.00    +0.000 A 
ATOM      2  C   UNL     1       5.058   2.237   1.132  0.00  0.00    +0.000 A 
ATOM      3  C   UNL     1       6.453   2.304   1.214  0.00  0.00    +0.000 A 
ATOM      4  C   UNL     1       7.217   1.135   1.332  0.00  0.00    +0.000 A 
ATOM      5  C   UNL     1       6.555  -0.101   1.355  0.00  0.00    +0.000 A 
ATOM      6  C   UNL     1       5.163  -0.167   1.273  0.00  0.00    +0.000 A 
ENDROOT
BRANCH   1   7
ATOM      7  C   UNL     1       2.893   0.929   1.142  0.00  0.00    +0.000 C 
BRANCH   7   8
ATOM      8  C   UNL     1       2.338   0.858  -0.283  0.00  0.00    +0.000 C 
BRANCH   8   9
ATOM      9  N   UNL     1       0.875   0.807  -0.270  0.00  0.00    +0.000 NA
ATOM     10  H   UNL     1       0.529   0.799  -1.229  0.00  0.00    +0.000 HD
ATOM     11  H   UNL     1       0.506   1.655   0.159  0.00  0.00    +0.000 HD
ENDBRANCH   8   9
ENDBRANCH   7   8
ENDBRANCH   1   7
BRANCH   4  12
ATOM     12  C   UNL     1       8.718   1.198   1.479  0.00  0.00    +0.000 C 
BRANCH  12  13
ATOM     13  N   UNL     1       9.115   1.279   2.878  0.00  0.00    +0.000 N 
ATOM     14  C   UNL     1       9.373   2.443   3.565  0.00  0.00    +0.000 A 
ATOM     15  C   UNL     1       9.691   2.106   4.864  0.00  0.00    +0.000 A 
ATOM     16  C   UNL     1       9.646   0.690   4.965  0.00  0.00    +0.000 A 
ATOM     17  C   UNL     1       9.851  -0.245   5.992  0.00  0.00    +0.000 A 
ATOM     18  C   UNL     1       9.714  -1.596   5.676  0.00  0.00    +0.000 A 
ATOM     19  C   UNL     1       9.398  -1.952   4.372  0.00  0.00    +0.000 A 
ATOM     20  N   UNL     1       9.193  -1.096   3.346  0.00  0.00    +0.000 NA
ATOM     21  C   UNL     1       9.316   0.200   3.703  0.00  0.00    +0.000 A 
ENDBRANCH  12  13
ENDBRANCH   4  12
TORSDOF 5
