REMARK  Name = 
REMARK  8 active torsions:
REMARK  status: ('A' for Active; 'I' for Inactive)
REMARK    1  A    between atoms: C_1  and  O_2
REMARK    2  A    between atoms: O_2  and  C_3
REMARK    3  A    between atoms: C_5  and  C_6
REMARK    4  A    between atoms: C_6  and  N_7
REMARK    5  A    between atoms: C_8  and  C_10
REMARK    6  A    between atoms: C_17  and  C_18
REMARK    7  A    between atoms: C_18  and  N_19
REMARK    8  A    between atoms: C_20  and  C_22
REMARK                            x       y       z     vdW  Elec       q    Type
REMARK                         _______ _______ _______ _____ _____    ______ ____
ROOT
ATOM      1  C   UNL     1       3.042   1.119  -0.553  0.00  0.00    +0.000 A 
ATOM      2  C   UNL     1       2.665   2.402  -0.143  0.00  0.00    +0.000 A 
ATOM      3  C   UNL     1       3.359   3.541  -0.580  0.00  0.00    +0.000 A 
ATOM      4  C   UNL     1       4.432   3.378  -1.465  0.00  0.00    +0.000 A 
ATOM      5  C   UNL     1       4.817   2.102  -1.875  0.00  0.00    +0.000 A 
ATOM      6  C   UNL     1       4.143   0.958  -1.415  0.00  0.00    +0.000 A 
ENDROOT
BRANCH   1   8
ATOM      7  C   UNL     1       1.086   0.100   0.340  0.00  0.00    +0.000 C 
ATOM      8  O   UNL     1       2.421  -0.032  -0.136  0.00  0.00    +0.000 OA
ENDBRANCH   1   8
BRANCH   3   9
ATOM      9  C   UNL     1       2.927   4.916  -0.144  0.00  0.00    +0.000 C 
BRANCH   9  10
ATOM     10  N   UNL     1       1.964   5.464  -1.063  0.00  0.00    +0.000 N 
ATOM     11  C   UNL     1       1.347   6.677  -0.850  0.00  0.00    +0.000 C 
ATOM     12  O   UNL     1       1.580   7.349   0.153  0.00  0.00    +0.000 OA
ATOM     13  H   UNL     1       1.795   4.989  -1.940  0.00  0.00    +0.000 HD
BRANCH  11  14
ATOM     14  C   UNL     1       0.414   7.097  -1.891  0.00  0.00    +0.000 A 
ATOM     15  C   UNL     1      -0.285   8.290  -1.959  0.00  0.00    +0.000 A 
ATOM     16  C   UNL     1      -1.130   8.370  -3.104  0.00  0.00    +0.000 A 
ATOM     17  C   UNL     1      -1.053   7.235  -3.880  0.00  0.00    +0.000 A 
ATOM     18  S   UNL     1       0.035   6.090  -3.232  0.00  0.00    +0.000 S 
ENDBRANCH  11  14
ENDBRANCH   9  10
ENDBRANCH   3   9
BRANCH   6  19
ATOM     19  C   UNL     1       4.586  -0.393  -1.927  0.00  0.00    +0.000 C 
BRANCH  19  20
ATOM     20  N   UNL     1       3.922  -0.700  -3.173  0.00  0.00    +0.000 N 
ATOM     21  C   UNL     1       4.513  -1.421  -4.176  0.00  0.00    +0.000 C 
ATOM     22  O   UNL     1       5.700  -1.736  -4.151  0.00  0.00    +0.000 OA
ATOM     23  H   UNL     1       2.913  -0.601  -3.158  0.00  0.00    +0.000 HD
BRANCH  21  24
ATOM     24  C   UNL     1       3.655  -1.783  -5.312  0.00  0.00    +0.000 A 
ATOM     25  C   UNL     1       4.218  -2.036  -6.556  0.00  0.00    +0.000 A 
ATOM     26  S   UNL     1       3.083  -2.519  -7.735  0.00  0.00    +0.000 S 
ATOM     27  C   UNL     1       1.811  -2.474  -6.605  0.00  0.00    +0.000 A 
ATOM     28  N   UNL     1       0.561  -2.892  -6.940  0.00  0.00    +0.000 NA
ATOM     29  C   UNL     1      -0.298  -2.829  -5.978  0.00  0.00    +0.000 A 
ATOM     30  N   UNL     1      -0.031  -2.345  -4.724  0.00  0.00    +0.000 N 
ATOM     31  C   UNL     1       1.200  -1.853  -4.362  0.00  0.00    +0.000 A 
ATOM     32  O   UNL     1       1.371  -1.312  -3.274  0.00  0.00    +0.000 OA
ATOM     33  C   UNL     1       2.227  -1.993  -5.376  0.00  0.00    +0.000 A 
ATOM     34  H   UNL     1      -0.762  -2.265  -4.034  0.00  0.00    +0.000 HD
ENDBRANCH  21  24
ENDBRANCH  19  20
ENDBRANCH   6  19
TORSDOF 7
