REMARK  Name = 
REMARK  5 active torsions:
REMARK  status: ('A' for Active; 'I' for Inactive)
REMARK    1  A    between atoms: C_2  and  C_17
REMARK    2  A    between atoms: N_3  and  C_4
REMARK    3  A    between atoms: C_4  and  C_5
REMARK    4  A    between atoms: C_8  and  C_9
REMARK    5  A    between atoms: C_9  and  C_10
REMARK                            x       y       z     vdW  Elec       q    Type
REMARK                         _______ _______ _______ _____ _____    ______ ____
ROOT
ATOM      1  O   UNL     1       1.021   0.002   0.033  0.00  0.00    +0.000 OA
ATOM      2  C   UNL     1       2.026   0.596  -0.347  0.00  0.00    +0.000 C 
ATOM      3  N   UNL     1       2.742   1.423   0.485  0.00  0.00    +0.000 N 
ATOM      4  H   UNL     1       3.411   2.071   0.078  0.00  0.00    +0.000 HD
ENDROOT
BRANCH   2   5
ATOM      5  C   UNL     1       2.547   0.425  -1.705  0.00  0.00    +0.000 A 
ATOM      6  C   UNL     1       2.284  -0.744  -2.406  0.00  0.00    +0.000 A 
ATOM      7  S   UNL     1       2.967  -0.769  -3.969  0.00  0.00    +0.000 S 
ATOM      8  C   UNL     1       3.597   0.803  -3.778  0.00  0.00    +0.000 A 
ATOM      9  N   UNL     1       4.273   1.416  -4.787  0.00  0.00    +0.000 NA
ATOM     10  C   UNL     1       4.667   2.615  -4.513  0.00  0.00    +0.000 A 
ATOM     11  N   UNL     1       4.454   3.251  -3.320  0.00  0.00    +0.000 N 
ATOM     12  C   UNL     1       3.810   2.662  -2.261  0.00  0.00    +0.000 A 
ATOM     13  O   UNL     1       3.690   3.237  -1.186  0.00  0.00    +0.000 OA
ATOM     14  C   UNL     1       3.321   1.320  -2.529  0.00  0.00    +0.000 A 
ATOM     15  H   UNL     1       4.809   4.185  -3.162  0.00  0.00    +0.000 HD
ENDBRANCH   2   5
BRANCH   3  16
ATOM     16  C   UNL     1       2.248   1.722   1.802  0.00  0.00    +0.000 C 
BRANCH  16  17
ATOM     17  C   UNL     1       3.147   2.657   2.549  0.00  0.00    +0.000 A 
ATOM     18  C   UNL     1       3.012   4.038   2.418  0.00  0.00    +0.000 A 
ATOM     19  C   UNL     1       3.829   4.886   3.161  0.00  0.00    +0.000 A 
ATOM     20  C   UNL     1       4.754   4.345   4.049  0.00  0.00    +0.000 A 
ATOM     21  N   UNL     1       4.933   3.004   4.153  0.00  0.00    +0.000 NA
ATOM     22  C   UNL     1       4.147   2.198   3.396  0.00  0.00    +0.000 A 
BRANCH  20  23
ATOM     23  C   UNL     1       5.649   5.228   4.887  0.00  0.00    +0.000 C 
BRANCH  23  24
ATOM     24  C   UNL     1       4.947   6.087   5.960  0.00  0.00    +0.000 C 
ATOM     25  C   UNL     1       4.008   7.155   5.413  0.00  0.00    +0.000 C 
ATOM     26  C   UNL     1       3.974   8.218   6.491  0.00  0.00    +0.000 C 
ATOM     27  C   UNL     1       5.320   8.108   7.180  0.00  0.00    +0.000 C 
ATOM     28  N   UNL     1       5.950   6.881   6.696  0.00  0.00    +0.000 NA
ATOM     29  H   UNL     1       6.333   6.340   7.471  0.00  0.00    +0.000 HD
ENDBRANCH  23  24
ENDBRANCH  20  23
ENDBRANCH  16  17
ENDBRANCH   3  16
TORSDOF 5
