REMARK  Name = 
REMARK  7 active torsions:
REMARK  status: ('A' for Active; 'I' for Inactive)
REMARK    1  A    between atoms: C_1  and  C_2
REMARK    2  A    between atoms: C_4  and  C_5
REMARK    3  A    between atoms: C_5  and  O_7
REMARK    4  A    between atoms: C_10  and  O_11
REMARK    5  A    between atoms: O_11  and  C_12
REMARK    6  A    between atoms: C_12  and  C_13
REMARK    7  A    between atoms: N_17  and  C_18
REMARK                            x       y       z     vdW  Elec       q    Type
REMARK                         _______ _______ _______ _____ _____    ______ ____
ROOT
ATOM      1  C   UNL     1      -2.086  -1.634  -0.463  0.00  0.00    +0.000 C 
ATOM      2  C   UNL     1      -0.919  -0.725  -0.172  0.00  0.00    +0.000 A 
ATOM      3  C   UNL     1      -1.261   0.656  -0.024  0.00  0.00    +0.000 A 
ATOM      4  C   UNL     1      -0.288   1.622   0.250  0.00  0.00    +0.000 A 
ATOM      5  C   UNL     1       1.028   1.220   0.397  0.00  0.00    +0.000 A 
ATOM      6  C   UNL     1       1.381  -0.110   0.251  0.00  0.00    +0.000 A 
ATOM      7  C   UNL     1       0.424  -1.125  -0.024  0.00  0.00    +0.000 A 
ENDROOT
BRANCH   4   8
ATOM      8  C   UNL     1      -0.580   3.053   0.483  0.00  0.00    +0.000 C 
ATOM      9  O   UNL     1       0.126   3.749   1.198  0.00  0.00    +0.000 OA
BRANCH   8  10
ATOM     10  O   UNL     1      -1.635   3.549  -0.195  0.00  0.00    +0.000 OA
ATOM     11  H   UNL     1      -2.092   2.939  -0.800  0.00  0.00    +0.000 HD
ENDBRANCH   8  10
ENDBRANCH   4   8
BRANCH   7  12
ATOM     12  O   UNL     1       0.858  -2.441  -0.117  0.00  0.00    +0.000 OA
BRANCH  12  13
ATOM     13  C   UNL     1       2.293  -2.592   0.083  0.00  0.00    +0.000 C 
BRANCH  13  14
ATOM     14  C   UNL     1       2.859  -3.998  -0.027  0.00  0.00    +0.000 C 
ATOM     15  C   UNL     1       2.577  -4.592  -1.402  0.00  0.00    +0.000 C 
ATOM     16  C   UNL     1       3.224  -5.964  -1.486  0.00  0.00    +0.000 C 
ATOM     17  C   UNL     1       2.759  -6.855  -0.334  0.00  0.00    +0.000 C 
ATOM     18  N   UNL     1       3.023  -6.234   0.974  0.00  0.00    +0.000 NA
ATOM     19  C   UNL     1       2.587  -7.117   2.054  0.00  0.00    +0.000 C 
ATOM     20  C   UNL     1       2.366  -4.921   1.089  0.00  0.00    +0.000 C 
ENDBRANCH  13  14
ENDBRANCH  12  13
ENDBRANCH   7  12
TORSDOF 5
