REMARK  Name = 
REMARK  6 active torsions:
REMARK  status: ('A' for Active; 'I' for Inactive)
REMARK    1  A    between atoms: C_1  and  C_2
REMARK    2  A    between atoms: C_2  and  C_3
REMARK    3  A    between atoms: C_2  and  C_4
REMARK    4  A    between atoms: C_2  and  C_15
REMARK    5  A    between atoms: C_5  and  C_6
REMARK    6  A    between atoms: C_9  and  C_10
REMARK                            x       y       z     vdW  Elec       q    Type
REMARK                         _______ _______ _______ _____ _____    ______ ____
ROOT
ATOM      1  C   UNL     1       3.028  -1.238   0.609  0.00  0.00    +0.000 C 
ATOM      2  C   UNL     1       3.334  -2.358  -0.070  0.00  0.00    +0.000 C 
ENDROOT
BRANCH   2   3
ATOM      3  C   UNL     1       3.803  -3.597   0.567  0.00  0.00    +0.000 A 
ATOM      4  C   UNL     1       4.632  -3.604   1.694  0.00  0.00    +0.000 A 
ATOM      5  C   UNL     1       5.052  -4.815   2.245  0.00  0.00    +0.000 A 
ATOM      6  C   UNL     1       4.636  -5.993   1.639  0.00  0.00    +0.000 A 
ATOM      7  N   UNL     1       3.851  -6.035   0.526  0.00  0.00    +0.000 NA
ATOM      8  C   UNL     1       3.466  -4.836   0.022  0.00  0.00    +0.000 A 
BRANCH   6   9
ATOM      9  C   UNL     1       5.046  -7.308   2.223  0.00  0.00    +0.000 C 
ATOM     10  N   UNL     1       4.580  -8.416   1.567  0.00  0.00    +0.000 N 
ATOM     11  O   UNL     1       5.745  -7.399   3.225  0.00  0.00    +0.000 OA
ATOM     12  H   UNL     1       3.997  -8.299   0.744  0.00  0.00    +0.000 HD
ATOM     13  H   UNL     1       4.807  -9.334   1.914  0.00  0.00    +0.000 HD
ENDBRANCH   6   9
ENDBRANCH   2   3
BRANCH   1  15
ATOM     14  C   UNL     1       0.983   0.066   0.139  0.00  0.00    +0.000 C 
ATOM     15  C   UNL     1       2.526   0.089   0.030  0.00  0.00    +0.000 C 
ATOM     16  C   UNL     1       3.026   1.228   0.954  0.00  0.00    +0.000 C 
BRANCH  15  17
ATOM     17  C   UNL     1       3.021   0.350  -1.407  0.00  0.00    +0.000 A 
ATOM     18  C   UNL     1       2.142   0.498  -2.497  0.00  0.00    +0.000 A 
ATOM     19  C   UNL     1       2.624   0.698  -3.790  0.00  0.00    +0.000 A 
ATOM     20  F   UNL     1       1.752   0.823  -4.799  0.00  0.00    +0.000 F 
ATOM     21  C   UNL     1       3.982   0.759  -4.051  0.00  0.00    +0.000 A 
ATOM     22  C   UNL     1       4.861   0.627  -2.989  0.00  0.00    +0.000 A 
ATOM     23  F   UNL     1       6.179   0.681  -3.219  0.00  0.00    +0.000 F 
ATOM     24  C   UNL     1       4.400   0.426  -1.686  0.00  0.00    +0.000 A 
ENDBRANCH  15  17
ENDBRANCH   1  15
TORSDOF 4
