REMARK  Name = 
REMARK  3 active torsions:
REMARK  status: ('A' for Active; 'I' for Inactive)
REMARK    1  A    between atoms: C_2  and  C_4
REMARK    2  A    between atoms: N_8  and  C_9
REMARK    3  A    between atoms: C_9  and  C_10
REMARK                            x       y       z     vdW  Elec       q    Type
REMARK                         _______ _______ _______ _____ _____    ______ ____
ROOT
ATOM      1  C   UNL     1       2.876  -1.553   0.491  0.00  0.00    +0.000 A 
ATOM      2  C   UNL     1       3.848  -1.211   1.429  0.00  0.00    +0.000 A 
ATOM      3  C   UNL     1       4.721  -2.202   1.885  0.00  0.00    +0.000 A 
ATOM      4  C   UNL     1       4.616  -3.507   1.395  0.00  0.00    +0.000 A 
ATOM      5  N   UNL     1       5.464  -4.491   1.928  0.00  0.00    +0.000 N 
ATOM      6  N   UNL     1       3.664  -3.843   0.503  0.00  0.00    +0.000 NA
ATOM      7  C   UNL     1       2.818  -2.872   0.073  0.00  0.00    +0.000 A 
ATOM      8  H   UNL     1       6.411  -4.138   1.998  0.00  0.00    +0.000 HD
ENDROOT
BRANCH   1  10
ATOM      9  N   UNL     1       2.328   0.728  -0.143  0.00  0.00    +0.000 N 
ATOM     10  C   UNL     1       1.915  -0.573  -0.058  0.00  0.00    +0.000 C 
ATOM     11  O   UNL     1       0.814  -0.920  -0.464  0.00  0.00    +0.000 OA
ATOM     12  H   UNL     1       1.702   1.365  -0.619  0.00  0.00    +0.000 HD
ATOM     13  H   UNL     1       3.297   1.003  -0.058  0.00  0.00    +0.000 HD
ENDBRANCH   1  10
BRANCH   5  14
ATOM     14  C   UNL     1       5.355  -5.812   1.304  0.00  0.00    +0.000 C 
BRANCH  14  15
ATOM     15  C   UNL     1       6.443  -6.764   1.838  0.00  0.00    +0.000 C 
ATOM     16  C   UNL     1       7.863  -6.294   1.479  0.00  0.00    +0.000 C 
ATOM     17  C   UNL     1       8.902  -7.338   1.868  0.00  0.00    +0.000 C 
ATOM     18  O   UNL     1       8.612  -8.590   1.253  0.00  0.00    +0.000 OA
ATOM     19  C   UNL     1       7.357  -9.117   1.681  0.00  0.00    +0.000 C 
ATOM     20  C   UNL     1       6.221  -8.182   1.285  0.00  0.00    +0.000 C 
ENDBRANCH  14  15
ENDBRANCH   5  14
TORSDOF 3
