REMARK  Name = 
REMARK  7 active torsions:
REMARK  status: ('A' for Active; 'I' for Inactive)
REMARK    1  A    between atoms: N_1  and  C_2
REMARK    2  A    between atoms: C_2  and  C_3
REMARK    3  A    between atoms: C_3  and  C_4
REMARK    4  A    between atoms: C_4  and  C_5
REMARK    5  A    between atoms: C_6  and  C_7
REMARK    6  A    between atoms: C_10  and  C_11
REMARK    7  A    between atoms: C_11  and  N_12
REMARK                            x       y       z     vdW  Elec       q    Type
REMARK                         _______ _______ _______ _____ _____    ______ ____
ROOT
ATOM      1  C   UNL     1       6.733   4.543  -0.783  0.00  0.00    +0.000 A 
ATOM      2  C   UNL     1       6.117   5.567  -0.074  0.00  0.00    +0.000 A 
ATOM      3  C   UNL     1       6.530   6.882  -0.294  0.00  0.00    +0.000 A 
ATOM      4  C   UNL     1       7.539   7.144  -1.223  0.00  0.00    +0.000 A 
ATOM      5  C   UNL     1       8.113   6.054  -1.862  0.00  0.00    +0.000 A 
ATOM      6  N   UNL     1       7.735   4.774  -1.664  0.00  0.00    +0.000 NA
ENDROOT
BRANCH   1   8
ATOM      7  C   UNL     1       6.837   2.123  -1.304  0.00  0.00    +0.000 C 
ATOM      8  C   UNL     1       6.291   3.149  -0.626  0.00  0.00    +0.000 C 
BRANCH   7   9
ATOM      9  C   UNL     1       6.390   0.697  -1.204  0.00  0.00    +0.000 C 
BRANCH   9  10
ATOM     10  C   UNL     1       7.521  -0.201  -0.701  0.00  0.00    +0.000 C 
BRANCH  10  11
ATOM     11  C   UNL     1       7.069  -1.658  -0.633  0.00  0.00    +0.000 C 
BRANCH  11  12
ATOM     12  N   UNL     1       8.154  -2.503  -0.149  0.00  0.00    +0.000 NA
ATOM     13  H   UNL     1       7.820  -3.461  -0.048  0.00  0.00    +0.000 HD
ATOM     14  H   UNL     1       8.440  -2.198   0.780  0.00  0.00    +0.000 HD
ENDBRANCH  11  12
ENDBRANCH  10  11
ENDBRANCH   9  10
ENDBRANCH   7   9
ENDBRANCH   1   8
BRANCH   4  15
ATOM     15  C   UNL     1       7.988   8.541  -1.546  0.00  0.00    +0.000 C 
BRANCH  15  16
ATOM     16  N   UNL     1       9.071   8.941  -0.658  0.00  0.00    +0.000 N 
ATOM     17  C   UNL     1       9.586  10.215  -0.965  0.00  0.00    +0.000 A 
ATOM     18  C   UNL     1      10.625  10.717  -0.185  0.00  0.00    +0.000 A 
ATOM     19  C   UNL     1      11.148  11.979  -0.467  0.00  0.00    +0.000 A 
ATOM     20  C   UNL     1      10.620  12.710  -1.521  0.00  0.00    +0.000 A 
ATOM     21  C   UNL     1       9.583  12.149  -2.239  0.00  0.00    +0.000 A 
ATOM     22  N   UNL     1       9.058  10.933  -1.979  0.00  0.00    +0.000 NA
ATOM     23  H   UNL     1       9.838   8.274  -0.661  0.00  0.00    +0.000 HD
ENDBRANCH  15  16
ENDBRANCH   4  15
TORSDOF 7
