REMARK  Name = 
REMARK  9 active torsions:
REMARK  status: ('A' for Active; 'I' for Inactive)
REMARK    1  A    between atoms: C_2  and  C_21
REMARK    2  A    between atoms: N_3  and  C_4
REMARK    3  A    between atoms: C_4  and  C_5
REMARK    4  A    between atoms: C_8  and  C_9
REMARK    5  A    between atoms: C_9  and  N_10
REMARK    6  A    between atoms: N_10  and  CA_11
REMARK    7  A    between atoms: CA_11  and  C_12
REMARK    8  A    between atoms: CA_11  and  C_14
REMARK    9  A    between atoms: C_12  and  O_13
REMARK                            x       y       z     vdW  Elec       q    Type
REMARK                         _______ _______ _______ _____ _____    ______ ____
ROOT
ATOM      1  C   UNL     1      10.712   9.796  -4.711  0.00  0.00    +0.000 A 
ATOM      2  C   UNL     1       9.978   8.689  -4.262  0.00  0.00    +0.000 A 
ATOM      3  C   UNL     1       9.081   8.808  -3.197  0.00  0.00    +0.000 A 
ATOM      4  C   UNL     1       8.904  10.037  -2.552  0.00  0.00    +0.000 A 
ATOM      5  C   UNL     1       9.612  11.154  -3.031  0.00  0.00    +0.000 A 
ATOM      6  C   UNL     1      10.504  11.037  -4.099  0.00  0.00    +0.000 A 
ENDROOT
BRANCH   1   7
ATOM      7  C   UNL     1      11.674   9.654  -5.860  0.00  0.00    +0.000 C 
BRANCH   7  10
ATOM      8  O   UNL     1      10.636   7.689  -7.597  0.00  0.00    +0.000 OA
ATOM      9  C   UNL     1      10.506   8.875  -7.891  0.00  0.00    +0.000 C 
ATOM     10  N   UNL     1      11.020   9.884  -7.123  0.00  0.00    +0.000 N 
ATOM     11  H   UNL     1      10.733  10.840  -7.304  0.00  0.00    +0.000 HD
BRANCH   9  12
ATOM     12  C   UNL     1       9.838   9.286  -9.135  0.00  0.00    +0.000 A 
ATOM     13  C   UNL     1       9.702   8.376 -10.175  0.00  0.00    +0.000 A 
ATOM     14  S   UNL     1       8.929   9.023 -11.552  0.00  0.00    +0.000 S 
ATOM     15  C   UNL     1       8.710  10.528 -10.790  0.00  0.00    +0.000 A 
ATOM     16  N   UNL     1       8.070  11.544 -11.427  0.00  0.00    +0.000 NA
ATOM     17  C   UNL     1       7.940  12.621 -10.719  0.00  0.00    +0.000 A 
ATOM     18  N   UNL     1       8.405  12.777  -9.442  0.00  0.00    +0.000 N 
ATOM     19  C   UNL     1       9.118  11.797  -8.785  0.00  0.00    +0.000 A 
ATOM     20  O   UNL     1       9.628  12.018  -7.690  0.00  0.00    +0.000 OA
ATOM     21  C   UNL     1       9.247  10.550  -9.514  0.00  0.00    +0.000 A 
ATOM     22  H   UNL     1       8.306  13.653  -8.961  0.00  0.00    +0.000 HD
ENDBRANCH   9  12
ENDBRANCH   7  10
ENDBRANCH   1   7
BRANCH   4  23
ATOM     23  C   UNL     1       7.900  10.237  -1.441  0.00  0.00    +0.000 C 
BRANCH  23  24
ATOM     24  N   UNL     1       7.715   9.090  -0.552  0.00  0.00    +0.000 NA
ATOM     25  H   UNL     1       8.591   8.780  -0.139  0.00  0.00    +0.000 HD
BRANCH  24  26
ATOM     26  CA  UNL     1       6.705   9.373   0.497  0.00  0.00    +0.000 C 
BRANCH  26  27
ATOM     27  C   UNL     1       6.494   8.119   1.355  0.00  0.00    +0.000 C 
ATOM     28  N   UNL     1       5.309   7.579   1.486  0.00  0.00    +0.000 NA
ATOM     29  C   UNL     1       5.498   6.486   2.477  0.00  0.00    +0.000 C 
ATOM     30  C   UNL     1       6.964   6.518   2.920  0.00  0.00    +0.000 C 
ATOM     31  N   UNL     1       7.522   7.548   2.074  0.00  0.00    +0.000 N 
ATOM     32  H   UNL     1       8.132   8.228   2.528  0.00  0.00    +0.000 HD
ENDBRANCH  26  27
BRANCH  26  33
ATOM     33  C   UNL     1       7.066  10.536   1.446  0.00  0.00    +0.000 C 
BRANCH  33  34
ATOM     34  O   UNL     1       8.332  10.328   2.084  0.00  0.00    +0.000 OA
ATOM     35  H   UNL     1       8.990  10.230   1.372  0.00  0.00    +0.000 HD
ENDBRANCH  33  34
ENDBRANCH  26  33
ENDBRANCH  24  26
ENDBRANCH  23  24
ENDBRANCH   4  23
TORSDOF 9
