REMARK  Name = 
REMARK  5 active torsions:
REMARK  status: ('A' for Active; 'I' for Inactive)
REMARK    1  A    between atoms: C_2  and  C_4
REMARK    2  A    between atoms: C_8  and  O_9
REMARK    3  A    between atoms: O_9  and  C_10
REMARK    4  A    between atoms: C_10  and  C_11
REMARK    5  A    between atoms: C_13  and  C_14
REMARK                            x       y       z     vdW  Elec       q    Type
REMARK                         _______ _______ _______ _____ _____    ______ ____
ROOT
ATOM      1  C   UNL     1       2.160  -3.985  -3.405  0.00  0.00    +0.000 C 
ENDROOT
BRANCH   1   2
ATOM      2  C   UNL     1       2.088  -5.133  -4.382  0.00  0.00    +0.000 A 
ATOM      3  C   UNL     1       2.312  -6.427  -3.946  0.00  0.00    +0.000 A 
ATOM      4  C   UNL     1       2.263  -7.435  -4.894  0.00  0.00    +0.000 A 
ATOM      5  N   UNL     1       1.987  -7.170  -6.189  0.00  0.00    +0.000 NA
ATOM      6  C   UNL     1       1.756  -5.890  -6.509  0.00  0.00    +0.000 A 
ATOM      7  N   UNL     1       1.803  -4.847  -5.669  0.00  0.00    +0.000 NA
BRANCH   4   8
ATOM      8  C   UNL     1       2.556  -8.847  -4.568  0.00  0.00    +0.000 A 
ATOM      9  C   UNL     1       2.282  -9.396  -3.297  0.00  0.00    +0.000 A 
ATOM     10  C   UNL     1       2.609 -10.721  -2.987  0.00  0.00    +0.000 A 
ATOM     11  C   UNL     1       3.209 -11.530  -3.945  0.00  0.00    +0.000 A 
ATOM     12  C   UNL     1       3.467 -11.011  -5.206  0.00  0.00    +0.000 A 
ATOM     13  F   UNL     1       4.045 -11.789  -6.132  0.00  0.00    +0.000 F 
ATOM     14  C   UNL     1       3.145  -9.694  -5.523  0.00  0.00    +0.000 A 
ENDBRANCH   4   8
ENDBRANCH   1   2
BRANCH   1  15
ATOM     15  O   UNL     1       0.875  -3.800  -2.813  0.00  0.00    +0.000 OA
BRANCH  15  20
ATOM     16  C   UNL     1       1.487  -0.973  -0.497  0.00  0.00    +0.000 A 
ATOM     17  C   UNL     1       0.193  -0.886  -0.003  0.00  0.00    +0.000 A 
ATOM     18  N   UNL     1      -0.824  -1.672  -0.428  0.00  0.00    +0.000 NA
ATOM     19  C   UNL     1      -0.517  -2.599  -1.368  0.00  0.00    +0.000 A 
ATOM     20  C   UNL     1       0.754  -2.787  -1.905  0.00  0.00    +0.000 A 
ATOM     21  C   UNL     1       1.773  -1.949  -1.459  0.00  0.00    +0.000 A 
BRANCH  16  23
ATOM     22  N   UNL     1       3.549   0.273  -0.797  0.00  0.00    +0.000 N 
ATOM     23  C   UNL     1       2.515  -0.058   0.036  0.00  0.00    +0.000 C 
ATOM     24  O   UNL     1       2.433   0.409   1.162  0.00  0.00    +0.000 OA
ATOM     25  H   UNL     1       4.178   0.992  -0.455  0.00  0.00    +0.000 HD
ATOM     26  H   UNL     1       3.501   0.145  -1.798  0.00  0.00    +0.000 HD
ENDBRANCH  16  23
ENDBRANCH  15  20
ENDBRANCH   1  15
TORSDOF 5
