REMARK  Name = 
REMARK  5 active torsions:
REMARK  status: ('A' for Active; 'I' for Inactive)
REMARK    1  A    between atoms: C_2  and  C_3
REMARK    2  A    between atoms: C_7  and  N_8
REMARK    3  A    between atoms: N_8  and  C_9
REMARK    4  A    between atoms: C_9  and  C_10
REMARK    5  A    between atoms: C_14  and  C_15
REMARK                            x       y       z     vdW  Elec       q    Type
REMARK                         _______ _______ _______ _____ _____    ______ ____
ROOT
ATOM      1  C   UNL     1      -2.566   4.885   0.205  0.00  0.00    +0.000 A 
ATOM      2  C   UNL     1      -3.930   4.652   0.410  0.00  0.00    +0.000 A 
ATOM      3  C   UNL     1      -4.809   5.723   0.566  0.00  0.00    +0.000 A 
ATOM      4  C   UNL     1      -4.333   7.036   0.527  0.00  0.00    +0.000 A 
ATOM      5  C   UNL     1      -2.968   7.312   0.341  0.00  0.00    +0.000 A 
ATOM      6  C   UNL     1      -2.107   6.213   0.150  0.00  0.00    +0.000 A 
ENDROOT
BRANCH   5   7
ATOM      7  C   UNL     1      -2.441   8.694   0.401  0.00  0.00    +0.000 A 
ATOM      8  C   UNL     1      -2.981   9.648   1.272  0.00  0.00    +0.000 A 
ATOM      9  C   UNL     1      -2.415  10.912   1.327  0.00  0.00    +0.000 A 
ATOM     10  N   UNL     1      -1.354  11.295   0.588  0.00  0.00    +0.000 NA
ATOM     11  C   UNL     1      -0.833  10.383  -0.244  0.00  0.00    +0.000 A 
ATOM     12  N   UNL     1       0.314  10.751  -0.943  0.00  0.00    +0.000 N 
ATOM     13  C   UNL     1      -1.339   9.096  -0.367  0.00  0.00    +0.000 A 
ATOM     14  H   UNL     1       0.467  11.741  -0.768  0.00  0.00    +0.000 HD
ATOM     15  H   UNL     1       0.250  10.536  -1.930  0.00  0.00    +0.000 HD
ENDBRANCH   5   7
BRANCH   1  16
ATOM     16  C   UNL     1      -1.585   3.739   0.092  0.00  0.00    +0.000 C 
BRANCH  16  17
ATOM     17  N   UNL     1      -1.542   3.226  -1.268  0.00  0.00    +0.000 N 
ATOM     18  H   UNL     1      -1.702   3.929  -1.985  0.00  0.00    +0.000 HD
BRANCH  17  23
ATOM     19  C   UNL     1       0.895   0.401  -1.163  0.00  0.00    +0.000 A 
ATOM     20  C   UNL     1       0.899   0.087  -2.513  0.00  0.00    +0.000 A 
ATOM     21  N   UNL     1       0.184   0.770  -3.433  0.00  0.00    +0.000 NA
ATOM     22  C   UNL     1      -0.570   1.801  -2.969  0.00  0.00    +0.000 A 
ATOM     23  C   UNL     1      -0.646   2.224  -1.636  0.00  0.00    +0.000 A 
ATOM     24  C   UNL     1       0.107   1.471  -0.728  0.00  0.00    +0.000 A 
BRANCH  19  26
ATOM     25  N   UNL     1       2.306  -0.990   0.510  0.00  0.00    +0.000 NA
ATOM     26  C   UNL     1       1.674  -0.369  -0.241  0.00  0.00    +0.000 C 
ENDBRANCH  19  26
ENDBRANCH  17  23
ENDBRANCH  16  17
ENDBRANCH   1  16
TORSDOF 5
