REMARK  Name = 
REMARK  7 active torsions:
REMARK  status: ('A' for Active; 'I' for Inactive)
REMARK    1  A    between atoms: C_2  and  C_3
REMARK    2  A    between atoms: C_6  and  N_7
REMARK    3  A    between atoms: N_7  and  C_8
REMARK    4  A    between atoms: C_8  and  C_9
REMARK    5  A    between atoms: C_14  and  C_15
REMARK    6  A    between atoms: C_19  and  O_20
REMARK    7  A    between atoms: O_20  and  C_21
REMARK                            x       y       z     vdW  Elec       q    Type
REMARK                         _______ _______ _______ _____ _____    ______ ____
ROOT
ATOM      1  C   UNL     1       9.786   0.200  -0.590  0.00  0.00    +0.000 A 
ATOM      2  C   UNL     1       9.865   1.232  -1.536  0.00  0.00    +0.000 A 
ATOM      3  C   UNL     1      10.552   2.400  -1.245  0.00  0.00    +0.000 A 
ATOM      4  F   UNL     1      10.523   3.414  -2.120  0.00  0.00    +0.000 F 
ATOM      5  C   UNL     1      11.207   2.563  -0.030  0.00  0.00    +0.000 A 
ATOM      6  C   UNL     1      11.222   1.527   0.915  0.00  0.00    +0.000 A 
ATOM      7  C   UNL     1      10.528   0.345   0.595  0.00  0.00    +0.000 A 
ENDROOT
BRANCH   6   8
ATOM      8  C   UNL     1      11.841   1.690   2.247  0.00  0.00    +0.000 A 
ATOM      9  C   UNL     1      12.503   0.625   2.882  0.00  0.00    +0.000 A 
ATOM     10  C   UNL     1      12.998   0.753   4.181  0.00  0.00    +0.000 A 
ATOM     11  C   UNL     1      12.866   1.962   4.858  0.00  0.00    +0.000 A 
ATOM     12  C   UNL     1      12.255   3.050   4.237  0.00  0.00    +0.000 A 
ATOM     13  C   UNL     1      11.724   2.903   2.953  0.00  0.00    +0.000 A 
BRANCH  12  14
ATOM     14  O   UNL     1      12.189   4.193   4.986  0.00  0.00    +0.000 OA
BRANCH  14  15
ATOM     15  C   UNL     1      12.141   5.399   4.240  0.00  0.00    +0.000 C 
ATOM     16  F   UNL     1      10.862   5.626   3.850  0.00  0.00    +0.000 F 
ATOM     17  F   UNL     1      12.476   6.410   5.080  0.00  0.00    +0.000 F 
ENDBRANCH  14  15
ENDBRANCH  12  14
ENDBRANCH   6   8
BRANCH   1  18
ATOM     18  C   UNL     1       8.780  -0.931  -0.759  0.00  0.00    +0.000 C 
ATOM     19  C   UNL     1       7.855  -1.279   0.393  0.00  0.00    +0.000 C 
ATOM     20  C   UNL     1       7.328  -0.445  -0.726  0.00  0.00    +0.000 C 
BRANCH  18  21
ATOM     21  N   UNL     1       9.089  -1.892  -1.808  0.00  0.00    +0.000 N 
ATOM     22  H   UNL     1       8.956  -1.638  -2.781  0.00  0.00    +0.000 HD
BRANCH  21  26
ATOM     23  C   UNL     1      11.353  -5.311  -1.788  0.00  0.00    +0.000 A 
ATOM     24  C   UNL     1      10.880  -4.730  -2.952  0.00  0.00    +0.000 A 
ATOM     25  N   UNL     1      10.150  -3.584  -2.945  0.00  0.00    +0.000 NA
ATOM     26  C   UNL     1       9.887  -3.022  -1.743  0.00  0.00    +0.000 A 
ATOM     27  C   UNL     1      10.376  -3.618  -0.580  0.00  0.00    +0.000 A 
ATOM     28  N   UNL     1      11.116  -4.764  -0.570  0.00  0.00    +0.000 NA
BRANCH  23  30
ATOM     29  N   UNL     1      12.715  -7.515  -1.963  0.00  0.00    +0.000 NA
ATOM     30  C   UNL     1      12.108  -6.528  -1.849  0.00  0.00    +0.000 C 
ENDBRANCH  23  30
ENDBRANCH  21  26
ENDBRANCH  18  21
ENDBRANCH   1  18
TORSDOF 7
