REMARK  Name = 
REMARK  6 active torsions:
REMARK  status: ('A' for Active; 'I' for Inactive)
REMARK    1  A    between atoms: C_2  and  C_3
REMARK    2  A    between atoms: C_7  and  C_8
REMARK    3  A    between atoms: C_8  and  C_9
REMARK    4  A    between atoms: C_12  and  C_13
REMARK    5  A    between atoms: C_13  and  N_14
REMARK    6  A    between atoms: C_15  and  C_17
REMARK                            x       y       z     vdW  Elec       q    Type
REMARK                         _______ _______ _______ _____ _____    ______ ____
ROOT
ATOM      1  C   UNL     1       8.066   1.533   0.223  0.00  0.00    +0.000 C 
ENDROOT
BRANCH   1   5
ATOM      2  C   UNL     1       3.866   2.295   0.037  0.00  0.00    +0.000 A 
ATOM      3  C   UNL     1       4.476   1.665  -1.045  0.00  0.00    +0.000 A 
ATOM      4  C   UNL     1       5.848   1.411  -0.997  0.00  0.00    +0.000 A 
ATOM      5  C   UNL     1       6.597   1.822   0.107  0.00  0.00    +0.000 A 
ATOM      6  C   UNL     1       5.910   2.475   1.124  0.00  0.00    +0.000 A 
ATOM      7  N   UNL     1       4.575   2.716   1.115  0.00  0.00    +0.000 NA
BRANCH   2   8
ATOM      8  C   UNL     1       2.361   2.473   0.080  0.00  0.00    +0.000 C 
BRANCH   8  13
ATOM      9  C   UNL     1       1.714   6.170  -0.628  0.00  0.00    +0.000 A 
ATOM     10  C   UNL     1       0.841   6.102  -1.718  0.00  0.00    +0.000 A 
ATOM     11  C   UNL     1       0.450   4.860  -2.217  0.00  0.00    +0.000 A 
ATOM     12  C   UNL     1       0.939   3.685  -1.639  0.00  0.00    +0.000 A 
ATOM     13  C   UNL     1       1.837   3.740  -0.563  0.00  0.00    +0.000 A 
ATOM     14  C   UNL     1       2.205   4.993  -0.052  0.00  0.00    +0.000 A 
BRANCH   9  16
ATOM     15  N   UNL     1       2.398   8.481   0.335  0.00  0.00    +0.000 NA
ATOM     16  C   UNL     1       2.099   7.445  -0.094  0.00  0.00    +0.000 C 
ENDBRANCH   9  16
ENDBRANCH   8  13
ENDBRANCH   2   8
ENDBRANCH   1   5
BRANCH   1  17
ATOM     17  N   UNL     1       8.304   0.266   0.881  0.00  0.00    +0.000 N 
ATOM     18  C   UNL     1       9.569  -0.163   1.192  0.00  0.00    +0.000 C 
ATOM     19  O   UNL     1      10.567   0.510   0.945  0.00  0.00    +0.000 OA
ATOM     20  H   UNL     1       7.543  -0.405   0.873  0.00  0.00    +0.000 HD
BRANCH  18  21
ATOM     21  C   UNL     1       9.658  -1.441   1.910  0.00  0.00    +0.000 A 
ATOM     22  C   UNL     1      10.763  -1.716   2.707  0.00  0.00    +0.000 A 
ATOM     23  S   UNL     1      10.658  -3.208   3.530  0.00  0.00    +0.000 S 
ATOM     24  C   UNL     1       9.163  -3.568   2.802  0.00  0.00    +0.000 A 
ATOM     25  N   UNL     1       8.516  -4.735   3.066  0.00  0.00    +0.000 NA
ATOM     26  C   UNL     1       7.413  -4.894   2.414  0.00  0.00    +0.000 A 
ATOM     27  N   UNL     1       6.895  -3.990   1.523  0.00  0.00    +0.000 N 
ATOM     28  C   UNL     1       7.491  -2.780   1.259  0.00  0.00    +0.000 A 
ATOM     29  O   UNL     1       6.968  -1.966   0.503  0.00  0.00    +0.000 OA
ATOM     30  C   UNL     1       8.743  -2.559   1.954  0.00  0.00    +0.000 A 
ATOM     31  H   UNL     1       6.021  -4.169   1.053  0.00  0.00    +0.000 HD
ENDBRANCH  18  21
ENDBRANCH   1  17
TORSDOF 6
