REMARK  Name = 
REMARK  9 active torsions:
REMARK  status: ('A' for Active; 'I' for Inactive)
REMARK    1  A    between atoms: C_1  and  O_2
REMARK    2  A    between atoms: O_2  and  C_3
REMARK    3  A    between atoms: C_10  and  C_11
REMARK    4  A    between atoms: N_13  and  C_14
REMARK    5  A    between atoms: C_14  and  C_15
REMARK    6  A    between atoms: C_18  and  C_19
REMARK    7  A    between atoms: C_19  and  N_20
REMARK    8  A    between atoms: N_20  and  C_21
REMARK    9  A    between atoms: C_21  and  C_22
REMARK                            x       y       z     vdW  Elec       q    Type
REMARK                         _______ _______ _______ _____ _____    ______ ____
ROOT
ATOM      1  C   UNL     1       2.636   3.338  -0.449  0.00  0.00    +0.000 C 
ENDROOT
BRANCH   1   2
ATOM      2  C   UNL     1       1.414   3.047  -1.290  0.00  0.00    +0.000 A 
ATOM      3  C   UNL     1       1.237   1.789  -1.882  0.00  0.00    +0.000 A 
ATOM      4  C   UNL     1       0.055   1.482  -2.571  0.00  0.00    +0.000 A 
ATOM      5  C   UNL     1      -0.973   2.427  -2.699  0.00  0.00    +0.000 A 
ATOM      6  C   UNL     1      -0.759   3.710  -2.176  0.00  0.00    +0.000 A 
ATOM      7  C   UNL     1       0.421   4.017  -1.483  0.00  0.00    +0.000 A 
BRANCH   5   8
ATOM      8  C   UNL     1      -2.275   2.065  -3.387  0.00  0.00    +0.000 C 
BRANCH   8   9
ATOM      9  N   UNL     1      -2.936   0.937  -2.724  0.00  0.00    +0.000 NA
ATOM     10  H   UNL     1      -3.127   1.190  -1.755  0.00  0.00    +0.000 HD
BRANCH   9  11
ATOM     11  C   UNL     1      -4.194   0.577  -3.380  0.00  0.00    +0.000 C 
BRANCH  11  12
ATOM     12  C   UNL     1      -4.867  -0.578  -2.673  0.00  0.00    +0.000 A 
ATOM     13  C   UNL     1      -6.152  -0.454  -2.134  0.00  0.00    +0.000 A 
ATOM     14  C   UNL     1      -6.723  -1.552  -1.506  0.00  0.00    +0.000 A 
ATOM     15  N   UNL     1      -6.115  -2.750  -1.382  0.00  0.00    +0.000 NA
ATOM     16  C   UNL     1      -4.877  -2.854  -1.909  0.00  0.00    +0.000 A 
ATOM     17  C   UNL     1      -4.224  -1.816  -2.557  0.00  0.00    +0.000 A 
ENDBRANCH  11  12
ENDBRANCH   9  11
ENDBRANCH   8   9
ENDBRANCH   5   8
ENDBRANCH   1   2
BRANCH   1  20
ATOM     18  C   UNL     1       4.916   4.251  -0.680  0.00  0.00    +0.000 C 
ATOM     19  O   UNL     1       5.155   4.070   0.512  0.00  0.00    +0.000 OA
ATOM     20  N   UNL     1       3.704   3.916  -1.224  0.00  0.00    +0.000 N 
ATOM     21  H   UNL     1       3.529   4.073  -2.205  0.00  0.00    +0.000 HD
BRANCH  18  29
ATOM     22  C   UNL     1       4.954   4.921  -4.050  0.00  0.00    +0.000 A 
ATOM     23  N   UNL     1       5.194   5.342  -5.306  0.00  0.00    +0.000 NA
ATOM     24  C   UNL     1       6.359   5.948  -5.546  0.00  0.00    +0.000 A 
ATOM     25  N   UNL     1       7.339   6.181  -4.676  0.00  0.00    +0.000 NA
ATOM     26  C   UNL     1       7.051   5.758  -3.434  0.00  0.00    +0.000 A 
ATOM     27  S   UNL     1       8.189   5.958  -2.192  0.00  0.00    +0.000 S 
ATOM     28  C   UNL     1       7.144   5.248  -1.053  0.00  0.00    +0.000 A 
ATOM     29  C   UNL     1       5.919   4.854  -1.579  0.00  0.00    +0.000 A 
ATOM     30  C   UNL     1       5.880   5.134  -3.012  0.00  0.00    +0.000 A 
BRANCH  22  32
ATOM     31  C   UNL     1       3.203   3.644  -4.935  0.00  0.00    +0.000 C 
ATOM     32  O   UNL     1       3.753   4.297  -3.795  0.00  0.00    +0.000 OA
ENDBRANCH  22  32
ENDBRANCH  18  29
ENDBRANCH   1  20
TORSDOF 8
