REMARK  Name = 
REMARK  8 active torsions:
REMARK  status: ('A' for Active; 'I' for Inactive)
REMARK    1  A    between atoms: C_1  and  C_2
REMARK    2  A    between atoms: C_2  and  N_3
REMARK    3  A    between atoms: C_2  and  C_25
REMARK    4  A    between atoms: N_3  and  C_4
REMARK    5  A    between atoms: C_4  and  C_5
REMARK    6  A    between atoms: C_8  and  C_9
REMARK    7  A    between atoms: C_9  and  N_10
REMARK    8  A    between atoms: C_11  and  C_13
REMARK                            x       y       z     vdW  Elec       q    Type
REMARK                         _______ _______ _______ _____ _____    ______ ____
ROOT
ATOM      1  C   UNL     1       3.045  -3.735  -0.644  0.00  0.00    +0.000 A 
ATOM      2  C   UNL     1       3.839  -3.654  -1.787  0.00  0.00    +0.000 A 
ATOM      3  C   UNL     1       4.179  -4.825  -2.460  0.00  0.00    +0.000 A 
ATOM      4  C   UNL     1       3.741  -6.057  -1.973  0.00  0.00    +0.000 A 
ATOM      5  C   UNL     1       2.955  -6.044  -0.826  0.00  0.00    +0.000 A 
ATOM      6  N   UNL     1       2.598  -4.921  -0.155  0.00  0.00    +0.000 NA
ENDROOT
BRANCH   1   7
ATOM      7  C   UNL     1       2.629  -2.468   0.088  0.00  0.00    +0.000 C 
BRANCH   7   8
ATOM      8  N   UNL     1       3.175  -2.428   1.447  0.00  0.00    +0.000 NA
ATOM      9  H   UNL     1       2.835  -3.272   1.917  0.00  0.00    +0.000 HD
BRANCH   8  11
ATOM     10  C   UNL     1       3.221   0.070   1.633  0.00  0.00    +0.000 C 
ATOM     11  C   UNL     1       2.735  -1.256   2.233  0.00  0.00    +0.000 C 
BRANCH  11  12
ATOM     12  C   UNL     1       3.215  -1.340   3.687  0.00  0.00    +0.000 A 
ATOM     13  C   UNL     1       4.447  -1.919   4.004  0.00  0.00    +0.000 A 
ATOM     14  C   UNL     1       4.831  -2.017   5.338  0.00  0.00    +0.000 A 
ATOM     15  C   UNL     1       3.994  -1.513   6.324  0.00  0.00    +0.000 A 
ATOM     16  C   UNL     1       2.804  -0.923   5.930  0.00  0.00    +0.000 A 
ATOM     17  N   UNL     1       2.396  -0.827   4.643  0.00  0.00    +0.000 NA
ENDBRANCH  11  12
ENDBRANCH   8  11
ENDBRANCH   7   8
ENDBRANCH   1   7
BRANCH   4  18
ATOM     18  C   UNL     1       4.049  -7.336  -2.695  0.00  0.00    +0.000 C 
BRANCH  18  19
ATOM     19  N   UNL     1       3.024  -7.635  -3.665  0.00  0.00    +0.000 N 
ATOM     20  C   UNL     1       3.007  -8.824  -4.347  0.00  0.00    +0.000 C 
ATOM     21  O   UNL     1       3.836  -9.705  -4.133  0.00  0.00    +0.000 OA
ATOM     22  H   UNL     1       2.485  -6.853  -4.022  0.00  0.00    +0.000 HD
BRANCH  20  23
ATOM     23  C   UNL     1       1.909  -9.017  -5.304  0.00  0.00    +0.000 A 
ATOM     24  C   UNL     1       1.540 -10.304  -5.673  0.00  0.00    +0.000 A 
ATOM     25  S   UNL     1       0.213 -10.356  -6.742  0.00  0.00    +0.000 S 
ATOM     26  C   UNL     1       0.115  -8.658  -6.791  0.00  0.00    +0.000 A 
ATOM     27  N   UNL     1      -0.820  -8.032  -7.556  0.00  0.00    +0.000 NA
ATOM     28  C   UNL     1      -0.764  -6.743  -7.519  0.00  0.00    +0.000 A 
ATOM     29  N   UNL     1       0.139  -6.022  -6.783  0.00  0.00    +0.000 N 
ATOM     30  C   UNL     1       1.087  -6.609  -5.980  0.00  0.00    +0.000 A 
ATOM     31  O   UNL     1       1.859  -5.934  -5.309  0.00  0.00    +0.000 OA
ATOM     32  C   UNL     1       1.073  -8.061  -5.991  0.00  0.00    +0.000 A 
ATOM     33  H   UNL     1       0.124  -5.012  -6.793  0.00  0.00    +0.000 HD
ENDBRANCH  20  23
ENDBRANCH  18  19
ENDBRANCH   4  18
TORSDOF 7
