REMARK  Name = 
REMARK  7 active torsions:
REMARK  status: ('A' for Active; 'I' for Inactive)
REMARK    1  A    between atoms: C_1  and  C_2
REMARK    2  A    between atoms: C_2  and  C_3
REMARK    3  A    between atoms: C_7  and  C_8
REMARK    4  A    between atoms: C_8  and  C_9
REMARK    5  A    between atoms: C_9  and  N_10
REMARK    6  A    between atoms: N_10  and  C_11
REMARK    7  A    between atoms: C_14  and  C_15
REMARK                            x       y       z     vdW  Elec       q    Type
REMARK                         _______ _______ _______ _____ _____    ______ ____
ROOT
ATOM      1  C   UNL     1       3.133   3.578  -4.155  0.00  0.00    +0.000 C 
ENDROOT
BRANCH   1   2
ATOM      2  N   UNL     1       3.582   4.874  -4.680  0.00  0.00    +0.000 N 
ATOM      3  H   UNL     1       4.217   4.774  -5.471  0.00  0.00    +0.000 HD
BRANCH   2   4
ATOM      4  C   UNL     1       2.576   5.825  -4.938  0.00  0.00    +0.000 A 
ATOM      5  C   UNL     1       1.397   5.908  -4.190  0.00  0.00    +0.000 A 
ATOM      6  C   UNL     1       0.454   6.903  -4.444  0.00  0.00    +0.000 A 
ATOM      7  C   UNL     1       0.728   7.828  -5.436  0.00  0.00    +0.000 A 
ATOM      8  N   UNL     1       1.876   7.833  -6.167  0.00  0.00    +0.000 NA
ATOM      9  C   UNL     1       2.766   6.845  -5.879  0.00  0.00    +0.000 A 
BRANCH   7  10
ATOM     10  C   UNL     1      -0.275   8.902  -5.723  0.00  0.00    +0.000 C 
ATOM     11  N   UNL     1       0.070   9.783  -6.710  0.00  0.00    +0.000 N 
ATOM     12  O   UNL     1      -1.338   8.994  -5.122  0.00  0.00    +0.000 OA
ATOM     13  H   UNL     1       0.969   9.684  -7.175  0.00  0.00    +0.000 HD
ATOM     14  H   UNL     1      -0.553  10.542  -6.940  0.00  0.00    +0.000 HD
ENDBRANCH   7  10
ENDBRANCH   2   4
ENDBRANCH   1   2
BRANCH   1  15
ATOM     15  C   UNL     1       4.301   2.613  -3.914  0.00  0.00    +0.000 C 
BRANCH  15  20
ATOM     16  C   UNL     1       2.869   0.044  -1.455  0.00  0.00    +0.000 A 
ATOM     17  C   UNL     1       2.550  -0.993  -2.354  0.00  0.00    +0.000 A 
ATOM     18  C   UNL     1       2.829  -0.889  -3.718  0.00  0.00    +0.000 A 
ATOM     19  C   UNL     1       3.428   0.260  -4.223  0.00  0.00    +0.000 A 
ATOM     20  C   UNL     1       3.772   1.305  -3.361  0.00  0.00    +0.000 A 
ATOM     21  C   UNL     1       3.510   1.177  -1.983  0.00  0.00    +0.000 A 
BRANCH  16  23
ATOM     22  C   UNL     1       0.889  -0.113   0.059  0.00  0.00    +0.000 C 
ATOM     23  C   UNL     1       2.428  -0.064   0.017  0.00  0.00    +0.000 C 
ATOM     24  C   UNL     1       3.060  -1.282   0.702  0.00  0.00    +0.000 C 
ATOM     25  C   UNL     1       4.299  -0.737   1.400  0.00  0.00    +0.000 C 
ATOM     26  O   UNL     1       4.240   0.692   1.355  0.00  0.00    +0.000 OA
ATOM     27  C   UNL     1       2.912   1.048   0.960  0.00  0.00    +0.000 C 
ENDBRANCH  16  23
ENDBRANCH  15  20
ENDBRANCH   1  15
TORSDOF 6
