REMARK  Name = 
REMARK  5 active torsions:
REMARK  status: ('A' for Active; 'I' for Inactive)
REMARK    1  A    between atoms: C_2  and  C_4
REMARK    2  A    between atoms: C_7  and  N_8
REMARK    3  A    between atoms: N_8  and  C_9
REMARK    4  A    between atoms: C_9  and  C_10
REMARK    5  A    between atoms: C_15  and  C_16
REMARK                            x       y       z     vdW  Elec       q    Type
REMARK                         _______ _______ _______ _____ _____    ______ ____
ROOT
ATOM      1  C   UNL     1       5.095   2.476   5.396  0.00  0.00    +0.000 C 
ENDROOT
BRANCH   1   2
ATOM      2  C   UNL     1       6.000   3.257   6.314  0.00  0.00    +0.000 A 
ATOM      3  C   UNL     1       5.987   4.655   6.299  0.00  0.00    +0.000 A 
ATOM      4  C   UNL     1       6.719   5.369   7.238  0.00  0.00    +0.000 A 
ATOM      5  C   UNL     1       7.458   4.689   8.204  0.00  0.00    +0.000 A 
ATOM      6  F   UNL     1       8.138   5.435   9.088  0.00  0.00    +0.000 F 
ATOM      7  C   UNL     1       7.496   3.284   8.269  0.00  0.00    +0.000 A 
ATOM      8  C   UNL     1       6.773   2.587   7.282  0.00  0.00    +0.000 A 
BRANCH   7   9
ATOM      9  C   UNL     1       8.221   2.563   9.340  0.00  0.00    +0.000 A 
ATOM     10  C   UNL     1       8.828   1.311   9.111  0.00  0.00    +0.000 A 
ATOM     11  C   UNL     1       9.532   0.642  10.118  0.00  0.00    +0.000 A 
ATOM     12  C   UNL     1       9.651   1.214  11.380  0.00  0.00    +0.000 A 
ATOM     13  C   UNL     1       9.039   2.432  11.632  0.00  0.00    +0.000 A 
ATOM     14  F   UNL     1       9.141   2.983  12.848  0.00  0.00    +0.000 F 
ATOM     15  C   UNL     1       8.322   3.093  10.640  0.00  0.00    +0.000 A 
ENDBRANCH   7   9
ENDBRANCH   1   2
BRANCH   1  16
ATOM     16  N   UNL     1       5.842   1.600   4.507  0.00  0.00    +0.000 N 
ATOM     17  H   UNL     1       6.681   2.008   4.110  0.00  0.00    +0.000 HD
BRANCH  16  21
ATOM     18  C   UNL     1       3.776  -1.038   1.929  0.00  0.00    +0.000 A 
ATOM     19  C   UNL     1       3.055  -0.138   2.714  0.00  0.00    +0.000 A 
ATOM     20  C   UNL     1       3.730   0.754   3.551  0.00  0.00    +0.000 A 
ATOM     21  C   UNL     1       5.131   0.800   3.605  0.00  0.00    +0.000 A 
ATOM     22  C   UNL     1       5.839  -0.108   2.805  0.00  0.00    +0.000 A 
ATOM     23  C   UNL     1       5.172  -1.022   1.979  0.00  0.00    +0.000 A 
BRANCH  18  25
ATOM     24  N   UNL     1       1.839  -1.735   0.625  0.00  0.00    +0.000 N 
ATOM     25  C   UNL     1       3.091  -2.051   1.088  0.00  0.00    +0.000 C 
ATOM     26  O   UNL     1       3.617  -3.116   0.804  0.00  0.00    +0.000 OA
ATOM     27  H   UNL     1       1.414  -2.403  -0.005  0.00  0.00    +0.000 HD
ATOM     28  H   UNL     1       1.479  -0.793   0.628  0.00  0.00    +0.000 HD
ENDBRANCH  18  25
ENDBRANCH  16  21
ENDBRANCH   1  16
TORSDOF 5
