REMARK  Name = 
REMARK  7 active torsions:
REMARK  status: ('A' for Active; 'I' for Inactive)
REMARK    1  A    between atoms: C_1  and  O_2
REMARK    2  A    between atoms: O_2  and  C_3
REMARK    3  A    between atoms: C_5  and  C_6
REMARK    4  A    between atoms: C_11  and  O_12
REMARK    5  A    between atoms: O_12  and  C_13
REMARK    6  A    between atoms: C_13  and  C_14
REMARK    7  A    between atoms: C_18  and  C_19
REMARK                            x       y       z     vdW  Elec       q    Type
REMARK                         _______ _______ _______ _____ _____    ______ ____
ROOT
ATOM      1  O   UNL     1       4.556  -1.337  -1.111  0.00  0.00    +0.000 OA
ENDROOT
BRANCH   1   7
ATOM      2  C   UNL     1       3.132   0.693  -0.790  0.00  0.00    +0.000 A 
ATOM      3  C   UNL     1       2.952   2.033  -1.163  0.00  0.00    +0.000 A 
ATOM      4  C   UNL     1       3.819   2.672  -2.061  0.00  0.00    +0.000 A 
ATOM      5  C   UNL     1       4.896   1.958  -2.585  0.00  0.00    +0.000 A 
ATOM      6  C   UNL     1       5.084   0.620  -2.219  0.00  0.00    +0.000 A 
ATOM      7  C   UNL     1       4.213  -0.026  -1.329  0.00  0.00    +0.000 A 
BRANCH   4   8
ATOM      8  C   UNL     1       3.523   4.097  -2.390  0.00  0.00    +0.000 C 
ATOM      9  N   UNL     1       4.348   4.762  -3.248  0.00  0.00    +0.000 N 
ATOM     10  O   UNL     1       2.553   4.673  -1.908  0.00  0.00    +0.000 OA
ATOM     11  H   UNL     1       5.163   4.375  -3.698  0.00  0.00    +0.000 HD
ATOM     12  H   UNL     1       4.108   5.726  -3.446  0.00  0.00    +0.000 HD
ENDBRANCH   4   8
BRANCH   2  14
ATOM     13  C   UNL     1       1.002   0.601   0.278  0.00  0.00    +0.000 C 
ATOM     14  O   UNL     1       2.319   0.084   0.128  0.00  0.00    +0.000 OA
ENDBRANCH   2  14
ENDBRANCH   1   7
BRANCH   1  15
ATOM     15  C   UNL     1       3.713  -2.117  -0.263  0.00  0.00    +0.000 C 
BRANCH  15  16
ATOM     16  C   UNL     1       4.220  -3.531  -0.155  0.00  0.00    +0.000 A 
ATOM     17  C   UNL     1       3.330  -4.572   0.077  0.00  0.00    +0.000 A 
ATOM     18  N   UNL     1       3.702  -5.854   0.265  0.00  0.00    +0.000 NA
ATOM     19  C   UNL     1       5.033  -6.108   0.237  0.00  0.00    +0.000 A 
ATOM     20  C   UNL     1       6.034  -5.153   0.037  0.00  0.00    +0.000 A 
ATOM     21  C   UNL     1       5.585  -3.839  -0.162  0.00  0.00    +0.000 A 
BRANCH  20  22
ATOM     22  C   UNL     1       7.472  -5.490   0.072  0.00  0.00    +0.000 A 
ATOM     23  C   UNL     1       8.410  -4.803  -0.724  0.00  0.00    +0.000 A 
ATOM     24  C   UNL     1       9.780  -5.086  -0.654  0.00  0.00    +0.000 A 
ATOM     25  C   UNL     1      10.239  -6.077   0.206  0.00  0.00    +0.000 A 
ATOM     26  C   UNL     1       9.327  -6.775   0.983  0.00  0.00    +0.000 A 
ATOM     27  F   UNL     1       9.764  -7.731   1.814  0.00  0.00    +0.000 F 
ATOM     28  C   UNL     1       7.965  -6.492   0.926  0.00  0.00    +0.000 A 
ENDBRANCH  20  22
ENDBRANCH  15  16
ENDBRANCH   1  15
TORSDOF 6
