REMARK  Name = 
REMARK  5 active torsions:
REMARK  status: ('A' for Active; 'I' for Inactive)
REMARK    1  A    between atoms: C_2  and  C_4
REMARK    2  A    between atoms: C_7  and  N_8
REMARK    3  A    between atoms: N_8  and  C_9
REMARK    4  A    between atoms: C_9  and  C_10
REMARK    5  A    between atoms: C_12  and  N_13
REMARK                            x       y       z     vdW  Elec       q    Type
REMARK                         _______ _______ _______ _____ _____    ______ ____
ROOT
ATOM      1  N   UNL     1       3.549   4.846  -4.468  0.00  0.00    +0.000 N 
ATOM      2  H   UNL     1       3.438   5.135  -3.501  0.00  0.00    +0.000 HD
ENDROOT
BRANCH   1   6
ATOM      3  C   UNL     1      -0.106   4.066  -6.422  0.00  0.00    +0.000 A 
ATOM      4  C   UNL     1       0.980   3.209  -6.616  0.00  0.00    +0.000 A 
ATOM      5  C   UNL     1       2.190   3.464  -5.977  0.00  0.00    +0.000 A 
ATOM      6  C   UNL     1       2.346   4.546  -5.105  0.00  0.00    +0.000 A 
ATOM      7  C   UNL     1       1.259   5.423  -4.951  0.00  0.00    +0.000 A 
ATOM      8  C   UNL     1       0.047   5.192  -5.611  0.00  0.00    +0.000 A 
BRANCH   3  10
ATOM      9  N   UNL     1      -1.705   2.516  -7.389  0.00  0.00    +0.000 N 
ATOM     10  C   UNL     1      -1.395   3.821  -7.112  0.00  0.00    +0.000 C 
ATOM     11  O   UNL     1      -2.160   4.728  -7.391  0.00  0.00    +0.000 OA
ATOM     12  H   UNL     1      -2.618   2.343  -7.786  0.00  0.00    +0.000 HD
ATOM     13  H   UNL     1      -1.225   1.738  -6.956  0.00  0.00    +0.000 HD
ENDBRANCH   3  10
ENDBRANCH   1   6
BRANCH   1  14
ATOM     14  C   UNL     1       4.767   4.071  -4.736  0.00  0.00    +0.000 C 
BRANCH  14  15
ATOM     15  C   UNL     1       5.492   4.563  -5.980  0.00  0.00    +0.000 A 
ATOM     16  C   UNL     1       5.518   5.926  -6.281  0.00  0.00    +0.000 A 
ATOM     17  C   UNL     1       6.130   6.392  -7.447  0.00  0.00    +0.000 A 
ATOM     18  C   UNL     1       6.730   5.426  -8.254  0.00  0.00    +0.000 A 
ATOM     19  C   UNL     1       6.704   4.093  -7.875  0.00  0.00    +0.000 A 
ATOM     20  N   UNL     1       6.102   3.636  -6.758  0.00  0.00    +0.000 NA
BRANCH  17  21
ATOM     21  N   UNL     1       6.128   7.733  -7.780  0.00  0.00    +0.000 N 
ATOM     22  C   UNL     1       6.108   8.182  -9.180  0.00  0.00    +0.000 C 
ATOM     23  C   UNL     1       4.851   9.008  -9.479  0.00  0.00    +0.000 C 
ATOM     24  S   UNL     1       4.727  10.499  -8.434  0.00  0.00    +0.000 S 
ATOM     25  C   UNL     1       4.907   9.674  -6.814  0.00  0.00    +0.000 C 
ATOM     26  C   UNL     1       6.153   8.786  -6.753  0.00  0.00    +0.000 C 
ENDBRANCH  17  21
ENDBRANCH  14  15
ENDBRANCH   1  14
TORSDOF 5
