REMARK  Name = 
REMARK  5 active torsions:
REMARK  status: ('A' for Active; 'I' for Inactive)
REMARK    1  A    between atoms: C_2  and  C_3
REMARK    2  A    between atoms: C_6  and  N_7
REMARK    3  A    between atoms: N_7  and  C_8
REMARK    4  A    between atoms: C_8  and  C_9
REMARK    5  A    between atoms: C_14  and  C_15
REMARK                            x       y       z     vdW  Elec       q    Type
REMARK                         _______ _______ _______ _____ _____    ______ ____
ROOT
ATOM      1  C   UNL     1       4.563  -1.101   0.118  0.00  0.00    +0.000 C 
ATOM      2  C   UNL     1       4.791  -2.222  -0.883  0.00  0.00    +0.000 C 
ATOM      3  C   UNL     1       4.372  -2.569   0.501  0.00  0.00    +0.000 C 
ENDROOT
BRANCH   1   4
ATOM      4  C   UNL     1       5.701  -0.475   0.916  0.00  0.00    +0.000 A 
ATOM      5  C   UNL     1       5.589  -0.284   2.305  0.00  0.00    +0.000 A 
ATOM      6  C   UNL     1       6.705   0.025   3.079  0.00  0.00    +0.000 A 
ATOM      7  C   UNL     1       7.945   0.184   2.467  0.00  0.00    +0.000 A 
ATOM      8  F   UNL     1       9.002   0.409   3.263  0.00  0.00    +0.000 F 
ATOM      9  C   UNL     1       8.099   0.097   1.075  0.00  0.00    +0.000 A 
ATOM     10  C   UNL     1       6.948  -0.217   0.326  0.00  0.00    +0.000 A 
BRANCH   9  11
ATOM     11  C   UNL     1       9.399   0.252   0.390  0.00  0.00    +0.000 A 
ATOM     12  C   UNL     1      10.591  -0.240   0.948  0.00  0.00    +0.000 A 
ATOM     13  C   UNL     1      11.810  -0.123   0.273  0.00  0.00    +0.000 A 
ATOM     14  C   UNL     1      11.859   0.473  -0.983  0.00  0.00    +0.000 A 
ATOM     15  C   UNL     1      10.694   0.962  -1.562  0.00  0.00    +0.000 A 
ATOM     16  C   UNL     1       9.481   0.861  -0.878  0.00  0.00    +0.000 A 
ENDBRANCH   9  11
ENDBRANCH   1   4
BRANCH   1  17
ATOM     17  N   UNL     1       3.412  -0.218  -0.106  0.00  0.00    +0.000 N 
ATOM     18  H   UNL     1       2.540  -0.431   0.365  0.00  0.00    +0.000 HD
BRANCH  17  22
ATOM     19  C   UNL     1       2.983   2.531  -3.308  0.00  0.00    +0.000 A 
ATOM     20  C   UNL     1       4.022   1.597  -3.339  0.00  0.00    +0.000 A 
ATOM     21  C   UNL     1       4.175   0.682  -2.289  0.00  0.00    +0.000 A 
ATOM     22  C   UNL     1       3.278   0.646  -1.209  0.00  0.00    +0.000 A 
ATOM     23  C   UNL     1       2.252   1.605  -1.195  0.00  0.00    +0.000 A 
ATOM     24  C   UNL     1       2.106   2.535  -2.227  0.00  0.00    +0.000 A 
BRANCH  19  26
ATOM     25  N   UNL     1       2.716   4.263  -5.225  0.00  0.00    +0.000 NA
ATOM     26  C   UNL     1       2.837   3.487  -4.368  0.00  0.00    +0.000 C 
ENDBRANCH  19  26
ENDBRANCH  17  22
ENDBRANCH   1  17
TORSDOF 5
