REMARK  Name = 
REMARK  7 active torsions:
REMARK  status: ('A' for Active; 'I' for Inactive)
REMARK    1  A    between atoms: C_2  and  C_3
REMARK    2  A    between atoms: C_8  and  C_9
REMARK    3  A    between atoms: N_11  and  C_12
REMARK    4  A    between atoms: C_12  and  C_13
REMARK    5  A    between atoms: C_16  and  C_17
REMARK    6  A    between atoms: C_17  and  N_18
REMARK    7  A    between atoms: C_19  and  C_21
REMARK                            x       y       z     vdW  Elec       q    Type
REMARK                         _______ _______ _______ _____ _____    ______ ____
ROOT
ATOM      1  C   UNL     1      -4.210   3.548  -0.328  0.00  0.00    +0.000 C 
ATOM      2  C   UNL     1      -4.904   4.648   0.489  0.00  0.00    +0.000 C 
ATOM      3  C   UNL     1      -6.407   4.401   0.606  0.00  0.00    +0.000 C 
ATOM      4  C   UNL     1      -6.717   3.049   1.267  0.00  0.00    +0.000 C 
ATOM      5  C   UNL     1      -6.014   1.918   0.496  0.00  0.00    +0.000 C 
ATOM      6  C   UNL     1      -4.516   2.169   0.291  0.00  0.00    +0.000 C 
ENDROOT
BRANCH   1   7
ATOM      7  C   UNL     1      -4.604   3.585  -1.818  0.00  0.00    +0.000 C 
BRANCH   7  10
ATOM      8  C   UNL     1      -3.071   5.091  -3.034  0.00  0.00    +0.000 C 
ATOM      9  O   UNL     1      -2.182   4.243  -3.052  0.00  0.00    +0.000 OA
ATOM     10  N   UNL     1      -4.298   4.858  -2.454  0.00  0.00    +0.000 N 
ATOM     11  H   UNL     1      -5.035   5.549  -2.452  0.00  0.00    +0.000 HD
BRANCH   8  17
ATOM     12  C   UNL     1      -3.357   7.641  -3.336  0.00  0.00    +0.000 A 
ATOM     13  C   UNL     1      -2.998   8.800  -4.053  0.00  0.00    +0.000 A 
ATOM     14  C   UNL     1      -2.117   8.733  -5.131  0.00  0.00    +0.000 A 
ATOM     15  C   UNL     1      -1.585   7.507  -5.510  0.00  0.00    +0.000 A 
ATOM     16  C   UNL     1      -1.933   6.352  -4.806  0.00  0.00    +0.000 A 
ATOM     17  C   UNL     1      -2.825   6.399  -3.716  0.00  0.00    +0.000 A 
BRANCH  12  19
ATOM     18  N   UNL     1      -5.028   7.970  -1.388  0.00  0.00    +0.000 NA
ATOM     19  C   UNL     1      -4.253   7.813  -2.239  0.00  0.00    +0.000 C 
ENDBRANCH  12  19
ENDBRANCH   8  17
ENDBRANCH   7  10
ENDBRANCH   1   7
BRANCH   4  20
ATOM     20  C   UNL     1      -6.332   3.033   2.758  0.00  0.00    +0.000 C 
BRANCH  20  21
ATOM     21  N   UNL     1      -7.071   4.018   3.523  0.00  0.00    +0.000 N 
ATOM     22  C   UNL     1      -8.248   3.710   4.150  0.00  0.00    +0.000 C 
ATOM     23  O   UNL     1      -8.729   2.577   4.119  0.00  0.00    +0.000 OA
ATOM     24  H   UNL     1      -6.800   4.993   3.430  0.00  0.00    +0.000 HD
BRANCH  22  25
ATOM     25  C   UNL     1      -8.889   4.777   4.924  0.00  0.00    +0.000 A 
ATOM     26  C   UNL     1      -9.693   4.437   6.004  0.00  0.00    +0.000 A 
ATOM     27  S   UNL     1     -10.382   5.779   6.794  0.00  0.00    +0.000 S 
ATOM     28  C   UNL     1      -9.663   6.862   5.695  0.00  0.00    +0.000 A 
ATOM     29  N   UNL     1      -9.894   8.198   5.780  0.00  0.00    +0.000 NA
ATOM     30  C   UNL     1      -9.320   8.901   4.860  0.00  0.00    +0.000 A 
ATOM     31  N   UNL     1      -8.519   8.386   3.874  0.00  0.00    +0.000 N 
ATOM     32  C   UNL     1      -8.188   7.052   3.804  0.00  0.00    +0.000 A 
ATOM     33  O   UNL     1      -7.348   6.644   3.012  0.00  0.00    +0.000 OA
ATOM     34  C   UNL     1      -8.868   6.211   4.770  0.00  0.00    +0.000 A 
ATOM     35  H   UNL     1      -8.063   8.994   3.209  0.00  0.00    +0.000 HD
ENDBRANCH  22  25
ENDBRANCH  20  21
ENDBRANCH   4  20
TORSDOF 7
