REMARK  Name = 
REMARK  7 active torsions:
REMARK  status: ('A' for Active; 'I' for Inactive)
REMARK    1  A    between atoms: C_1  and  N_2
REMARK    2  A    between atoms: N_2  and  C_3
REMARK    3  A    between atoms: N_2  and  C_4
REMARK    4  A    between atoms: C_4  and  C_5
REMARK    5  A    between atoms: N_8  and  C_9
REMARK    6  A    between atoms: C_9  and  N_10
REMARK    7  A    between atoms: C_15  and  C_16
REMARK                            x       y       z     vdW  Elec       q    Type
REMARK                         _______ _______ _______ _____ _____    ______ ____
ROOT
ATOM      1  N   UNL     1       5.407  -0.207  -6.068  0.00  0.00    +0.000 N 
ATOM      2  C   UNL     1       6.743  -0.454  -6.233  0.00  0.00    +0.000 A 
ATOM      3  N   UNL     1       6.954  -1.635  -6.768  0.00  0.00    +0.000 NA
ATOM      4  C   UNL     1       5.705  -2.169  -6.973  0.00  0.00    +0.000 A 
ATOM      5  C   UNL     1       5.351  -3.426  -7.459  0.00  0.00    +0.000 A 
ATOM      6  C   UNL     1       3.988  -3.671  -7.536  0.00  0.00    +0.000 A 
ATOM      7  N   UNL     1       3.007  -2.769  -7.229  0.00  0.00    +0.000 NA
ATOM      8  C   UNL     1       3.364  -1.550  -6.767  0.00  0.00    +0.000 A 
ATOM      9  C   UNL     1       4.712  -1.268  -6.603  0.00  0.00    +0.000 A 
ENDROOT
BRANCH   6  10
ATOM     10  C   UNL     1       3.516  -5.039  -7.931  0.00  0.00    +0.000 C 
ATOM     11  N   UNL     1       2.159  -5.212  -7.926  0.00  0.00    +0.000 N 
ATOM     12  O   UNL     1       4.282  -5.955  -8.210  0.00  0.00    +0.000 OA
ATOM     13  H   UNL     1       1.563  -4.448  -7.628  0.00  0.00    +0.000 HD
ATOM     14  H   UNL     1       1.776  -6.130  -8.094  0.00  0.00    +0.000 HD
ENDBRANCH   6  10
BRANCH   1  15
ATOM     15  C   UNL     1       4.837   0.958  -5.405  0.00  0.00    +0.000 C 
BRANCH  15  19
ATOM     16  C   UNL     1       4.504   1.081  -1.090  0.00  0.00    +0.000 C 
ATOM     17  C   UNL     1       4.929   2.333  -1.871  0.00  0.00    +0.000 C 
ATOM     18  C   UNL     1       4.660   2.213  -3.374  0.00  0.00    +0.000 C 
ATOM     19  N   UNL     1       5.243   1.003  -3.983  0.00  0.00    +0.000 NA
ATOM     20  C   UNL     1       4.860  -0.218  -3.246  0.00  0.00    +0.000 C 
ATOM     21  C   UNL     1       5.174  -0.127  -1.750  0.00  0.00    +0.000 C 
BRANCH  16  22
ATOM     22  C   UNL     1       2.960   0.962  -1.000  0.00  0.00    +0.000 C 
BRANCH  22  24
ATOM     23  C   UNL     1       2.833  -0.220   1.131  0.00  0.00    +0.000 C 
ATOM     24  N   UNL     1       2.467  -0.232  -0.287  0.00  0.00    +0.000 NA
ATOM     25  C   UNL     1       1.007  -0.325  -0.412  0.00  0.00    +0.000 C 
ENDBRANCH  22  24
ENDBRANCH  16  22
ENDBRANCH  15  19
ENDBRANCH   1  15
TORSDOF 5
