REMARK  Name = 
REMARK  4 active torsions:
REMARK  status: ('A' for Active; 'I' for Inactive)
REMARK    1  A    between atoms: C_2  and  C_4
REMARK    2  A    between atoms: N_8  and  C_9
REMARK    3  A    between atoms: C_9  and  C_10
REMARK    4  A    between atoms: C_10  and  C_11
REMARK                            x       y       z     vdW  Elec       q    Type
REMARK                         _______ _______ _______ _____ _____    ______ ____
ROOT
ATOM      1  C   UNL     1       3.227   1.315  -0.367  0.00  0.00    +0.000 A 
ATOM      2  C   UNL     1       4.511   1.116  -0.873  0.00  0.00    +0.000 A 
ATOM      3  C   UNL     1       5.174   2.173  -1.483  0.00  0.00    +0.000 A 
ATOM      4  C   UNL     1       4.571   3.431  -1.560  0.00  0.00    +0.000 A 
ATOM      5  N   UNL     1       5.354   4.506  -1.988  0.00  0.00    +0.000 N 
ATOM      6  N   UNL     1       3.315   3.623  -1.107  0.00  0.00    +0.000 NA
ATOM      7  C   UNL     1       2.664   2.569  -0.546  0.00  0.00    +0.000 A 
ATOM      8  H   UNL     1       5.837   4.341  -2.863  0.00  0.00    +0.000 HD
ENDROOT
BRANCH   1  10
ATOM      9  N   UNL     1       3.193  -0.673   1.025  0.00  0.00    +0.000 N 
ATOM     10  C   UNL     1       2.464   0.271   0.347  0.00  0.00    +0.000 C 
ATOM     11  O   UNL     1       1.244   0.269   0.373  0.00  0.00    +0.000 OA
ATOM     12  H   UNL     1       2.669  -1.314   1.605  0.00  0.00    +0.000 HD
ATOM     13  H   UNL     1       4.171  -0.549   1.240  0.00  0.00    +0.000 HD
ENDBRANCH   1  10
BRANCH   5  14
ATOM     14  C   UNL     1       4.817   5.844  -1.762  0.00  0.00    +0.000 C 
BRANCH  14  15
ATOM     15  C   UNL     1       5.639   6.892  -2.525  0.00  0.00    +0.000 C 
BRANCH  15  16
ATOM     16  C   UNL     1       5.316   8.300  -2.088  0.00  0.00    +0.000 A 
ATOM     17  C   UNL     1       6.008   8.888  -1.025  0.00  0.00    +0.000 A 
ATOM     18  C   UNL     1       5.672  10.178  -0.642  0.00  0.00    +0.000 A 
ATOM     19  N   UNL     1       4.705  10.910  -1.234  0.00  0.00    +0.000 NA
ATOM     20  C   UNL     1       4.042  10.322  -2.252  0.00  0.00    +0.000 A 
ATOM     21  C   UNL     1       4.304   9.037  -2.708  0.00  0.00    +0.000 A 
ENDBRANCH  15  16
ENDBRANCH  14  15
ENDBRANCH   5  14
TORSDOF 4
