REMARK  Name = 
REMARK  6 active torsions:
REMARK  status: ('A' for Active; 'I' for Inactive)
REMARK    1  A    between atoms: C_2  and  C_19
REMARK    2  A    between atoms: N_3  and  C_4
REMARK    3  A    between atoms: C_4  and  C_5
REMARK    4  A    between atoms: C_8  and  O_9
REMARK    5  A    between atoms: O_9  and  C_10
REMARK    6  A    between atoms: C_10  and  C_11
REMARK                            x       y       z     vdW  Elec       q    Type
REMARK                         _______ _______ _______ _____ _____    ______ ____
ROOT
ATOM      1  O   UNL     1       0.709   3.072  -1.405  0.00  0.00    +0.000 OA
ATOM      2  C   UNL     1       1.644   2.291  -1.555  0.00  0.00    +0.000 C 
ATOM      3  N   UNL     1       2.399   1.841  -0.504  0.00  0.00    +0.000 N 
ATOM      4  H   UNL     1       3.266   1.346  -0.685  0.00  0.00    +0.000 HD
ENDROOT
BRANCH   2   5
ATOM      5  C   UNL     1       1.968   1.733  -2.872  0.00  0.00    +0.000 A 
ATOM      6  C   UNL     1       0.999   1.720  -3.866  0.00  0.00    +0.000 A 
ATOM      7  S   UNL     1       1.526   1.013  -5.325  0.00  0.00    +0.000 S 
ATOM      8  C   UNL     1       3.083   0.745  -4.695  0.00  0.00    +0.000 A 
ATOM      9  N   UNL     1       4.059   0.186  -5.461  0.00  0.00    +0.000 NA
ATOM     10  C   UNL     1       5.205   0.084  -4.874  0.00  0.00    +0.000 A 
ATOM     11  N   UNL     1       5.460   0.476  -3.586  0.00  0.00    +0.000 N 
ATOM     12  C   UNL     1       4.487   0.966  -2.749  0.00  0.00    +0.000 A 
ATOM     13  O   UNL     1       4.713   1.172  -1.562  0.00  0.00    +0.000 OA
ATOM     14  C   UNL     1       3.192   1.156  -3.379  0.00  0.00    +0.000 A 
ATOM     15  H   UNL     1       6.372   0.338  -3.177  0.00  0.00    +0.000 HD
ENDBRANCH   2   5
BRANCH   3  16
ATOM     16  C   UNL     1       2.182   2.289   0.845  0.00  0.00    +0.000 C 
BRANCH  16  17
ATOM     17  C   UNL     1       3.132   3.392   1.224  0.00  0.00    +0.000 A 
ATOM     18  C   UNL     1       2.808   4.732   0.973  0.00  0.00    +0.000 A 
ATOM     19  C   UNL     1       3.656   5.755   1.399  0.00  0.00    +0.000 A 
ATOM     20  C   UNL     1       4.837   5.453   2.080  0.00  0.00    +0.000 A 
ATOM     21  C   UNL     1       5.207   4.118   2.251  0.00  0.00    +0.000 A 
ATOM     22  C   UNL     1       4.357   3.094   1.830  0.00  0.00    +0.000 A 
BRANCH  20  23
ATOM     23  O   UNL     1       5.550   6.528   2.541  0.00  0.00    +0.000 OA
BRANCH  23  24
ATOM     24  C   UNL     1       6.428   6.242   3.633  0.00  0.00    +0.000 C 
BRANCH  24  25
ATOM     25  C   UNL     1       6.726   7.501   4.396  0.00  0.00    +0.000 A 
ATOM     26  C   UNL     1       5.702   8.277   4.947  0.00  0.00    +0.000 A 
ATOM     27  C   UNL     1       6.018   9.394   5.712  0.00  0.00    +0.000 A 
ATOM     28  C   UNL     1       7.356   9.697   5.905  0.00  0.00    +0.000 A 
ATOM     29  N   UNL     1       8.373   8.972   5.392  0.00  0.00    +0.000 NA
ATOM     30  C   UNL     1       8.034   7.894   4.651  0.00  0.00    +0.000 A 
ENDBRANCH  24  25
ENDBRANCH  23  24
ENDBRANCH  20  23
ENDBRANCH  16  17
ENDBRANCH   3  16
TORSDOF 6
