REMARK  Name = 
REMARK  8 active torsions:
REMARK  status: ('A' for Active; 'I' for Inactive)
REMARK    1  A    between atoms: C_1  and  C_2
REMARK    2  A    between atoms: C_2  and  C_3
REMARK    3  A    between atoms: C_2  and  N_4
REMARK    4  A    between atoms: C_2  and  C_5
REMARK    5  A    between atoms: C_8  and  C_9
REMARK    6  A    between atoms: C_9  and  N_10
REMARK    7  A    between atoms: N_10  and  C_11
REMARK    8  A    between atoms: C_14  and  C_15
REMARK                            x       y       z     vdW  Elec       q    Type
REMARK                         _______ _______ _______ _____ _____    ______ ____
ROOT
ATOM      1  C   UNL     1       4.125  -4.670  -3.165  0.00  0.00    +0.000 C 
ENDROOT
BRANCH   1   5
ATOM      2  C   UNL     1       3.050  -1.230  -0.842  0.00  0.00    +0.000 A 
ATOM      3  N   UNL     1       2.622  -2.472  -0.476  0.00  0.00    +0.000 NA
ATOM      4  C   UNL     1       3.008  -3.526  -1.234  0.00  0.00    +0.000 A 
ATOM      5  C   UNL     1       3.820  -3.433  -2.360  0.00  0.00    +0.000 A 
ATOM      6  C   UNL     1       4.237  -2.154  -2.731  0.00  0.00    +0.000 A 
ATOM      7  C   UNL     1       3.860  -1.054  -1.966  0.00  0.00    +0.000 A 
ATOM      8  F   UNL     1       4.290   0.158  -2.342  0.00  0.00    +0.000 F 
BRANCH   2  10
ATOM      9  C   UNL     1       3.812   0.684   0.618  0.00  0.00    +0.000 C 
ATOM     10  C   UNL     1       2.595  -0.033   0.006  0.00  0.00    +0.000 C 
ATOM     11  C   UNL     1       1.672  -0.471   1.165  0.00  0.00    +0.000 C 
BRANCH  10  12
ATOM     12  N   UNL     1       1.828   0.936  -0.805  0.00  0.00    +0.000 NA
ATOM     13  H   UNL     1       1.489   1.688  -0.208  0.00  0.00    +0.000 HD
ATOM     14  H   UNL     1       0.998   0.467  -1.170  0.00  0.00    +0.000 HD
ENDBRANCH  10  12
ENDBRANCH   2  10
ENDBRANCH   1   5
BRANCH   1  15
ATOM     15  N   UNL     1       5.423  -4.576  -3.826  0.00  0.00    +0.000 N 
ATOM     16  H   UNL     1       6.170  -4.317  -3.185  0.00  0.00    +0.000 HD
BRANCH  15  17
ATOM     17  C   UNL     1       5.794  -5.740  -4.529  0.00  0.00    +0.000 A 
ATOM     18  N   UNL     1       4.915  -6.771  -4.608  0.00  0.00    +0.000 NA
ATOM     19  C   UNL     1       5.328  -7.877  -5.281  0.00  0.00    +0.000 A 
ATOM     20  C   UNL     1       6.576  -7.961  -5.877  0.00  0.00    +0.000 A 
ATOM     21  N   UNL     1       7.475  -6.942  -5.849  0.00  0.00    +0.000 NA
ATOM     22  C   UNL     1       7.048  -5.847  -5.174  0.00  0.00    +0.000 A 
ATOM     23 CL   UNL     1       8.212  -4.579  -5.130  0.00  0.00    +0.000 Cl
BRANCH  20  24
ATOM     24  C   UNL     1       6.990  -9.222  -6.548  0.00  0.00    +0.000 C 
ATOM     25  N   UNL     1       8.236  -9.208  -7.113  0.00  0.00    +0.000 N 
ATOM     26  O   UNL     1       6.270 -10.210  -6.580  0.00  0.00    +0.000 OA
ATOM     27  H   UNL     1       8.817  -8.378  -7.054  0.00  0.00    +0.000 HD
ATOM     28  H   UNL     1       8.592 -10.044  -7.556  0.00  0.00    +0.000 HD
ENDBRANCH  20  24
ENDBRANCH  15  17
ENDBRANCH   1  15
TORSDOF 6
