REMARK  Name = 
REMARK  6 active torsions:
REMARK  status: ('A' for Active; 'I' for Inactive)
REMARK    1  A    between atoms: C_1  and  O_2
REMARK    2  A    between atoms: O_2  and  C_3
REMARK    3  A    between atoms: N_11  and  C_12
REMARK    4  A    between atoms: C_12  and  C_13
REMARK    5  A    between atoms: C_16  and  C_17
REMARK    6  A    between atoms: C_17  and  N_18
REMARK                            x       y       z     vdW  Elec       q    Type
REMARK                         _______ _______ _______ _____ _____    ______ ____
ROOT
ATOM      1  C   UNL     1       3.091   0.755  -0.809  0.00  0.00    +0.000 A 
ATOM      2  C   UNL     1       2.646   2.073  -0.994  0.00  0.00    +0.000 A 
ATOM      3  C   UNL     1       3.105   2.841  -2.049  0.00  0.00    +0.000 A 
ATOM      4  C   UNL     1       4.072   2.355  -2.935  0.00  0.00    +0.000 A 
ATOM      5  C   UNL     1       4.612   1.082  -2.692  0.00  0.00    +0.000 A 
ATOM      6  C   UNL     1       4.120   0.267  -1.656  0.00  0.00    +0.000 A 
ATOM      7  C   UNL     1       4.838  -0.962  -1.720  0.00  0.00    +0.000 A 
ATOM      8  C   UNL     1       5.762  -0.860  -2.738  0.00  0.00    +0.000 A 
ATOM      9  N   UNL     1       5.644   0.386  -3.307  0.00  0.00    +0.000 N 
ENDROOT
BRANCH   1  11
ATOM     10  C   UNL     1       1.227   0.202   0.514  0.00  0.00    +0.000 C 
ATOM     11  O   UNL     1       2.593  -0.059   0.186  0.00  0.00    +0.000 OA
ENDBRANCH   1  11
BRANCH   9  12
ATOM     12  C   UNL     1       6.592   0.910  -4.299  0.00  0.00    +0.000 C 
BRANCH  12  13
ATOM     13  C   UNL     1       6.182   0.567  -5.709  0.00  0.00    +0.000 A 
ATOM     14  C   UNL     1       5.420   1.466  -6.463  0.00  0.00    +0.000 A 
ATOM     15  C   UNL     1       4.832   1.062  -7.663  0.00  0.00    +0.000 A 
ATOM     16  C   UNL     1       5.007  -0.242  -8.145  0.00  0.00    +0.000 A 
ATOM     17  C   UNL     1       5.880  -1.095  -7.458  0.00  0.00    +0.000 A 
ATOM     18  C   UNL     1       6.470  -0.692  -6.256  0.00  0.00    +0.000 A 
BRANCH  16  19
ATOM     19  C   UNL     1       4.116  -0.740  -9.258  0.00  0.00    +0.000 C 
BRANCH  19  20
ATOM     20  N   UNL     1       4.734  -1.748 -10.110  0.00  0.00    +0.000 NA
ATOM     21  H   UNL     1       5.520  -1.325 -10.597  0.00  0.00    +0.000 HD
ATOM     22  H   UNL     1       4.061  -2.025 -10.824  0.00  0.00    +0.000 HD
ENDBRANCH  19  20
ENDBRANCH  16  19
ENDBRANCH  12  13
ENDBRANCH   9  12
TORSDOF 5
