REMARK  Name = 
REMARK  5 active torsions:
REMARK  status: ('A' for Active; 'I' for Inactive)
REMARK    1  A    between atoms: C_2  and  C_4
REMARK    2  A    between atoms: C_7  and  C_8
REMARK    3  A    between atoms: C_8  and  O_9
REMARK    4  A    between atoms: O_9  and  C_10
REMARK    5  A    between atoms: C_14  and  C_15
REMARK                            x       y       z     vdW  Elec       q    Type
REMARK                         _______ _______ _______ _____ _____    ______ ____
ROOT
ATOM      1  O   UNL     1       4.904  -4.592  -3.769  0.00  0.00    +0.000 OA
ENDROOT
BRANCH   1   2
ATOM      2  C   UNL     1       5.534  -5.567  -4.489  0.00  0.00    +0.000 A 
ATOM      3  C   UNL     1       5.832  -5.261  -5.809  0.00  0.00    +0.000 A 
ATOM      4  N   UNL     1       6.453  -6.105  -6.662  0.00  0.00    +0.000 NA
ATOM      5  C   UNL     1       6.796  -7.317  -6.165  0.00  0.00    +0.000 A 
ATOM      6  C   UNL     1       6.548  -7.754  -4.860  0.00  0.00    +0.000 A 
ATOM      7  C   UNL     1       5.897  -6.833  -4.023  0.00  0.00    +0.000 A 
BRANCH   6   8
ATOM      8  C   UNL     1       6.956  -9.094  -4.390  0.00  0.00    +0.000 A 
ATOM      9  C   UNL     1       6.923 -10.211  -5.249  0.00  0.00    +0.000 A 
ATOM     10  C   UNL     1       7.355 -11.474  -4.830  0.00  0.00    +0.000 A 
ATOM     11  C   UNL     1       7.817 -11.653  -3.530  0.00  0.00    +0.000 A 
ATOM     12  C   UNL     1       7.830 -10.572  -2.662  0.00  0.00    +0.000 A 
ATOM     13  F   UNL     1       8.263 -10.740  -1.406  0.00  0.00    +0.000 F 
ATOM     14  C   UNL     1       7.410  -9.309  -3.076  0.00  0.00    +0.000 A 
ENDBRANCH   6   8
ENDBRANCH   1   2
BRANCH   1  15
ATOM     15  C   UNL     1       4.621  -4.899  -2.405  0.00  0.00    +0.000 C 
BRANCH  15  19
ATOM     16  C   UNL     1       2.381  -1.788  -0.416  0.00  0.00    +0.000 A 
ATOM     17  C   UNL     1       2.224  -1.981  -1.793  0.00  0.00    +0.000 A 
ATOM     18  C   UNL     1       2.961  -2.973  -2.447  0.00  0.00    +0.000 A 
ATOM     19  C   UNL     1       3.872  -3.768  -1.738  0.00  0.00    +0.000 A 
ATOM     20  C   UNL     1       4.029  -3.561  -0.359  0.00  0.00    +0.000 A 
ATOM     21  C   UNL     1       3.296  -2.571   0.295  0.00  0.00    +0.000 A 
BRANCH  16  23
ATOM     22  N   UNL     1       0.373  -0.437  -0.172  0.00  0.00    +0.000 N 
ATOM     23  C   UNL     1       1.602  -0.767   0.325  0.00  0.00    +0.000 C 
ATOM     24  O   UNL     1       2.013  -0.270   1.364  0.00  0.00    +0.000 OA
ATOM     25  H   UNL     1      -0.196   0.167   0.407  0.00  0.00    +0.000 HD
ATOM     26  H   UNL     1      -0.100  -1.009  -0.859  0.00  0.00    +0.000 HD
ENDBRANCH  16  23
ENDBRANCH  15  19
ENDBRANCH   1  15
TORSDOF 5
