REMARK  Name = 
REMARK  8 active torsions:
REMARK  status: ('A' for Active; 'I' for Inactive)
REMARK    1  A    between atoms: C_1  and  O_2
REMARK    2  A    between atoms: O_2  and  C_3
REMARK    3  A    between atoms: C_6  and  C_7
REMARK    4  A    between atoms: N_9  and  C_10
REMARK    5  A    between atoms: C_10  and  C_11
REMARK    6  A    between atoms: C_14  and  C_15
REMARK    7  A    between atoms: C_15  and  N_16
REMARK    8  A    between atoms: C_17  and  C_19
REMARK                            x       y       z     vdW  Elec       q    Type
REMARK                         _______ _______ _______ _____ _____    ______ ____
ROOT
ATOM      1  C   UNL     1       8.232  -2.742  -5.786  0.00  0.00    +0.000 A 
ATOM      2  C   UNL     1       9.484  -2.247  -5.398  0.00  0.00    +0.000 A 
ATOM      3  C   UNL     1      10.545  -3.119  -5.126  0.00  0.00    +0.000 A 
ATOM      4  C   UNL     1      10.382  -4.505  -5.258  0.00  0.00    +0.000 A 
ATOM      5  C   UNL     1       9.127  -4.998  -5.639  0.00  0.00    +0.000 A 
ATOM      6  C   UNL     1       8.068  -4.127  -5.912  0.00  0.00    +0.000 A 
ENDROOT
BRANCH   1   7
ATOM      7  C   UNL     1       7.097  -1.803  -6.106  0.00  0.00    +0.000 C 
BRANCH   7  10
ATOM      8  C   UNL     1       6.214  -0.528  -8.020  0.00  0.00    +0.000 C 
ATOM      9  O   UNL     1       5.309  -0.054  -7.333  0.00  0.00    +0.000 OA
ATOM     10  N   UNL     1       7.137  -1.393  -7.489  0.00  0.00    +0.000 N 
ATOM     11  H   UNL     1       7.870  -1.778  -8.074  0.00  0.00    +0.000 HD
BRANCH   8  15
ATOM     12  C   UNL     1       6.255   0.680 -12.181  0.00  0.00    +0.000 A 
ATOM     13  C   UNL     1       5.293   1.134 -11.287  0.00  0.00    +0.000 A 
ATOM     14  C   UNL     1       5.326   0.716  -9.952  0.00  0.00    +0.000 A 
ATOM     15  C   UNL     1       6.319  -0.165  -9.473  0.00  0.00    +0.000 A 
ATOM     16  C   UNL     1       7.289  -0.609 -10.385  0.00  0.00    +0.000 A 
ATOM     17 CL   UNL     1       8.587  -1.684  -9.993  0.00  0.00    +0.000 Cl
ATOM     18  C   UNL     1       7.249  -0.184 -11.724  0.00  0.00    +0.000 A 
BRANCH  12  20
ATOM     19  C   UNL     1       5.299   1.828 -14.028  0.00  0.00    +0.000 C 
ATOM     20  O   UNL     1       6.337   1.006 -13.507  0.00  0.00    +0.000 OA
ENDBRANCH  12  20
ENDBRANCH   8  15
ENDBRANCH   7  10
ENDBRANCH   1   7
BRANCH   4  21
ATOM     21  C   UNL     1      11.516  -5.457  -4.972  0.00  0.00    +0.000 C 
BRANCH  21  22
ATOM     22  N   UNL     1      11.517  -5.875  -3.594  0.00  0.00    +0.000 N 
ATOM     23  C   UNL     1      12.493  -6.705  -3.097  0.00  0.00    +0.000 C 
ATOM     24  O   UNL     1      13.430  -7.098  -3.787  0.00  0.00    +0.000 OA
ATOM     25  H   UNL     1      10.644  -5.782  -3.086  0.00  0.00    +0.000 HD
BRANCH  23  26
ATOM     26  C   UNL     1      12.395  -7.045  -1.672  0.00  0.00    +0.000 A 
ATOM     27  C   UNL     1      13.534  -7.409  -0.966  0.00  0.00    +0.000 A 
ATOM     28  S   UNL     1      13.246  -7.714   0.688  0.00  0.00    +0.000 S 
ATOM     29  C   UNL     1      11.579  -7.427   0.507  0.00  0.00    +0.000 A 
ATOM     30  N   UNL     1      10.727  -7.549   1.561  0.00  0.00    +0.000 NA
ATOM     31  C   UNL     1       9.487  -7.336   1.272  0.00  0.00    +0.000 A 
ATOM     32  N   UNL     1       9.021  -7.004   0.027  0.00  0.00    +0.000 N 
ATOM     33  C   UNL     1       9.846  -6.837  -1.059  0.00  0.00    +0.000 A 
ATOM     34  O   UNL     1       9.402  -6.493  -2.149  0.00  0.00    +0.000 OA
ATOM     35  C   UNL     1      11.251  -7.082  -0.792  0.00  0.00    +0.000 A 
ATOM     36  H   UNL     1       8.038  -6.839  -0.133  0.00  0.00    +0.000 HD
ENDBRANCH  23  26
ENDBRANCH  21  22
ENDBRANCH   4  21
TORSDOF 7
