REMARK  Name = 
REMARK  7 active torsions:
REMARK  status: ('A' for Active; 'I' for Inactive)
REMARK    1  A    between atoms: N_1  and  C_2
REMARK    2  A    between atoms: C_2  and  C_3
REMARK    3  A    between atoms: C_7  and  C_8
REMARK    4  A    between atoms: C_8  and  C_9
REMARK    5  A    between atoms: C_9  and  N_10
REMARK    6  A    between atoms: N_10  and  C_11
REMARK    7  A    between atoms: C_14  and  C_15
REMARK                            x       y       z     vdW  Elec       q    Type
REMARK                         _______ _______ _______ _____ _____    ______ ____
ROOT
ATOM      1  N   UNL     1       4.034   3.488   6.353  0.00  0.00    +0.000 N 
ATOM      2  H   UNL     1       3.754   2.623   6.807  0.00  0.00    +0.000 HD
ENDROOT
BRANCH   1   3
ATOM      3  C   UNL     1       3.890   4.609   7.175  0.00  0.00    +0.000 A 
ATOM      4  C   UNL     1       3.638   5.899   6.692  0.00  0.00    +0.000 A 
ATOM      5  C   UNL     1       3.621   7.008   7.546  0.00  0.00    +0.000 A 
ATOM      6  C   UNL     1       3.876   6.855   8.909  0.00  0.00    +0.000 A 
ATOM      7  C   UNL     1       4.148   5.578   9.411  0.00  0.00    +0.000 A 
ATOM      8  C   UNL     1       4.160   4.474   8.546  0.00  0.00    +0.000 A 
BRANCH   6   9
ATOM      9  C   UNL     1       3.897   8.072   9.762  0.00  0.00    +0.000 C 
ATOM     10  N   UNL     1       3.679   7.911  11.101  0.00  0.00    +0.000 N 
ATOM     11  O   UNL     1       4.071   9.190   9.288  0.00  0.00    +0.000 OA
ATOM     12  H   UNL     1       3.295   7.064  11.492  0.00  0.00    +0.000 HD
ATOM     13  H   UNL     1       3.595   8.762  11.642  0.00  0.00    +0.000 HD
ENDBRANCH   6   9
ENDBRANCH   1   3
BRANCH   1  14
ATOM     14  C   UNL     1       3.694   3.579   4.933  0.00  0.00    +0.000 C 
BRANCH  14  15
ATOM     15  C   UNL     1       3.798   2.210   4.251  0.00  0.00    +0.000 C 
BRANCH  15  20
ATOM     16  C   UNL     1       2.003   2.589   0.899  0.00  0.00    +0.000 A 
ATOM     17  C   UNL     1       3.091   2.777   0.037  0.00  0.00    +0.000 A 
ATOM     18  C   UNL     1       4.396   2.740   0.527  0.00  0.00    +0.000 A 
ATOM     19  C   UNL     1       4.627   2.526   1.886  0.00  0.00    +0.000 A 
ATOM     20  C   UNL     1       3.554   2.337   2.766  0.00  0.00    +0.000 A 
ATOM     21  C   UNL     1       2.246   2.365   2.263  0.00  0.00    +0.000 A 
BRANCH  16  22
ATOM     22  C   UNL     1       0.591   2.716   0.388  0.00  0.00    +0.000 C 
BRANCH  22  23
ATOM     23  N   UNL     1       0.090   4.068   0.600  0.00  0.00    +0.000 NA
ATOM     24  H   UNL     1      -0.792   4.182   0.107  0.00  0.00    +0.000 HD
ATOM     25  H   UNL     1       0.743   4.730   0.181  0.00  0.00    +0.000 HD
ENDBRANCH  22  23
ENDBRANCH  16  22
ENDBRANCH  15  20
ENDBRANCH  14  15
ENDBRANCH   1  14
TORSDOF 7
