REMARK  Name = 
REMARK  7 active torsions:
REMARK  status: ('A' for Active; 'I' for Inactive)
REMARK    1  A    between atoms: N_1  and  C_2
REMARK    2  A    between atoms: C_2  and  N_3
REMARK    3  A    between atoms: C_2  and  C_16
REMARK    4  A    between atoms: C_4  and  C_6
REMARK    5  A    between atoms: C_19  and  C_20
REMARK    6  A    between atoms: C_20  and  N_21
REMARK    7  A    between atoms: C_22  and  C_24
REMARK                            x       y       z     vdW  Elec       q    Type
REMARK                         _______ _______ _______ _____ _____    ______ ____
ROOT
ATOM      1  C   UNL     1       2.418   0.092   0.092  0.00  0.00    +0.000 C 
ENDROOT
BRANCH   1   2
ATOM      2  C   UNL     1       2.813  -1.219   0.759  0.00  0.00    +0.000 A 
ATOM      3  C   UNL     1       3.413  -1.236   2.025  0.00  0.00    +0.000 A 
ATOM      4  C   UNL     1       3.757  -2.449   2.641  0.00  0.00    +0.000 A 
ATOM      5  C   UNL     1       3.518  -3.674   2.001  0.00  0.00    +0.000 A 
ATOM      6  C   UNL     1       2.919  -3.658   0.736  0.00  0.00    +0.000 A 
ATOM      7  C   UNL     1       2.580  -2.445   0.125  0.00  0.00    +0.000 A 
BRANCH   5   8
ATOM      8  C   UNL     1       3.853  -4.991   2.658  0.00  0.00    +0.000 C 
BRANCH   8   9
ATOM      9  N   UNL     1       2.723  -5.513   3.386  0.00  0.00    +0.000 N 
ATOM     10  C   UNL     1       2.767  -6.676   4.111  0.00  0.00    +0.000 C 
ATOM     11  O   UNL     1       3.770  -7.386   4.177  0.00  0.00    +0.000 OA
ATOM     12  H   UNL     1       1.839  -5.008   3.354  0.00  0.00    +0.000 HD
BRANCH  10  13
ATOM     13  C   UNL     1       1.448  -7.087   4.777  0.00  0.00    +0.000 C 
ATOM     14  C   UNL     1       0.571  -7.921   3.838  0.00  0.00    +0.000 C 
ATOM     15  C   UNL     1      -0.119  -7.059   2.783  0.00  0.00    +0.000 C 
ATOM     16  C   UNL     1      -0.830  -5.859   3.408  0.00  0.00    +0.000 C 
ATOM     17  N   UNL     1       0.062  -5.072   4.263  0.00  0.00    +0.000 NA
ATOM     18  C   UNL     1       0.658  -5.894   5.330  0.00  0.00    +0.000 C 
ATOM     19  H   UNL     1      -0.464  -4.307   4.689  0.00  0.00    +0.000 HD
ENDBRANCH  10  13
ENDBRANCH   8   9
ENDBRANCH   5   8
ENDBRANCH   1   2
BRANCH   1  20
ATOM     20  N   UNL     1       1.026   0.069  -0.270  0.00  0.00    +0.000 N 
ATOM     21  C   UNL     1       0.376   1.113  -0.879  0.00  0.00    +0.000 C 
ATOM     22  O   UNL     1       0.963   2.126  -1.251  0.00  0.00    +0.000 OA
ATOM     23  H   UNL     1       0.459  -0.532   0.320  0.00  0.00    +0.000 HD
BRANCH  21  24
ATOM     24  C   UNL     1      -1.048   0.908  -1.179  0.00  0.00    +0.000 A 
ATOM     25  C   UNL     1      -1.622   1.557  -2.264  0.00  0.00    +0.000 A 
ATOM     26  S   UNL     1      -3.276   1.198  -2.478  0.00  0.00    +0.000 S 
ATOM     27  C   UNL     1      -3.292   0.193  -1.106  0.00  0.00    +0.000 A 
ATOM     28  N   UNL     1      -4.438  -0.409  -0.691  0.00  0.00    +0.000 NA
ATOM     29  C   UNL     1      -4.309  -1.123   0.377  0.00  0.00    +0.000 A 
ATOM     30  N   UNL     1      -3.132  -1.306   1.056  0.00  0.00    +0.000 N 
ATOM     31  C   UNL     1      -1.943  -0.746   0.653  0.00  0.00    +0.000 A 
ATOM     32  O   UNL     1      -0.892  -0.971   1.244  0.00  0.00    +0.000 OA
ATOM     33  C   UNL     1      -2.043   0.099  -0.519  0.00  0.00    +0.000 A 
ATOM     34  H   UNL     1      -3.093  -1.895   1.875  0.00  0.00    +0.000 HD
ENDBRANCH  21  24
ENDBRANCH   1  20
BRANCH   1  35
ATOM     35  N   UNL     1       3.164   0.282  -1.135  0.00  0.00    +0.000 NA
ATOM     36  H   UNL     1       2.815   1.151  -1.550  0.00  0.00    +0.000 HD
ATOM     37  H   UNL     1       2.888  -0.448  -1.785  0.00  0.00    +0.000 HD
ENDBRANCH   1  35
TORSDOF 7
