REMARK  Name = 
REMARK  4 active torsions:
REMARK  status: ('A' for Active; 'I' for Inactive)
REMARK    1  A    between atoms: C_2  and  C_3
REMARK    2  A    between atoms: N_7  and  C_8
REMARK    3  A    between atoms: C_8  and  C_9
REMARK    4  A    between atoms: C_13  and  C_14
REMARK                            x       y       z     vdW  Elec       q    Type
REMARK                         _______ _______ _______ _____ _____    ______ ____
ROOT
ATOM      1  C   UNL     1      -4.333   1.175  -0.175  0.00  0.00    +0.000 C 
ATOM      2  C   UNL     1      -4.730   2.301  -1.113  0.00  0.00    +0.000 C 
ATOM      3  C   UNL     1      -4.479   2.593   0.332  0.00  0.00    +0.000 C 
ENDROOT
BRANCH   1   8
ATOM      4  C   UNL     1      -0.229  -1.262   1.904  0.00  0.00    +0.000 A 
ATOM      5  C   UNL     1      -0.771  -0.056   2.335  0.00  0.00    +0.000 A 
ATOM      6  C   UNL     1      -1.789   0.543   1.582  0.00  0.00    +0.000 A 
ATOM      7  C   UNL     1      -2.208  -0.068   0.408  0.00  0.00    +0.000 A 
ATOM      8  N   UNL     1      -3.030   0.566  -0.530  0.00  0.00    +0.000 N 
ATOM      9  N   UNL     1      -1.724  -1.263   0.006  0.00  0.00    +0.000 NA
ATOM     10  C   UNL     1      -0.753  -1.837   0.757  0.00  0.00    +0.000 A 
ATOM     11  H   UNL     1      -3.129  -0.152  -1.249  0.00  0.00    +0.000 HD
BRANCH   4  13
ATOM     12  N   UNL     1       1.789  -2.371   3.089  0.00  0.00    +0.000 NA
ATOM     13  C   UNL     1       0.875  -1.879   2.572  0.00  0.00    +0.000 C 
ENDBRANCH   4  13
ENDBRANCH   1   8
BRANCH   1  14
ATOM     14  C   UNL     1      -5.336   0.118   0.262  0.00  0.00    +0.000 A 
ATOM     15  C   UNL     1      -5.767  -0.861  -0.649  0.00  0.00    +0.000 A 
ATOM     16  C   UNL     1      -6.266  -2.081  -0.201  0.00  0.00    +0.000 A 
ATOM     17  C   UNL     1      -6.372  -2.327   1.168  0.00  0.00    +0.000 A 
ATOM     18  C   UNL     1      -6.055  -1.334   2.110  0.00  0.00    +0.000 A 
ATOM     19  C   UNL     1      -5.595  -0.097   1.628  0.00  0.00    +0.000 A 
BRANCH  18  20
ATOM     20  C   UNL     1      -6.071  -1.606   3.559  0.00  0.00    +0.000 A 
ATOM     21  C   UNL     1      -5.533  -2.783   4.088  0.00  0.00    +0.000 A 
ATOM     22  C   UNL     1      -5.518  -2.968   5.467  0.00  0.00    +0.000 A 
ATOM     23  C   UNL     1      -6.029  -1.974   6.289  0.00  0.00    +0.000 A 
ATOM     24  C   UNL     1      -6.529  -0.828   5.693  0.00  0.00    +0.000 A 
ATOM     25  N   UNL     1      -6.557  -0.615   4.355  0.00  0.00    +0.000 NA
ENDBRANCH  18  20
ENDBRANCH   1  14
TORSDOF 4
