REMARK  Name = 
REMARK  8 active torsions:
REMARK  status: ('A' for Active; 'I' for Inactive)
REMARK    1  A    between atoms: C_1  and  O_2
REMARK    2  A    between atoms: O_2  and  C_3
REMARK    3  A    between atoms: C_6  and  C_7
REMARK    4  A    between atoms: C_7  and  N_8
REMARK    5  A    between atoms: C_9  and  C_11
REMARK    6  A    between atoms: C_22  and  C_23
REMARK    7  A    between atoms: C_23  and  N_24
REMARK    8  A    between atoms: C_25  and  C_27
REMARK                            x       y       z     vdW  Elec       q    Type
REMARK                         _______ _______ _______ _____ _____    ______ ____
ROOT
ATOM      1  C   UNL     1       3.102   0.280   1.146  0.00  0.00    +0.000 A 
ATOM      2  C   UNL     1       2.748  -0.212   2.408  0.00  0.00    +0.000 A 
ATOM      3  C   UNL     1       3.497   0.115   3.542  0.00  0.00    +0.000 A 
ATOM      4  C   UNL     1       4.625   0.931   3.438  0.00  0.00    +0.000 A 
ATOM      5  C   UNL     1       4.985   1.417   2.176  0.00  0.00    +0.000 A 
ATOM      6  C   UNL     1       4.212   1.137   1.032  0.00  0.00    +0.000 A 
ENDROOT
BRANCH   1   8
ATOM      7  C   UNL     1       1.353  -0.952   0.100  0.00  0.00    +0.000 C 
ATOM      8  O   UNL     1       2.425  -0.017  -0.011  0.00  0.00    +0.000 OA
ENDBRANCH   1   8
BRANCH   4   9
ATOM      9  C   UNL     1       5.453   1.264   4.652  0.00  0.00    +0.000 C 
BRANCH   9  10
ATOM     10  N   UNL     1       6.475   0.274   4.875  0.00  0.00    +0.000 N 
ATOM     11  C   UNL     1       7.295   0.333   5.972  0.00  0.00    +0.000 C 
ATOM     12  O   UNL     1       7.165   1.195   6.837  0.00  0.00    +0.000 OA
ATOM     13  H   UNL     1       6.763  -0.276   4.071  0.00  0.00    +0.000 HD
BRANCH  11  14
ATOM     14  C   UNL     1       8.300  -0.731   6.097  0.00  0.00    +0.000 A 
ATOM     15  C   UNL     1       8.797  -1.067   7.350  0.00  0.00    +0.000 A 
ATOM     16  S   UNL     1       9.929  -2.344   7.317  0.00  0.00    +0.000 S 
ATOM     17  C   UNL     1       9.832  -2.459   5.623  0.00  0.00    +0.000 A 
ATOM     18  N   UNL     1      10.593  -3.354   4.937  0.00  0.00    +0.000 NA
ATOM     19  C   UNL     1      10.445  -3.309   3.655  0.00  0.00    +0.000 A 
ATOM     20  N   UNL     1       9.594  -2.459   2.997  0.00  0.00    +0.000 N 
ATOM     21  C   UNL     1       8.773  -1.572   3.650  0.00  0.00    +0.000 A 
ATOM     22  O   UNL     1       7.968  -0.880   3.037  0.00  0.00    +0.000 OA
ATOM     23  C   UNL     1       8.926  -1.558   5.092  0.00  0.00    +0.000 A 
ATOM     24  H   UNL     1       9.509  -2.488   1.991  0.00  0.00    +0.000 HD
ENDBRANCH  11  14
ENDBRANCH   9  10
ENDBRANCH   4   9
BRANCH   6  25
ATOM     25  C   UNL     1       4.606   1.783  -0.273  0.00  0.00    +0.000 C 
BRANCH  25  26
ATOM     26  N   UNL     1       5.519   0.968  -1.029  0.00  0.00    +0.000 N 
ATOM     27  C   UNL     1       6.884   1.128  -0.989  0.00  0.00    +0.000 C 
ATOM     28  O   UNL     1       7.444   1.968  -0.297  0.00  0.00    +0.000 OA
ATOM     29  H   UNL     1       5.122   0.175  -1.508  0.00  0.00    +0.000 HD
BRANCH  27  30
ATOM     30  C   UNL     1       7.612   0.225  -1.842  0.00  0.00    +0.000 A 
ATOM     31  C   UNL     1       7.220  -0.715  -2.775  0.00  0.00    +0.000 A 
ATOM     32  C   UNL     1       8.416  -1.253  -3.283  0.00  0.00    +0.000 A 
ATOM     33  N   UNL     1       9.495  -0.714  -2.716  0.00  0.00    +0.000 NA
ATOM     34  N   UNL     1       8.982   0.199  -1.869  0.00  0.00    +0.000 N 
ATOM     35  H   UNL     1       9.615   0.784  -1.330  0.00  0.00    +0.000 HD
ENDBRANCH  27  30
ENDBRANCH  25  26
ENDBRANCH   6  25
TORSDOF 7
