REMARK  Name = 
REMARK  6 active torsions:
REMARK  status: ('A' for Active; 'I' for Inactive)
REMARK    1  A    between atoms: C_2  and  C_18
REMARK    2  A    between atoms: N_3  and  C_4
REMARK    3  A    between atoms: C_4  and  C_5
REMARK    4  A    between atoms: C_8  and  C_9
REMARK    5  A    between atoms: C_9  and  N_10
REMARK    6  A    between atoms: C_13  and  O_14
REMARK                            x       y       z     vdW  Elec       q    Type
REMARK                         _______ _______ _______ _____ _____    ______ ____
ROOT
ATOM      1  O   UNL     1       3.797  -0.369  -1.053  0.00  0.00    +0.000 OA
ATOM      2  C   UNL     1       3.549   0.465  -0.181  0.00  0.00    +0.000 C 
ATOM      3  N   UNL     1       2.833   1.601  -0.438  0.00  0.00    +0.000 N 
ATOM      4  H   UNL     1       2.673   2.285   0.291  0.00  0.00    +0.000 HD
ENDROOT
BRANCH   2   5
ATOM      5  C   UNL     1       4.038   0.330   1.184  0.00  0.00    +0.000 A 
ATOM      6  C   UNL     1       5.222  -0.336   1.477  0.00  0.00    +0.000 A 
ATOM      7  S   UNL     1       5.578  -0.356   3.149  0.00  0.00    +0.000 S 
ATOM      8  C   UNL     1       4.162   0.514   3.522  0.00  0.00    +0.000 A 
ATOM      9  N   UNL     1       3.849   0.839   4.804  0.00  0.00    +0.000 NA
ATOM     10  C   UNL     1       2.756   1.514   4.931  0.00  0.00    +0.000 A 
ATOM     11  N   UNL     1       1.941   1.896   3.896  0.00  0.00    +0.000 N 
ATOM     12  C   UNL     1       2.174   1.525   2.593  0.00  0.00    +0.000 A 
ATOM     13  O   UNL     1       1.380   1.829   1.707  0.00  0.00    +0.000 OA
ATOM     14  C   UNL     1       3.418   0.811   2.396  0.00  0.00    +0.000 A 
ATOM     15  H   UNL     1       1.087   2.408   4.060  0.00  0.00    +0.000 HD
ENDBRANCH   2   5
BRANCH   3  16
ATOM     16  C   UNL     1       2.233   1.855  -1.721  0.00  0.00    +0.000 C 
BRANCH  16  17
ATOM     17  C   UNL     1       3.140   2.658  -2.607  0.00  0.00    +0.000 A 
ATOM     18  C   UNL     1       4.060   1.995  -3.401  0.00  0.00    +0.000 A 
ATOM     19  N   UNL     1       4.902   2.646  -4.221  0.00  0.00    +0.000 NA
ATOM     20  C   UNL     1       4.829   4.003  -4.238  0.00  0.00    +0.000 A 
ATOM     21  C   UNL     1       3.904   4.666  -3.440  0.00  0.00    +0.000 A 
ATOM     22  N   UNL     1       3.053   4.017  -2.604  0.00  0.00    +0.000 NA
BRANCH  20  23
ATOM     23  C   UNL     1       5.784   4.781  -5.136  0.00  0.00    +0.000 C 
BRANCH  23  24
ATOM     24  N   UNL     1       6.746   4.001  -5.948  0.00  0.00    +0.000 NA
ATOM     25  C   UNL     1       6.084   3.076  -6.881  0.00  0.00    +0.000 C 
ATOM     26  C   UNL     1       6.820   1.744  -6.800  0.00  0.00    +0.000 C 
ATOM     27  C   UNL     1       8.066   2.029  -5.983  0.00  0.00    +0.000 C 
ATOM     28  C   UNL     1       7.695   3.231  -5.122  0.00  0.00    +0.000 C 
BRANCH  27  29
ATOM     29  O   UNL     1       9.148   2.353  -6.858  0.00  0.00    +0.000 OA
ATOM     30  H   UNL     1       8.920   3.215  -7.253  0.00  0.00    +0.000 HD
ENDBRANCH  27  29
ENDBRANCH  23  24
ENDBRANCH  20  23
ENDBRANCH  16  17
ENDBRANCH   3  16
TORSDOF 6
