REMARK  Name = 
REMARK  4 active torsions:
REMARK  status: ('A' for Active; 'I' for Inactive)
REMARK    1  A    between atoms: C_2  and  O_3
REMARK    2  A    between atoms: C_2  and  C_4
REMARK    3  A    between atoms: N_8  and  C_9
REMARK    4  A    between atoms: C_9  and  C_10
REMARK                            x       y       z     vdW  Elec       q    Type
REMARK                         _______ _______ _______ _____ _____    ______ ____
ROOT
ATOM      1  C   UNL     1       2.930  -0.608  -1.205  0.00  0.00    +0.000 A 
ATOM      2  C   UNL     1       4.264  -0.871  -0.908  0.00  0.00    +0.000 A 
ATOM      3  C   UNL     1       5.016  -1.635  -1.795  0.00  0.00    +0.000 A 
ATOM      4  C   UNL     1       4.428  -2.130  -2.958  0.00  0.00    +0.000 A 
ATOM      5  N   UNL     1       5.234  -2.782  -3.872  0.00  0.00    +0.000 N 
ATOM      6  N   UNL     1       3.132  -1.882  -3.247  0.00  0.00    +0.000 NA
ATOM      7  C   UNL     1       2.404  -1.145  -2.364  0.00  0.00    +0.000 A 
ATOM      8  H   UNL     1       5.851  -3.497  -3.512  0.00  0.00    +0.000 HD
ENDROOT
BRANCH   1  10
ATOM      9  O   UNL     1       0.903   0.019  -0.155  0.00  0.00    +0.000 OA
ATOM     10  C   UNL     1       2.088   0.210  -0.308  0.00  0.00    +0.000 C 
BRANCH  10  11
ATOM     11  O   UNL     1       2.779   1.196   0.307  0.00  0.00    +0.000 OA
ATOM     12  H   UNL     1       3.671   1.370  -0.038  0.00  0.00    +0.000 HD
ENDBRANCH  10  11
ENDBRANCH   1  10
BRANCH   5  13
ATOM     13  C   UNL     1       4.856  -2.863  -5.268  0.00  0.00    +0.000 C 
BRANCH  13  14
ATOM     14  C   UNL     1       6.038  -2.394  -6.091  0.00  0.00    +0.000 A 
ATOM     15  C   UNL     1       7.017  -3.297  -6.532  0.00  0.00    +0.000 A 
ATOM     16  C   UNL     1       8.116  -2.847  -7.266  0.00  0.00    +0.000 A 
ATOM     17  C   UNL     1       8.252  -1.493  -7.565  0.00  0.00    +0.000 A 
ATOM     18  C   UNL     1       7.290  -0.584  -7.127  0.00  0.00    +0.000 A 
ATOM     19  C   UNL     1       6.192  -1.030  -6.389  0.00  0.00    +0.000 A 
ENDBRANCH  13  14
ENDBRANCH   5  13
TORSDOF 4
