REMARK  Name = 
REMARK  5 active torsions:
REMARK  status: ('A' for Active; 'I' for Inactive)
REMARK    1  A    between atoms: C_2  and  C_3
REMARK    2  A    between atoms: C_6  and  N_7
REMARK    3  A    between atoms: N_7  and  C_8
REMARK    4  A    between atoms: C_8  and  C_9
REMARK    5  A    between atoms: C_13  and  C_14
REMARK                            x       y       z     vdW  Elec       q    Type
REMARK                         _______ _______ _______ _____ _____    ______ ____
ROOT
ATOM      1  C   UNL     1      10.046  -0.853  -1.063  0.00  0.00    +0.000 A 
ATOM      2  C   UNL     1      10.544   0.451  -1.186  0.00  0.00    +0.000 A 
ATOM      3  C   UNL     1      11.851   0.669  -1.627  0.00  0.00    +0.000 A 
ATOM      4  C   UNL     1      12.673  -0.412  -1.963  0.00  0.00    +0.000 A 
ATOM      5  C   UNL     1      12.209  -1.733  -1.867  0.00  0.00    +0.000 A 
ATOM      6  C   UNL     1      10.893  -1.926  -1.398  0.00  0.00    +0.000 A 
ENDROOT
BRANCH   5   7
ATOM      7  C   UNL     1      13.042  -2.878  -2.293  0.00  0.00    +0.000 A 
ATOM      8  C   UNL     1      12.962  -4.132  -1.673  0.00  0.00    +0.000 A 
ATOM      9  N   UNL     1      13.652  -5.241  -2.049  0.00  0.00    +0.000 NA
ATOM     10  C   UNL     1      14.483  -5.099  -3.104  0.00  0.00    +0.000 A 
ATOM     11  C   UNL     1      14.654  -3.907  -3.779  0.00  0.00    +0.000 A 
ATOM     12  F   UNL     1      15.491  -3.826  -4.821  0.00  0.00    +0.000 F 
ATOM     13  C   UNL     1      13.934  -2.790  -3.374  0.00  0.00    +0.000 A 
ENDBRANCH   5   7
BRANCH   1  14
ATOM     14  C   UNL     1       8.599  -1.119  -0.688  0.00  0.00    +0.000 C 
BRANCH  14  15
ATOM     15  N   UNL     1       8.509  -1.994   0.470  0.00  0.00    +0.000 N 
ATOM     16  H   UNL     1       9.138  -1.760   1.234  0.00  0.00    +0.000 HD
BRANCH  15  20
ATOM     17  C   UNL     1       4.904  -3.039   2.151  0.00  0.00    +0.000 A 
ATOM     18  C   UNL     1       6.040  -2.812   2.904  0.00  0.00    +0.000 A 
ATOM     19  N   UNL     1       7.230  -2.439   2.354  0.00  0.00    +0.000 NA
ATOM     20  C   UNL     1       7.269  -2.300   1.013  0.00  0.00    +0.000 A 
ATOM     21  C   UNL     1       6.111  -2.545   0.266  0.00  0.00    +0.000 A 
ATOM     22  N   UNL     1       4.911  -2.902   0.804  0.00  0.00    +0.000 NA
BRANCH  17  24
ATOM     23  N   UNL     1       2.685  -3.742   3.310  0.00  0.00    +0.000 NA
ATOM     24  C   UNL     1       3.668  -3.429   2.771  0.00  0.00    +0.000 C 
ENDBRANCH  17  24
ENDBRANCH  15  20
ENDBRANCH  14  15
ENDBRANCH   1  14
TORSDOF 5
