REMARK  Name = 
REMARK  12 active torsions:
REMARK  status: ('A' for Active; 'I' for Inactive)
REMARK    1  A    between atoms: C_1  and  C_2
REMARK    2  A    between atoms: C_2  and  N_3
REMARK    3  A    between atoms: N_3  and  C_4
REMARK    4  A    between atoms: C_4  and  C_5
REMARK    5  A    between atoms: C_6  and  C_8
REMARK    6  A    between atoms: C_11  and  O_12
REMARK    7  A    between atoms: O_12  and  C_13
REMARK    8  A    between atoms: C_13  and  C_14
REMARK    9  A    between atoms: C_14  and  C_15
REMARK   10  A    between atoms: C_14  and  C_16
REMARK   11  A    between atoms: C_14  and  C_17
REMARK   12  A    between atoms: C_21  and  C_22
REMARK                            x       y       z     vdW  Elec       q    Type
REMARK                         _______ _______ _______ _____ _____    ______ ____
ROOT
ATOM      1  C   UNL     1       4.990   2.967  -0.804  0.00  0.00    +0.000 A 
ATOM      2  C   UNL     1       4.635   4.143  -0.138  0.00  0.00    +0.000 A 
ATOM      3  C   UNL     1       5.047   5.375  -0.640  0.00  0.00    +0.000 A 
ATOM      4  C   UNL     1       5.883   5.383  -1.740  0.00  0.00    +0.000 A 
ATOM      5  N   UNL     1       6.356   4.263  -2.328  0.00  0.00    +0.000 NA
ATOM      6  C   UNL     1       5.904   3.079  -1.843  0.00  0.00    +0.000 A 
ENDROOT
BRANCH   1   8
ATOM      7  N   UNL     1       3.081   1.448  -0.162  0.00  0.00    +0.000 N 
ATOM      8  C   UNL     1       4.444   1.619  -0.489  0.00  0.00    +0.000 C 
ATOM      9  O   UNL     1       5.225   0.671  -0.579  0.00  0.00    +0.000 OA
BRANCH   7  11
ATOM     10  C   UNL     1       2.321  -0.839  -0.808  0.00  0.00    +0.000 C 
ATOM     11  C   UNL     1       2.688   0.119   0.318  0.00  0.00    +0.000 C 
ENDBRANCH   7  11
BRANCH   7  12
ATOM     12  C   UNL     1       2.119   2.552  -0.053  0.00  0.00    +0.000 C 
ATOM     13  C   UNL     1       0.675   2.309  -0.443  0.00  0.00    +0.000 C 
ENDBRANCH   7  12
ENDBRANCH   1   8
BRANCH   4  14
ATOM     14  O   UNL     1       6.259   6.619  -2.224  0.00  0.00    +0.000 OA
BRANCH  14  15
ATOM     15  C   UNL     1       6.691   6.549  -3.589  0.00  0.00    +0.000 C 
BRANCH  15  16
ATOM     16  C   UNL     1       7.187   7.932  -4.097  0.00  0.00    +0.000 C 
ATOM     17  C   UNL     1       6.046   8.962  -3.917  0.00  0.00    +0.000 C 
ATOM     18  C   UNL     1       8.390   8.357  -3.222  0.00  0.00    +0.000 C 
BRANCH  16  19
ATOM     19  C   UNL     1       7.611   7.906  -5.580  0.00  0.00    +0.000 A 
ATOM     20  C   UNL     1       7.543   6.747  -6.377  0.00  0.00    +0.000 A 
ATOM     21  C   UNL     1       7.910   6.765  -7.727  0.00  0.00    +0.000 A 
ATOM     22  C   UNL     1       8.358   7.939  -8.319  0.00  0.00    +0.000 A 
ATOM     23  C   UNL     1       8.443   9.099  -7.551  0.00  0.00    +0.000 A 
ATOM     24  C   UNL     1       8.078   9.076  -6.198  0.00  0.00    +0.000 A 
BRANCH  23  25
ATOM     25  C   UNL     1       8.899  10.318  -8.140  0.00  0.00    +0.000 C 
ATOM     26  N   UNL     1       9.265  11.307  -8.618  0.00  0.00    +0.000 NA
ENDBRANCH  23  25
ENDBRANCH  16  19
ENDBRANCH  15  16
ENDBRANCH  14  15
ENDBRANCH   4  14
TORSDOF 8
