REMARK  Name = 
REMARK  8 active torsions:
REMARK  status: ('A' for Active; 'I' for Inactive)
REMARK    1  A    between atoms: C_2  and  C_4
REMARK    2  A    between atoms: C_7  and  N_8
REMARK    3  A    between atoms: N_8  and  C_9
REMARK    4  A    between atoms: C_9  and  C_10
REMARK    5  A    between atoms: C_10  and  C_13
REMARK    6  A    between atoms: C_15  and  O_16
REMARK    7  A    between atoms: O_16  and  C_17
REMARK    8  A    between atoms: C_22  and  C_23
REMARK                            x       y       z     vdW  Elec       q    Type
REMARK                         _______ _______ _______ _____ _____    ______ ____
ROOT
ATOM      1  C   UNL     1       5.913   0.741  -7.226  0.00  0.00    +0.000 C 
ATOM      2  F   UNL     1       4.974  -0.229  -7.014  0.00  0.00    +0.000 F 
ATOM      3  F   UNL     1       6.005   1.412  -6.035  0.00  0.00    +0.000 F 
ENDROOT
BRANCH   1   4
ATOM      4  C   UNL     1       5.519   1.661  -8.367  0.00  0.00    +0.000 A 
ATOM      5  C   UNL     1       4.824   1.161  -9.485  0.00  0.00    +0.000 A 
ATOM      6  C   UNL     1       4.453   2.016 -10.522  0.00  0.00    +0.000 A 
ATOM      7  C   UNL     1       4.750   3.378 -10.443  0.00  0.00    +0.000 A 
ATOM      8  C   UNL     1       5.437   3.901  -9.340  0.00  0.00    +0.000 A 
ATOM      9  C   UNL     1       5.830   3.030  -8.312  0.00  0.00    +0.000 A 
BRANCH   8  10
ATOM     10  C   UNL     1       5.742   5.377  -9.241  0.00  0.00    +0.000 C 
ATOM     11  F   UNL     1       5.242   6.110 -10.273  0.00  0.00    +0.000 F 
ATOM     12  F   UNL     1       5.238   5.934  -8.106  0.00  0.00    +0.000 F 
ATOM     13  F   UNL     1       7.080   5.625  -9.218  0.00  0.00    +0.000 F 
ENDBRANCH   8  10
BRANCH   6  14
ATOM     14  O   UNL     1       3.753   1.644 -11.639  0.00  0.00    +0.000 OA
BRANCH  14  15
ATOM     15  C   UNL     1       3.823   0.273 -12.089  0.00  0.00    +0.000 C 
ATOM     16  C   UNL     1       5.152  -0.232 -12.669  0.00  0.00    +0.000 C 
ATOM     17  O   UNL     1       4.500  -0.701 -13.874  0.00  0.00    +0.000 OA
ATOM     18  C   UNL     1       3.299   0.024 -13.513  0.00  0.00    +0.000 C 
ENDBRANCH  14  15
ENDBRANCH   6  14
ENDBRANCH   1   4
BRANCH   1  19
ATOM     19  C   UNL     1       7.284   0.064  -7.492  0.00  0.00    +0.000 C 
BRANCH  19  20
ATOM     20  N   UNL     1       7.687  -0.844  -6.404  0.00  0.00    +0.000 N 
ATOM     21  H   UNL     1       7.377  -0.551  -5.476  0.00  0.00    +0.000 HD
BRANCH  20  25
ATOM     22  C   UNL     1      11.142  -3.146  -6.406  0.00  0.00    +0.000 A 
ATOM     23  C   UNL     1      10.924  -2.317  -7.496  0.00  0.00    +0.000 A 
ATOM     24  C   UNL     1       9.780  -1.517  -7.503  0.00  0.00    +0.000 A 
ATOM     25  C   UNL     1       8.896  -1.528  -6.423  0.00  0.00    +0.000 A 
ATOM     26  C   UNL     1       9.218  -2.410  -5.382  0.00  0.00    +0.000 A 
ATOM     27  N   UNL     1      10.310  -3.215  -5.334  0.00  0.00    +0.000 NA
BRANCH  22  29
ATOM     28  N   UNL     1      12.409  -4.912  -5.333  0.00  0.00    +0.000 N 
ATOM     29  C   UNL     1      12.333  -4.053  -6.396  0.00  0.00    +0.000 C 
ATOM     30  O   UNL     1      13.178  -4.046  -7.282  0.00  0.00    +0.000 OA
ATOM     31  H   UNL     1      13.165  -5.578  -5.282  0.00  0.00    +0.000 HD
ATOM     32  H   UNL     1      11.670  -4.912  -4.638  0.00  0.00    +0.000 HD
ENDBRANCH  22  29
ENDBRANCH  20  25
ENDBRANCH  19  20
ENDBRANCH   1  19
TORSDOF 8
