REMARK  Name = 
REMARK  7 active torsions:
REMARK  status: ('A' for Active; 'I' for Inactive)
REMARK    1  A    between atoms: C_1  and  O_2
REMARK    2  A    between atoms: O_2  and  C_3
REMARK    3  A    between atoms: C_5  and  O_6
REMARK    4  A    between atoms: O_6  and  C_7
REMARK    5  A    between atoms: C_11  and  C_12
REMARK    6  A    between atoms: C_12  and  N_13
REMARK    7  A    between atoms: C_14  and  C_16
REMARK                            x       y       z     vdW  Elec       q    Type
REMARK                         _______ _______ _______ _____ _____    ______ ____
ROOT
ATOM      1  C   UNL     1       1.095   3.062  -5.207  0.00  0.00    +0.000 C 
ENDROOT
BRANCH   1   6
ATOM      2  C   UNL     1       1.993  -0.615  -4.999  0.00  0.00    +0.000 A 
ATOM      3  C   UNL     1       0.848  -1.143  -5.580  0.00  0.00    +0.000 A 
ATOM      4  N   UNL     1      -0.174  -0.396  -6.061  0.00  0.00    +0.000 NA
ATOM      5  C   UNL     1      -0.054   0.945  -5.939  0.00  0.00    +0.000 A 
ATOM      6  C   UNL     1       1.052   1.575  -5.377  0.00  0.00    +0.000 A 
ATOM      7  C   UNL     1       2.118   0.772  -4.965  0.00  0.00    +0.000 A 
BRANCH   2   8
ATOM      8  O   UNL     1       2.932  -1.501  -4.537  0.00  0.00    +0.000 OA
BRANCH   8  11
ATOM      9  C   UNL     1       4.214  -0.102  -1.384  0.00  0.00    +0.000 A 
ATOM     10  C   UNL     1       3.297  -0.379  -2.382  0.00  0.00    +0.000 A 
ATOM     11  C   UNL     1       3.714  -1.167  -3.453  0.00  0.00    +0.000 A 
ATOM     12  C   UNL     1       4.989  -1.721  -3.436  0.00  0.00    +0.000 A 
ATOM     13  C   UNL     1       5.821  -1.412  -2.374  0.00  0.00    +0.000 A 
ATOM     14  N   UNL     1       5.468  -0.600  -1.357  0.00  0.00    +0.000 NA
BRANCH   9  16
ATOM     15  C   UNL     1       4.791   0.995   0.599  0.00  0.00    +0.000 C 
ATOM     16  O   UNL     1       3.798   0.771  -0.397  0.00  0.00    +0.000 OA
ENDBRANCH   9  16
ENDBRANCH   8  11
ENDBRANCH   2   8
ENDBRANCH   1   6
BRANCH   1  17
ATOM     17  N   UNL     1       1.704   3.708  -6.335  0.00  0.00    +0.000 N 
ATOM     18  C   UNL     1       0.965   4.263  -7.345  0.00  0.00    +0.000 C 
ATOM     19  O   UNL     1      -0.263   4.253  -7.335  0.00  0.00    +0.000 OA
ATOM     20  H   UNL     1       2.703   3.574  -6.457  0.00  0.00    +0.000 HD
BRANCH  18  21
ATOM     21  C   UNL     1       1.719   4.931  -8.410  0.00  0.00    +0.000 A 
ATOM     22  C   UNL     1       1.091   5.893  -9.190  0.00  0.00    +0.000 A 
ATOM     23  S   UNL     1       2.112   6.597 -10.358  0.00  0.00    +0.000 S 
ATOM     24  C   UNL     1       3.418   5.613  -9.891  0.00  0.00    +0.000 A 
ATOM     25  N   UNL     1       4.616   5.697 -10.527  0.00  0.00    +0.000 NA
ATOM     26  C   UNL     1       5.509   4.868 -10.095  0.00  0.00    +0.000 A 
ATOM     27  N   UNL     1       5.315   3.973  -9.078  0.00  0.00    +0.000 N 
ATOM     28  C   UNL     1       4.142   3.896  -8.364  0.00  0.00    +0.000 A 
ATOM     29  O   UNL     1       4.040   3.160  -7.386  0.00  0.00    +0.000 OA
ATOM     30  C   UNL     1       3.089   4.776  -8.839  0.00  0.00    +0.000 A 
ATOM     31  H   UNL     1       6.066   3.370  -8.771  0.00  0.00    +0.000 HD
ENDBRANCH  18  21
ENDBRANCH   1  17
TORSDOF 6
