REMARK  Name = 
REMARK  11 active torsions:
REMARK  status: ('A' for Active; 'I' for Inactive)
REMARK    1  A    between atoms: C_1  and  C_2
REMARK    2  A    between atoms: C_2  and  C_3
REMARK    3  A    between atoms: C_5  and  N_6
REMARK    4  A    between atoms: N_6  and  C_7
REMARK    5  A    between atoms: C_9  and  C_10
REMARK    6  A    between atoms: C_10  and  C_11
REMARK    7  A    between atoms: C_10  and  C_12
REMARK    8  A    between atoms: C_10  and  C_13
REMARK    9  A    between atoms: C_13  and  N_14
REMARK   10  A    between atoms: C_18  and  S_19
REMARK   11  A    between atoms: S_19  and  N_20
REMARK                            x       y       z     vdW  Elec       q    Type
REMARK                         _______ _______ _______ _____ _____    ______ ____
ROOT
ATOM      1  C   UNL     1       6.919  -4.662   0.847  0.00  0.00    +0.000 C 
ATOM      2  C   UNL     1       5.768  -4.975   1.834  0.00  0.00    +0.000 C 
ATOM      3  C   UNL     1       6.450  -5.047  -0.580  0.00  0.00    +0.000 C 
ENDROOT
BRANCH   1   6
ATOM      4  C   UNL     1       6.410  -0.846   0.613  0.00  0.00    +0.000 A 
ATOM      5  C   UNL     1       6.213  -2.232   0.561  0.00  0.00    +0.000 A 
ATOM      6  C   UNL     1       7.235  -3.155   0.864  0.00  0.00    +0.000 A 
ATOM      7  C   UNL     1       8.503  -2.633   1.169  0.00  0.00    +0.000 A 
ATOM      8  C   UNL     1       8.716  -1.257   1.212  0.00  0.00    +0.000 A 
ATOM      9  F   UNL     1       9.938  -0.793   1.512  0.00  0.00    +0.000 F 
ATOM     10  C   UNL     1       7.682  -0.372   0.948  0.00  0.00    +0.000 A 
ATOM     11  F   UNL     1       7.914   0.951   0.987  0.00  0.00    +0.000 F 
BRANCH   4  12
ATOM     12  N   UNL     1       5.381   0.054   0.289  0.00  0.00    +0.000 N 
ATOM     13  H   UNL     1       5.266   0.809   0.961  0.00  0.00    +0.000 HD
BRANCH  12  18
ATOM     14  C   UNL     1       3.120   0.931  -3.547  0.00  0.00    +0.000 C 
ATOM     15  C   UNL     1       4.098   0.872  -2.381  0.00  0.00    +0.000 C 
ATOM     16  C   UNL     1       5.239   1.882  -2.569  0.00  0.00    +0.000 C 
ATOM     17  C   UNL     1       4.582  -0.550  -1.990  0.00  0.00    +0.000 C 
ATOM     18  C   UNL     1       4.344  -0.172  -0.576  0.00  0.00    +0.000 C 
ATOM     19  C   UNL     1       3.443   0.926  -0.976  0.00  0.00    +0.000 C 
ENDBRANCH  12  18
ENDBRANCH   4  12
ENDBRANCH   1   6
BRANCH   1  20
ATOM     20  C   UNL     1       8.124  -5.597   1.173  0.00  0.00    +0.000 C 
BRANCH  20  21
ATOM     21  N   UNL     1       8.672  -5.384   2.520  0.00  0.00    +0.000 N 
ATOM     22  C   UNL     1       9.761  -6.221   2.813  0.00  0.00    +0.000 A 
ATOM     23  C   UNL     1      10.381  -6.094   4.054  0.00  0.00    +0.000 A 
ATOM     24  C   UNL     1      11.450  -6.933   4.372  0.00  0.00    +0.000 A 
ATOM     25  C   UNL     1      11.875  -7.861   3.430  0.00  0.00    +0.000 A 
ATOM     26  C   UNL     1      11.224  -7.917   2.215  0.00  0.00    +0.000 A 
ATOM     27  N   UNL     1      10.191  -7.108   1.892  0.00  0.00    +0.000 NA
ATOM     28  H   UNL     1       7.977  -5.490   3.253  0.00  0.00    +0.000 HD
BRANCH  25  29
ATOM     29  S   UNL     1      13.144  -9.012   3.768  0.00  0.00    +0.000 S 
ATOM     30  O   UNL     1      13.274  -9.162   5.199  0.00  0.00    +0.000 OA
ATOM     31  O   UNL     1      13.008 -10.145   2.883  0.00  0.00    +0.000 OA
BRANCH  29  32
ATOM     32  N   UNL     1      14.516  -8.193   3.264  0.00  0.00    +0.000 NA
ATOM     33  H   UNL     1      15.145  -8.054   4.055  0.00  0.00    +0.000 HD
ATOM     34  H   UNL     1      14.947  -8.681   2.477  0.00  0.00    +0.000 HD
ENDBRANCH  29  32
ENDBRANCH  25  29
ENDBRANCH  20  21
ENDBRANCH   1  20
TORSDOF 7
