REMARK  Name = 
REMARK  3 active torsions:
REMARK  status: ('A' for Active; 'I' for Inactive)
REMARK    1  A    between atoms: C_2  and  C_4
REMARK    2  A    between atoms: N_8  and  C_9
REMARK    3  A    between atoms: C_9  and  C_10
REMARK                            x       y       z     vdW  Elec       q    Type
REMARK                         _______ _______ _______ _____ _____    ______ ____
ROOT
ATOM      1  C   UNL     1       3.174  -0.891   1.059  0.00  0.00    +0.000 A 
ATOM      2  C   UNL     1       3.663   0.082   1.923  0.00  0.00    +0.000 A 
ATOM      3  C   UNL     1       4.438  -0.312   3.014  0.00  0.00    +0.000 A 
ATOM      4  C   UNL     1       4.678  -1.667   3.244  0.00  0.00    +0.000 A 
ATOM      5  N   UNL     1       5.391  -2.001   4.394  0.00  0.00    +0.000 N 
ATOM      6  N   UNL     1       4.205  -2.619   2.418  0.00  0.00    +0.000 NA
ATOM      7  C   UNL     1       3.469  -2.217   1.347  0.00  0.00    +0.000 A 
ATOM      8  H   UNL     1       6.339  -1.643   4.343  0.00  0.00    +0.000 HD
ENDROOT
BRANCH   1  10
ATOM      9  N   UNL     1       2.434   0.675  -0.648  0.00  0.00    +0.000 N 
ATOM     10  C   UNL     1       2.332  -0.578  -0.114  0.00  0.00    +0.000 C 
ATOM     11  O   UNL     1       1.591  -1.418  -0.610  0.00  0.00    +0.000 OA
ATOM     12  H   UNL     1       1.915   0.846  -1.502  0.00  0.00    +0.000 HD
ATOM     13  H   UNL     1       3.180   1.316  -0.421  0.00  0.00    +0.000 HD
ENDBRANCH   1  10
BRANCH   5  14
ATOM     14  C   UNL     1       5.337  -3.391   4.815  0.00  0.00    +0.000 C 
BRANCH  14  15
ATOM     15  C   UNL     1       5.746  -3.445   6.271  0.00  0.00    +0.000 A 
ATOM     16  C   UNL     1       5.053  -2.676   7.217  0.00  0.00    +0.000 A 
ATOM     17  C   UNL     1       5.443  -2.731   8.546  0.00  0.00    +0.000 A 
ATOM     18  N   UNL     1       6.466  -3.493   8.989  0.00  0.00    +0.000 NA
ATOM     19  C   UNL     1       7.116  -4.236   8.063  0.00  0.00    +0.000 A 
ATOM     20  C   UNL     1       6.796  -4.247   6.712  0.00  0.00    +0.000 A 
ENDBRANCH  14  15
ENDBRANCH   5  14
TORSDOF 3
