REMARK  Name = 
REMARK  6 active torsions:
REMARK  status: ('A' for Active; 'I' for Inactive)
REMARK    1  A    between atoms: C_2  and  C_20
REMARK    2  A    between atoms: N_3  and  C_4
REMARK    3  A    between atoms: C_4  and  C_5
REMARK    4  A    between atoms: C_8  and  C_9
REMARK    5  A    between atoms: C_9  and  N_10
REMARK    6  A    between atoms: C_11  and  C_13
REMARK                            x       y       z     vdW  Elec       q    Type
REMARK                         _______ _______ _______ _____ _____    ______ ____
ROOT
ATOM      1  C   UNL     1       2.191  -2.521   0.526  0.00  0.00    +0.000 C 
ENDROOT
BRANCH   1   2
ATOM      2  C   UNL     1       3.160  -3.633   0.839  0.00  0.00    +0.000 A 
ATOM      3  C   UNL     1       4.436  -3.349   1.345  0.00  0.00    +0.000 A 
ATOM      4  C   UNL     1       5.339  -4.379   1.633  0.00  0.00    +0.000 A 
ATOM      5  C   UNL     1       4.995  -5.718   1.401  0.00  0.00    +0.000 A 
ATOM      6  C   UNL     1       3.720  -6.002   0.893  0.00  0.00    +0.000 A 
ATOM      7  C   UNL     1       2.817  -4.971   0.604  0.00  0.00    +0.000 A 
BRANCH   5   8
ATOM      8  C   UNL     1       5.979  -6.827   1.673  0.00  0.00    +0.000 C 
BRANCH   8   9
ATOM      9  N   UNL     1       5.854  -7.376   2.999  0.00  0.00    +0.000 N 
ATOM     10  C   UNL     1       6.619  -8.449   3.401  0.00  0.00    +0.000 C 
ATOM     11  O   UNL     1       7.410  -9.029   2.660  0.00  0.00    +0.000 OA
ATOM     12  H   UNL     1       5.304  -6.902   3.710  0.00  0.00    +0.000 HD
BRANCH  10  13
ATOM     13  C   UNL     1       6.396  -8.870   4.864  0.00  0.00    +0.000 C 
ATOM     14  C   UNL     1       5.997 -10.337   4.961  0.00  0.00    +0.000 C 
ATOM     15  C   UNL     1       5.038 -10.353   6.125  0.00  0.00    +0.000 C 
ATOM     16  C   UNL     1       4.362  -9.010   5.990  0.00  0.00    +0.000 C 
ATOM     17  O   UNL     1       5.361  -8.104   5.508  0.00  0.00    +0.000 OA
ENDBRANCH  10  13
ENDBRANCH   8   9
ENDBRANCH   5   8
ENDBRANCH   1   2
BRANCH   1  20
ATOM     18  O   UNL     1       0.556  -0.639  -0.711  0.00  0.00    +0.000 OA
ATOM     19  C   UNL     1       1.536  -1.050  -1.327  0.00  0.00    +0.000 C 
ATOM     20  N   UNL     1       2.346  -2.041  -0.826  0.00  0.00    +0.000 N 
ATOM     21  H   UNL     1       3.246  -2.212  -1.265  0.00  0.00    +0.000 HD
BRANCH  19  22
ATOM     22  C   UNL     1       1.877  -0.531  -2.657  0.00  0.00    +0.000 A 
ATOM     23  C   UNL     1       0.900   0.062  -3.444  0.00  0.00    +0.000 A 
ATOM     24  S   UNL     1       1.472   0.594  -4.963  0.00  0.00    +0.000 S 
ATOM     25  C   UNL     1       3.059   0.095  -4.601  0.00  0.00    +0.000 A 
ATOM     26  N   UNL     1       4.074   0.290  -5.484  0.00  0.00    +0.000 NA
ATOM     27  C   UNL     1       5.231  -0.101  -5.063  0.00  0.00    +0.000 A 
ATOM     28  N   UNL     1       5.462  -0.676  -3.840  0.00  0.00    +0.000 N 
ATOM     29  C   UNL     1       4.463  -0.928  -2.934  0.00  0.00    +0.000 A 
ATOM     30  O   UNL     1       4.697  -1.497  -1.872  0.00  0.00    +0.000 OA
ATOM     31  C   UNL     1       3.144  -0.489  -3.349  0.00  0.00    +0.000 A 
ATOM     32  H   UNL     1       6.390  -0.973  -3.576  0.00  0.00    +0.000 HD
ENDBRANCH  19  22
ENDBRANCH   1  20
TORSDOF 6
