REMARK  Name = 
REMARK  9 active torsions:
REMARK  status: ('A' for Active; 'I' for Inactive)
REMARK    1  A    between atoms: C_1  and  O_2
REMARK    2  A    between atoms: O_2  and  C_3
REMARK    3  A    between atoms: C_10  and  C_11
REMARK    4  A    between atoms: N_13  and  C_14
REMARK    5  A    between atoms: C_14  and  C_15
REMARK    6  A    between atoms: C_18  and  C_19
REMARK    7  A    between atoms: C_19  and  O_20
REMARK    8  A    between atoms: O_20  and  C_21
REMARK    9  A    between atoms: C_21  and  C_22
REMARK                            x       y       z     vdW  Elec       q    Type
REMARK                         _______ _______ _______ _____ _____    ______ ____
ROOT
ATOM      1  C   UNL     1       2.613   3.352  -0.208  0.00  0.00    +0.000 C 
ENDROOT
BRANCH   1   2
ATOM      2  C   UNL     1       1.382   3.114  -1.049  0.00  0.00    +0.000 A 
ATOM      3  C   UNL     1       1.156   1.869  -1.650  0.00  0.00    +0.000 A 
ATOM      4  C   UNL     1      -0.028   1.619  -2.354  0.00  0.00    +0.000 A 
ATOM      5  C   UNL     1      -1.009   2.612  -2.485  0.00  0.00    +0.000 A 
ATOM      6  C   UNL     1      -0.754   3.878  -1.941  0.00  0.00    +0.000 A 
ATOM      7  C   UNL     1       0.431   4.127  -1.234  0.00  0.00    +0.000 A 
BRANCH   5   8
ATOM      8  C   UNL     1      -2.309   2.314  -3.194  0.00  0.00    +0.000 C 
BRANCH   8   9
ATOM      9  O   UNL     1      -2.952   1.216  -2.546  0.00  0.00    +0.000 OA
BRANCH   9  10
ATOM     10  C   UNL     1      -4.207   0.895  -3.147  0.00  0.00    +0.000 C 
BRANCH  10  11
ATOM     11  C   UNL     1      -4.865  -0.257  -2.421  0.00  0.00    +0.000 A 
ATOM     12  C   UNL     1      -4.716  -0.423  -1.037  0.00  0.00    +0.000 A 
ATOM     13  C   UNL     1      -5.359  -1.468  -0.369  0.00  0.00    +0.000 A 
ATOM     14  C   UNL     1      -6.170  -2.354  -1.074  0.00  0.00    +0.000 A 
ATOM     15  C   UNL     1      -6.343  -2.192  -2.448  0.00  0.00    +0.000 A 
ATOM     16  C   UNL     1      -5.700  -1.146  -3.117  0.00  0.00    +0.000 A 
ENDBRANCH  10  11
ENDBRANCH   9  10
ENDBRANCH   8   9
ENDBRANCH   5   8
ENDBRANCH   1   2
BRANCH   1  19
ATOM     17  C   UNL     1       4.918   4.188  -0.418  0.00  0.00    +0.000 C 
ATOM     18  O   UNL     1       5.132   3.995   0.778  0.00  0.00    +0.000 OA
ATOM     19  N   UNL     1       3.702   3.895  -0.978  0.00  0.00    +0.000 N 
ATOM     20  H   UNL     1       3.543   4.048  -1.963  0.00  0.00    +0.000 HD
BRANCH  17  28
ATOM     21  C   UNL     1       5.036   4.887  -3.783  0.00  0.00    +0.000 A 
ATOM     22  N   UNL     1       5.312   5.323  -5.028  0.00  0.00    +0.000 NA
ATOM     23  C   UNL     1       6.499   5.900  -5.238  0.00  0.00    +0.000 A 
ATOM     24  N   UNL     1       7.467   6.093  -4.347  0.00  0.00    +0.000 NA
ATOM     25  C   UNL     1       7.142   5.657  -3.117  0.00  0.00    +0.000 A 
ATOM     26  S   UNL     1       8.265   5.803  -1.852  0.00  0.00    +0.000 S 
ATOM     27  C   UNL     1       7.179   5.111  -0.743  0.00  0.00    +0.000 A 
ATOM     28  C   UNL     1       5.952   4.761  -1.297  0.00  0.00    +0.000 A 
ATOM     29  C   UNL     1       5.948   5.062  -2.727  0.00  0.00    +0.000 A 
BRANCH  21  31
ATOM     30  C   UNL     1       3.272   3.669  -4.721  0.00  0.00    +0.000 C 
ATOM     31  O   UNL     1       3.815   4.289  -3.559  0.00  0.00    +0.000 OA
ENDBRANCH  21  31
ENDBRANCH  17  28
ENDBRANCH   1  19
TORSDOF 8
