REMARK  Name = 
REMARK  9 active torsions:
REMARK  status: ('A' for Active; 'I' for Inactive)
REMARK    1  A    between atoms: C_1  and  C_2
REMARK    2  A    between atoms: C_7  and  C_8
REMARK    3  A    between atoms: C_12  and  C_13
REMARK    4  A    between atoms: C_13  and  C_14
REMARK    5  A    between atoms: C_13  and  C_15
REMARK    6  A    between atoms: C_13  and  C_16
REMARK    7  A    between atoms: C_16  and  N_17
REMARK    8  A    between atoms: N_17  and  C_18
REMARK    9  A    between atoms: C_21  and  C_22
REMARK                            x       y       z     vdW  Elec       q    Type
REMARK                         _______ _______ _______ _____ _____    ______ ____
ROOT
ATOM      1  C   UNL     1       3.641  -5.806   1.989  0.00  0.00    +0.000 C 
ATOM      2  C   UNL     1       4.417  -6.184   0.710  0.00  0.00    +0.000 C 
ATOM      3  C   UNL     1       4.669  -5.465   3.098  0.00  0.00    +0.000 C 
ENDROOT
BRANCH   1   8
ATOM      4  C   UNL     1       0.582  -3.813   0.713  0.00  0.00    +0.000 A 
ATOM      5  C   UNL     1       0.713  -2.640   1.463  0.00  0.00    +0.000 A 
ATOM      6  C   UNL     1       1.847  -2.401   2.227  0.00  0.00    +0.000 A 
ATOM      7  C   UNL     1       2.830  -3.379   2.335  0.00  0.00    +0.000 A 
ATOM      8  C   UNL     1       2.696  -4.617   1.687  0.00  0.00    +0.000 A 
ATOM      9  C   UNL     1       1.594  -4.784   0.819  0.00  0.00    +0.000 A 
BRANCH   4  16
ATOM     10  C   UNL     1      -0.952  -1.673  -1.009  0.00  0.00    +0.000 C 
ATOM     11  C   UNL     1      -0.968  -3.179  -1.300  0.00  0.00    +0.000 C 
ATOM     12  C   UNL     1      -2.333  -3.562  -1.904  0.00  0.00    +0.000 C 
ATOM     13  C   UNL     1      -3.420  -3.614  -0.836  0.00  0.00    +0.000 C 
ATOM     14  O   UNL     1      -3.079  -4.577   0.158  0.00  0.00    +0.000 OA
ATOM     15  C   UNL     1      -1.888  -4.221   0.860  0.00  0.00    +0.000 C 
ATOM     16  C   UNL     1      -0.677  -4.108  -0.086  0.00  0.00    +0.000 C 
ENDBRANCH   4  16
ENDBRANCH   1   8
BRANCH   1  17
ATOM     17  C   UNL     1       2.762  -7.011   2.473  0.00  0.00    +0.000 C 
BRANCH  17  18
ATOM     18  N   UNL     1       3.551  -8.175   2.880  0.00  0.00    +0.000 N 
ATOM     19  H   UNL     1       4.377  -8.344   2.311  0.00  0.00    +0.000 HD
BRANCH  18  20
ATOM     20  C   UNL     1       2.924  -9.370   3.235  0.00  0.00    +0.000 A 
ATOM     21  C   UNL     1       1.545  -9.519   3.389  0.00  0.00    +0.000 A 
ATOM     22  C   UNL     1       0.995 -10.733   3.819  0.00  0.00    +0.000 A 
ATOM     23  C   UNL     1       1.819 -11.820   4.151  0.00  0.00    +0.000 A 
ATOM     24  C   UNL     1       3.199 -11.679   4.017  0.00  0.00    +0.000 A 
ATOM     25 CL   UNL     1       4.340 -12.942   4.335  0.00  0.00    +0.000 Cl
ATOM     26  C   UNL     1       3.740 -10.459   3.574  0.00  0.00    +0.000 A 
BRANCH  23  27
ATOM     27  C   UNL     1       1.120 -13.043   4.628  0.00  0.00    +0.000 C 
ATOM     28  N   UNL     1       1.765 -13.848   5.522  0.00  0.00    +0.000 N 
ATOM     29  O   UNL     1      -0.024 -13.297   4.279  0.00  0.00    +0.000 OA
ATOM     30  H   UNL     1       2.727 -13.711   5.789  0.00  0.00    +0.000 HD
ATOM     31  H   UNL     1       1.289 -14.687   5.823  0.00  0.00    +0.000 HD
ENDBRANCH  23  27
ENDBRANCH  18  20
ENDBRANCH  17  18
ENDBRANCH   1  17
TORSDOF 6
