REMARK  Name = 
REMARK  9 active torsions:
REMARK  status: ('A' for Active; 'I' for Inactive)
REMARK    1  A    between atoms: C_1  and  O_2
REMARK    2  A    between atoms: O_2  and  C_3
REMARK    3  A    between atoms: C_10  and  C_11
REMARK    4  A    between atoms: N_13  and  C_14
REMARK    5  A    between atoms: C_14  and  C_15
REMARK    6  A    between atoms: C_18  and  C_19
REMARK    7  A    between atoms: C_19  and  O_20
REMARK    8  A    between atoms: O_20  and  C_21
REMARK    9  A    between atoms: C_21  and  C_22
REMARK                            x       y       z     vdW  Elec       q    Type
REMARK                         _______ _______ _______ _____ _____    ______ ____
ROOT
ATOM      1  C   UNL     1       2.939   0.443  -3.441  0.00  0.00    +0.000 C 
ENDROOT
BRANCH   1   2
ATOM      2  C   UNL     1       1.723  -0.440  -3.304  0.00  0.00    +0.000 A 
ATOM      3  C   UNL     1       1.838  -1.837  -3.342  0.00  0.00    +0.000 A 
ATOM      4  C   UNL     1       0.709  -2.652  -3.190  0.00  0.00    +0.000 A 
ATOM      5  C   UNL     1      -0.561  -2.090  -3.007  0.00  0.00    +0.000 A 
ATOM      6  C   UNL     1      -0.678  -0.693  -2.997  0.00  0.00    +0.000 A 
ATOM      7  C   UNL     1       0.448   0.122  -3.152  0.00  0.00    +0.000 A 
BRANCH   5   8
ATOM      8  C   UNL     1      -1.782  -2.962  -2.834  0.00  0.00    +0.000 C 
BRANCH   8   9
ATOM      9  O   UNL     1      -1.621  -3.776  -1.676  0.00  0.00    +0.000 OA
BRANCH   9  10
ATOM     10  C   UNL     1      -2.761  -4.605  -1.442  0.00  0.00    +0.000 C 
BRANCH  10  11
ATOM     11  C   UNL     1      -2.556  -5.452  -0.208  0.00  0.00    +0.000 A 
ATOM     12  C   UNL     1      -1.793  -4.992   0.875  0.00  0.00    +0.000 A 
ATOM     13  C   UNL     1      -1.649  -5.766   2.028  0.00  0.00    +0.000 A 
ATOM     14  C   UNL     1      -2.279  -7.005   2.120  0.00  0.00    +0.000 A 
ATOM     15  C   UNL     1      -3.047  -7.473   1.057  0.00  0.00    +0.000 A 
ATOM     16  C   UNL     1      -3.189  -6.700  -0.099  0.00  0.00    +0.000 A 
ENDBRANCH  10  11
ENDBRANCH   9  10
ENDBRANCH   8   9
ENDBRANCH   5   8
ENDBRANCH   1   2
BRANCH   1  19
ATOM     17  C   UNL     1       4.308   1.467  -5.220  0.00  0.00    +0.000 C 
ATOM     18  O   UNL     1       5.085   1.954  -4.398  0.00  0.00    +0.000 OA
ATOM     19  N   UNL     1       3.230   0.722  -4.824  0.00  0.00    +0.000 N 
ATOM     20  H   UNL     1       2.543   0.435  -5.506  0.00  0.00    +0.000 HD
BRANCH  17  28
ATOM     21  C   UNL     1       2.608   0.347  -7.996  0.00  0.00    +0.000 A 
ATOM     22  N   UNL     1       2.180   0.003  -9.227  0.00  0.00    +0.000 NA
ATOM     23  C   UNL     1       2.878   0.434 -10.279  0.00  0.00    +0.000 A 
ATOM     24  N   UNL     1       3.971   1.190 -10.257  0.00  0.00    +0.000 NA
ATOM     25  C   UNL     1       4.365   1.511  -9.013  0.00  0.00    +0.000 A 
ATOM     26  S   UNL     1       5.737   2.486  -8.794  0.00  0.00    +0.000 S 
ATOM     27  C   UNL     1       5.582   2.413  -7.104  0.00  0.00    +0.000 A 
ATOM     28  C   UNL     1       4.503   1.652  -6.669  0.00  0.00    +0.000 A 
ATOM     29  C   UNL     1       3.759   1.135  -7.818  0.00  0.00    +0.000 A 
BRANCH  21  31
ATOM     30  C   UNL     1       1.081  -1.216  -7.168  0.00  0.00    +0.000 C 
ATOM     31  O   UNL     1       1.834  -0.031  -6.919  0.00  0.00    +0.000 OA
ENDBRANCH  21  31
ENDBRANCH  17  28
ENDBRANCH   1  19
TORSDOF 8
