REMARK  Name = 
REMARK  5 active torsions:
REMARK  status: ('A' for Active; 'I' for Inactive)
REMARK    1  A    between atoms: N_1  and  C_2
REMARK    2  A    between atoms: C_2  and  C_3
REMARK    3  A    between atoms: C_6  and  O_7
REMARK    4  A    between atoms: O_7  and  C_8
REMARK    5  A    between atoms: C_8  and  C_9
REMARK                            x       y       z     vdW  Elec       q    Type
REMARK                         _______ _______ _______ _____ _____    ______ ____
ROOT
ATOM      1  C   UNL     1       2.716   0.711   1.364  0.00  0.00    +0.000 A 
ATOM      2  C   UNL     1       2.276  -0.277   2.253  0.00  0.00    +0.000 A 
ATOM      3  C   UNL     1       2.587  -0.183   3.608  0.00  0.00    +0.000 A 
ATOM      4  C   UNL     1       3.316   0.911   4.040  0.00  0.00    +0.000 A 
ATOM      5  N   UNL     1       3.753   1.887   3.214  0.00  0.00    +0.000 NA
ATOM      6  C   UNL     1       3.450   1.760   1.905  0.00  0.00    +0.000 A 
ENDROOT
BRANCH   1   7
ATOM      7  C   UNL     1       2.460   0.628  -0.113  0.00  0.00    +0.000 C 
BRANCH   7   8
ATOM      8  N   UNL     1       1.036   0.582  -0.420  0.00  0.00    +0.000 NA
ATOM      9  H   UNL     1       0.913   0.610  -1.431  0.00  0.00    +0.000 HD
ATOM     10  H   UNL     1       0.587   1.422  -0.056  0.00  0.00    +0.000 HD
ENDBRANCH   7   8
ENDBRANCH   1   7
BRANCH   4  11
ATOM     11  O   UNL     1       3.647   0.964   5.382  0.00  0.00    +0.000 OA
BRANCH  11  12
ATOM     12  C   UNL     1       3.937   2.297   5.813  0.00  0.00    +0.000 C 
BRANCH  12  13
ATOM     13  C   UNL     1       4.451   2.288   7.266  0.00  0.00    +0.000 C 
ATOM     14  C   UNL     1       4.661   3.722   7.780  0.00  0.00    +0.000 C 
ATOM     15  C   UNL     1       5.897   4.388   7.169  0.00  0.00    +0.000 C 
ATOM     16  N   UNL     1       7.107   3.586   7.356  0.00  0.00    +0.000 NA
ATOM     17  C   UNL     1       6.950   2.240   6.797  0.00  0.00    +0.000 C 
ATOM     18  C   UNL     1       5.765   1.505   7.425  0.00  0.00    +0.000 C 
ATOM     19  H   UNL     1       7.301   3.506   8.355  0.00  0.00    +0.000 HD
ENDBRANCH  12  13
ENDBRANCH  11  12
ENDBRANCH   4  11
TORSDOF 5
