REMARK  Name = 
REMARK  6 active torsions:
REMARK  status: ('A' for Active; 'I' for Inactive)
REMARK    1  A    between atoms: C_1  and  C_2
REMARK    2  A    between atoms: C_7  and  C_8
REMARK    3  A    between atoms: N_10  and  C_11
REMARK    4  A    between atoms: C_11  and  C_12
REMARK    5  A    between atoms: C_15  and  C_16
REMARK    6  A    between atoms: C_16  and  N_17
REMARK                            x       y       z     vdW  Elec       q    Type
REMARK                         _______ _______ _______ _____ _____    ______ ____
ROOT
ATOM      1  C   UNL     1       9.830   2.675   2.122  0.00  0.00    +0.000 C 
ATOM      2  O   UNL     1      10.805   3.276   1.667  0.00  0.00    +0.000 OA
ATOM      3  N   UNL     1       8.651   2.589   1.424  0.00  0.00    +0.000 N 
ATOM      4  H   UNL     1       7.885   2.066   1.832  0.00  0.00    +0.000 HD
ENDROOT
BRANCH   1  11
ATOM      5  C   UNL     1       6.540  -1.008   6.902  0.00  0.00    +0.000 C 
ATOM      6  C   UNL     1       7.452  -0.211   6.017  0.00  0.00    +0.000 A 
ATOM      7  N   UNL     1       8.669   0.081   6.352  0.00  0.00    +0.000 NA
ATOM      8  C   UNL     1       9.359   0.811   5.429  0.00  0.00    +0.000 A 
ATOM      9  S   UNL     1      10.969   1.288   5.704  0.00  0.00    +0.000 S 
ATOM     10  C   UNL     1      11.055   2.085   4.196  0.00  0.00    +0.000 A 
ATOM     11  C   UNL     1       9.887   2.015   3.448  0.00  0.00    +0.000 A 
ATOM     12  C   UNL     1       8.904   1.253   4.203  0.00  0.00    +0.000 A 
ATOM     13  C   UNL     1       7.540   0.887   3.880  0.00  0.00    +0.000 A 
ATOM     14  O   UNL     1       6.978   1.177   2.822  0.00  0.00    +0.000 OA
ATOM     15  N   UNL     1       6.871   0.172   4.824  0.00  0.00    +0.000 N 
ATOM     16  H   UNL     1       5.926  -0.085   4.604  0.00  0.00    +0.000 HD
ENDBRANCH   1  11
BRANCH   3  17
ATOM     17  C   UNL     1       8.447   3.174   0.110  0.00  0.00    +0.000 C 
BRANCH  17  18
ATOM     18  C   UNL     1       7.911   4.595   0.122  0.00  0.00    +0.000 A 
ATOM     19  C   UNL     1       8.795   5.680   0.128  0.00  0.00    +0.000 A 
ATOM     20  C   UNL     1       8.320   7.005   0.153  0.00  0.00    +0.000 A 
ATOM     21  C   UNL     1       6.945   7.288   0.160  0.00  0.00    +0.000 A 
ATOM     22  C   UNL     1       6.064   6.210   0.130  0.00  0.00    +0.000 A 
ATOM     23  C   UNL     1       6.541   4.893   0.118  0.00  0.00    +0.000 A 
BRANCH  21  24
ATOM     24  C   UNL     1       6.361   8.681   0.208  0.00  0.00    +0.000 C 
BRANCH  24  25
ATOM     25  N   UNL     1       6.132   9.184  -1.125  0.00  0.00    +0.000 N 
ATOM     26  C   UNL     1       5.603  10.463  -1.172  0.00  0.00    +0.000 A 
ATOM     27  N   UNL     1       5.833  11.349  -0.193  0.00  0.00    +0.000 NA
ATOM     28  C   UNL     1       5.376  12.600  -0.388  0.00  0.00    +0.000 A 
ATOM     29  C   UNL     1       4.671  12.984  -1.502  0.00  0.00    +0.000 A 
ATOM     30  C   UNL     1       4.441  11.991  -2.418  0.00  0.00    +0.000 A 
ATOM     31  N   UNL     1       4.887  10.732  -2.272  0.00  0.00    +0.000 NA
ATOM     32  H   UNL     1       5.485   8.631  -1.678  0.00  0.00    +0.000 HD
ENDBRANCH  24  25
ENDBRANCH  21  24
ENDBRANCH  17  18
ENDBRANCH   3  17
TORSDOF 5
