REMARK  Name = 
REMARK  4 active torsions:
REMARK  status: ('A' for Active; 'I' for Inactive)
REMARK    1  A    between atoms: N_1  and  C_2
REMARK    2  A    between atoms: C_2  and  C_3
REMARK    3  A    between atoms: C_6  and  C_7
REMARK    4  A    between atoms: C_7  and  N_8
REMARK                            x       y       z     vdW  Elec       q    Type
REMARK                         _______ _______ _______ _____ _____    ______ ____
ROOT
ATOM      1  C   UNL     1       2.030   1.609  -1.107  0.00  0.00    +0.000 A 
ATOM      2  C   UNL     1       2.410   1.214  -2.396  0.00  0.00    +0.000 A 
ATOM      3  C   UNL     1       3.065   2.103  -3.254  0.00  0.00    +0.000 A 
ATOM      4  C   UNL     1       3.351   3.414  -2.840  0.00  0.00    +0.000 A 
ATOM      5  C   UNL     1       2.955   3.817  -1.559  0.00  0.00    +0.000 A 
ATOM      6  C   UNL     1       2.306   2.923  -0.700  0.00  0.00    +0.000 A 
ENDROOT
BRANCH   1   7
ATOM      7  C   UNL     1       1.330   0.649  -0.185  0.00  0.00    +0.000 C 
BRANCH   7   8
ATOM      8  N   UNL     1       2.131  -0.528   0.100  0.00  0.00    +0.000 NA
ATOM      9  H   UNL     1       1.655  -1.107   0.792  0.00  0.00    +0.000 HD
ATOM     10  H   UNL     1       3.009  -0.235   0.526  0.00  0.00    +0.000 HD
ENDBRANCH   7   8
ENDBRANCH   1   7
BRANCH   4  11
ATOM     11  C   UNL     1       4.161   4.328  -3.717  0.00  0.00    +0.000 C 
BRANCH  11  12
ATOM     12  N   UNL     1       3.382   5.263  -4.513  0.00  0.00    +0.000 N 
ATOM     13  C   UNL     1       2.796   4.947  -5.712  0.00  0.00    +0.000 A 
ATOM     14  N   UNL     1       2.669   6.001  -6.481  0.00  0.00    +0.000 NA
ATOM     15  C   UNL     1       3.144   7.053  -5.738  0.00  0.00    +0.000 A 
ATOM     16  C   UNL     1       3.334   8.394  -6.103  0.00  0.00    +0.000 A 
ATOM     17  C   UNL     1       3.838   9.288  -5.150  0.00  0.00    +0.000 A 
ATOM     18  C   UNL     1       4.108   8.863  -3.848  0.00  0.00    +0.000 A 
ATOM     19  C   UNL     1       3.945   7.524  -3.471  0.00  0.00    +0.000 A 
ATOM     20  C   UNL     1       3.498   6.636  -4.457  0.00  0.00    +0.000 A 
ENDBRANCH  11  12
ENDBRANCH   4  11
TORSDOF 4
