REMARK  Name = 
REMARK  9 active torsions:
REMARK  status: ('A' for Active; 'I' for Inactive)
REMARK    1  A    between atoms: N_1  and  C_2
REMARK    2  A    between atoms: C_2  and  C_3
REMARK    3  A    between atoms: C_3  and  N_4
REMARK    4  A    between atoms: N_4  and  C_5
REMARK    5  A    between atoms: C_5  and  C_6
REMARK    6  A    between atoms: C_9  and  C_10
REMARK    7  A    between atoms: C_10  and  C_11
REMARK    8  A    between atoms: C_11  and  N_12
REMARK    9  A    between atoms: C_20  and  C_22
REMARK                            x       y       z     vdW  Elec       q    Type
REMARK                         _______ _______ _______ _____ _____    ______ ____
ROOT
ATOM      1  N   UNL     1       4.415  -0.965   0.924  0.00  0.00    +0.000 N 
ATOM      2  C   UNL     1       4.959  -2.091   1.583  0.00  0.00    +0.000 C 
ATOM      3  O   UNL     1       4.323  -2.687   2.451  0.00  0.00    +0.000 OA
ENDROOT
BRANCH   2   4
ATOM      4  C   UNL     1       6.321  -2.550   1.246  0.00  0.00    +0.000 A 
ATOM      5  C   UNL     1       7.444  -1.739   1.182  0.00  0.00    +0.000 A 
ATOM      6  S   UNL     1       8.887  -2.581   0.823  0.00  0.00    +0.000 S 
ATOM      7  C   UNL     1       8.081  -4.081   0.891  0.00  0.00    +0.000 A 
ATOM      8  N   UNL     1       8.773  -5.247   0.770  0.00  0.00    +0.000 NA
ATOM      9  C   UNL     1       8.044  -6.304   0.897  0.00  0.00    +0.000 A 
ATOM     10  N   UNL     1       6.684  -6.300   1.096  0.00  0.00    +0.000 N 
ATOM     11  C   UNL     1       5.929  -5.145   1.096  0.00  0.00    +0.000 A 
ATOM     12  O   UNL     1       4.710  -5.187   1.048  0.00  0.00    +0.000 OA
ATOM     13  C   UNL     1       6.724  -3.928   1.079  0.00  0.00    +0.000 A 
ATOM     14  H   UNL     1       6.165  -7.161   1.119  0.00  0.00    +0.000 HD
ENDBRANCH   2   4
BRANCH   1  15
ATOM     15  C   UNL     1       3.053  -0.557   1.315  0.00  0.00    +0.000 C 
BRANCH  15  16
ATOM     16  C   UNL     1       2.950   0.092   2.713  0.00  0.00    +0.000 C 
BRANCH  16  17
ATOM     17  N   UNL     1       1.554   0.353   3.088  0.00  0.00    +0.000 NA
ATOM     18  H   UNL     1       1.529   0.838   3.985  0.00  0.00    +0.000 HD
ATOM     19  H   UNL     1       1.085  -0.541   3.251  0.00  0.00    +0.000 HD
ENDBRANCH  16  17
ENDBRANCH  15  16
ENDBRANCH   1  15
BRANCH   1  20
ATOM     20  C   UNL     1       5.144  -0.262  -0.129  0.00  0.00    +0.000 C 
BRANCH  20  21
ATOM     21  C   UNL     1       4.473   0.721  -1.040  0.00  0.00    +0.000 A 
ATOM     22  C   UNL     1       4.594   2.099  -0.835  0.00  0.00    +0.000 A 
ATOM     23  C   UNL     1       4.199   2.986  -1.835  0.00  0.00    +0.000 A 
ATOM     24  C   UNL     1       3.662   2.477  -3.013  0.00  0.00    +0.000 A 
ATOM     25  N   UNL     1       3.488   1.146  -3.207  0.00  0.00    +0.000 NA
ATOM     26  C   UNL     1       3.880   0.306  -2.224  0.00  0.00    +0.000 A 
BRANCH  24  27
ATOM     27  C   UNL     1       3.370   3.402  -4.173  0.00  0.00    +0.000 C 
BRANCH  27  28
ATOM     28  C   UNL     1       2.242   2.867  -5.052  0.00  0.00    +0.000 C 
BRANCH  28  29
ATOM     29  N   UNL     1       1.928   3.770  -6.151  0.00  0.00    +0.000 N 
ATOM     30  C   UNL     1       1.099   4.822  -5.983  0.00  0.00    +0.000 C 
ATOM     31  N   UNL     1       0.818   5.427  -4.869  0.00  0.00    +0.000 NA
ATOM     32  C   UNL     1      -0.191   6.447  -5.248  0.00  0.00    +0.000 C 
ATOM     33  C   UNL     1      -0.427   6.306  -6.755  0.00  0.00    +0.000 C 
ATOM     34  N   UNL     1       0.506   5.261  -7.123  0.00  0.00    +0.000 N 
ATOM     35  H   UNL     1       1.914   3.336  -7.062  0.00  0.00    +0.000 HD
ATOM     36  H   UNL     1       0.117   4.529  -7.702  0.00  0.00    +0.000 HD
ENDBRANCH  28  29
ENDBRANCH  27  28
ENDBRANCH  24  27
ENDBRANCH  20  21
ENDBRANCH   1  20
TORSDOF 9
