REMARK  Name = 
REMARK  9 active torsions:
REMARK  status: ('A' for Active; 'I' for Inactive)
REMARK    1  A    between atoms: C_1  and  O_2
REMARK    2  A    between atoms: O_2  and  C_3
REMARK    3  A    between atoms: C_10  and  C_11
REMARK    4  A    between atoms: N_13  and  C_14
REMARK    5  A    between atoms: C_14  and  C_15
REMARK    6  A    between atoms: C_18  and  N_19
REMARK    7  A    between atoms: N_19  and  C_20
REMARK    8  A    between atoms: C_20  and  C_21
REMARK    9  A    between atoms: N_24  and  C_25
REMARK                            x       y       z     vdW  Elec       q    Type
REMARK                         _______ _______ _______ _____ _____    ______ ____
ROOT
ATOM      1  C   UNL     1       3.026  -0.553  -3.354  0.00  0.00    +0.000 C 
ENDROOT
BRANCH   1   2
ATOM      2  C   UNL     1       1.834  -1.408  -3.021  0.00  0.00    +0.000 A 
ATOM      3  C   UNL     1       1.945  -2.798  -3.015  0.00  0.00    +0.000 A 
ATOM      4  C   UNL     1       0.854  -3.596  -2.659  0.00  0.00    +0.000 A 
ATOM      5  C   UNL     1      -0.387  -3.051  -2.324  0.00  0.00    +0.000 A 
ATOM      6  C   UNL     1      -0.493  -1.652  -2.359  0.00  0.00    +0.000 A 
ATOM      7  C   UNL     1       0.594  -0.840  -2.714  0.00  0.00    +0.000 A 
BRANCH   5   8
ATOM      8  N   UNL     1      -1.458  -3.789  -1.842  0.00  0.00    +0.000 N 
ATOM      9  H   UNL     1      -2.372  -3.413  -2.080  0.00  0.00    +0.000 HD
BRANCH   8  10
ATOM     10  C   UNL     1      -1.425  -5.223  -1.593  0.00  0.00    +0.000 C 
BRANCH  10  11
ATOM     11  C   UNL     1      -1.657  -5.540  -0.100  0.00  0.00    +0.000 C 
ATOM     12  C   UNL     1      -0.634  -4.884   0.840  0.00  0.00    +0.000 C 
ATOM     13  C   UNL     1       0.761  -5.490   0.691  0.00  0.00    +0.000 C 
ATOM     14  N   UNL     1       0.737  -6.938   0.938  0.00  0.00    +0.000 NA
ATOM     15  C   UNL     1       2.086  -7.494   0.813  0.00  0.00    +0.000 C 
ATOM     16  C   UNL     1      -0.197  -7.637   0.048  0.00  0.00    +0.000 C 
ATOM     17  C   UNL     1      -1.617  -7.061   0.139  0.00  0.00    +0.000 C 
ENDBRANCH  10  11
ENDBRANCH   8  10
ENDBRANCH   5   8
ENDBRANCH   1   2
BRANCH   1  20
ATOM     18  C   UNL     1       4.177   0.383  -5.304  0.00  0.00    +0.000 C 
ATOM     19  O   UNL     1       5.046   0.865  -4.584  0.00  0.00    +0.000 OA
ATOM     20  N   UNL     1       3.137  -0.331  -4.772  0.00  0.00    +0.000 N 
ATOM     21  H   UNL     1       2.390  -0.665  -5.365  0.00  0.00    +0.000 HD
BRANCH  18  29
ATOM     22  C   UNL     1       2.157  -0.729  -7.873  0.00  0.00    +0.000 A 
ATOM     23  N   UNL     1       1.613  -1.091  -9.053  0.00  0.00    +0.000 NA
ATOM     24  C   UNL     1       2.216  -0.697 -10.177  0.00  0.00    +0.000 A 
ATOM     25  N   UNL     1       3.319   0.036 -10.276  0.00  0.00    +0.000 NA
ATOM     26  C   UNL     1       3.840   0.365  -9.080  0.00  0.00    +0.000 A 
ATOM     27  S   UNL     1       5.246   1.314  -9.020  0.00  0.00    +0.000 S 
ATOM     28  C   UNL     1       5.263   1.272  -7.323  0.00  0.00    +0.000 A 
ATOM     29  C   UNL     1       4.220   0.534  -6.768  0.00  0.00    +0.000 A 
ATOM     30  C   UNL     1       3.348   0.023  -7.826  0.00  0.00    +0.000 A 
BRANCH  22  32
ATOM     31  C   UNL     1       0.273  -1.776  -6.947  0.00  0.00    +0.000 C 
ATOM     32  O   UNL     1       1.500  -1.087  -6.714  0.00  0.00    +0.000 OA
ENDBRANCH  22  32
ENDBRANCH  18  29
ENDBRANCH   1  20
TORSDOF 7
