REMARK  Name = 
REMARK  7 active torsions:
REMARK  status: ('A' for Active; 'I' for Inactive)
REMARK    1  A    between atoms: C_1  and  O_2
REMARK    2  A    between atoms: O_2  and  C_3
REMARK    3  A    between atoms: C_5  and  C_6
REMARK    4  A    between atoms: C_6  and  N_7
REMARK    5  A    between atoms: C_12  and  C_13
REMARK    6  A    between atoms: C_17  and  O_18
REMARK    7  A    between atoms: C_22  and  C_23
REMARK                            x       y       z     vdW  Elec       q    Type
REMARK                         _______ _______ _______ _____ _____    ______ ____
ROOT
ATOM      1  N   UNL     1       1.982  -4.658  -0.871  0.00  0.00    +0.000 N 
ATOM      2  C   UNL     1       0.692  -4.936  -0.501  0.00  0.00    +0.000 A 
ATOM      3  N   UNL     1      -0.152  -4.747  -1.490  0.00  0.00    +0.000 NA
ATOM      4  C   UNL     1       0.623  -4.352  -2.544  0.00  0.00    +0.000 A 
ATOM      5  N   UNL     1       0.153  -4.016  -3.766  0.00  0.00    +0.000 NA
ATOM      6  C   UNL     1       1.123  -3.648  -4.646  0.00  0.00    +0.000 A 
ATOM      7  C   UNL     1       2.494  -3.632  -4.396  0.00  0.00    +0.000 A 
ATOM      8  C   UNL     1       2.943  -3.986  -3.135  0.00  0.00    +0.000 A 
ATOM      9  C   UNL     1       1.972  -4.329  -2.202  0.00  0.00    +0.000 A 
ENDROOT
BRANCH   6  10
ATOM     10  C   UNL     1       0.649  -3.200  -5.995  0.00  0.00    +0.000 C 
ATOM     11  N   UNL     1      -0.708  -3.206  -6.181  0.00  0.00    +0.000 N 
ATOM     12  O   UNL     1       1.418  -2.840  -6.875  0.00  0.00    +0.000 OA
ATOM     13  H   UNL     1      -1.320  -3.497  -5.425  0.00  0.00    +0.000 HD
ATOM     14  H   UNL     1      -1.093  -2.894  -7.059  0.00  0.00    +0.000 HD
ENDBRANCH   6  10
BRANCH   8  15
ATOM     15  O   UNL     1       4.269  -3.980  -2.812  0.00  0.00    +0.000 OA
ATOM     16  H   UNL     1       4.767  -3.614  -3.565  0.00  0.00    +0.000 HD
ENDBRANCH   8  15
BRANCH   1  17
ATOM     17  C   UNL     1       3.137  -4.698   0.010  0.00  0.00    +0.000 C 
BRANCH  17  20
ATOM     18  C   UNL     1       5.107  -1.564   1.004  0.00  0.00    +0.000 A 
ATOM     19  C   UNL     1       4.732  -2.763   0.377  0.00  0.00    +0.000 A 
ATOM     20  C   UNL     1       3.467  -3.340   0.596  0.00  0.00    +0.000 A 
ATOM     21  C   UNL     1       2.559  -2.673   1.428  0.00  0.00    +0.000 A 
ATOM     22  C   UNL     1       2.904  -1.450   2.016  0.00  0.00    +0.000 A 
ATOM     23  C   UNL     1       4.176  -0.889   1.816  0.00  0.00    +0.000 A 
BRANCH  23  24
ATOM     24  C   UNL     1       4.446   0.425   2.487  0.00  0.00    +0.000 C 
ATOM     25  N   UNL     1       5.662   1.015   2.301  0.00  0.00    +0.000 N 
ATOM     26  O   UNL     1       3.598   0.977   3.183  0.00  0.00    +0.000 OA
ATOM     27  H   UNL     1       6.402   0.544   1.798  0.00  0.00    +0.000 HD
ATOM     28  H   UNL     1       5.859   1.887   2.773  0.00  0.00    +0.000 HD
ENDBRANCH  23  24
BRANCH  18  30
ATOM     29  C   UNL     1       7.193  -1.388  -0.167  0.00  0.00    +0.000 C 
ATOM     30  O   UNL     1       6.380  -1.055   0.947  0.00  0.00    +0.000 OA
ENDBRANCH  18  30
ENDBRANCH  17  20
ENDBRANCH   1  17
TORSDOF 6
