REMARK  Name = 
REMARK  3 active torsions:
REMARK  status: ('A' for Active; 'I' for Inactive)
REMARK    1  A    between atoms: C_2  and  C_4
REMARK    2  A    between atoms: C_7  and  C_8
REMARK    3  A    between atoms: C_8  and  N_9
REMARK                            x       y       z     vdW  Elec       q    Type
REMARK                         _______ _______ _______ _____ _____    ______ ____
ROOT
ATOM      1  C   UNL     1       3.063  -0.916   0.998  0.00  0.00    +0.000 A 
ATOM      2  C   UNL     1       4.003  -1.411   0.095  0.00  0.00    +0.000 A 
ATOM      3  C   UNL     1       4.885  -2.412   0.506  0.00  0.00    +0.000 A 
ATOM      4  C   UNL     1       4.818  -2.893   1.815  0.00  0.00    +0.000 A 
ATOM      5  N   UNL     1       3.903  -2.422   2.702  0.00  0.00    +0.000 NA
ATOM      6  C   UNL     1       3.054  -1.449   2.278  0.00  0.00    +0.000 A 
ENDROOT
BRANCH   1   8
ATOM      7  N   UNL     1       1.792   0.365  -0.638  0.00  0.00    +0.000 N 
ATOM      8  C   UNL     1       2.121   0.177   0.676  0.00  0.00    +0.000 C 
ATOM      9  O   UNL     1       1.633   0.876   1.554  0.00  0.00    +0.000 OA
ATOM     10  H   UNL     1       1.075   1.056  -0.824  0.00  0.00    +0.000 HD
ATOM     11  H   UNL     1       1.975  -0.321  -1.354  0.00  0.00    +0.000 HD
ENDBRANCH   1   8
BRANCH   4  12
ATOM     12  C   UNL     1       5.802  -3.921   2.318  0.00  0.00    +0.000 C 
BRANCH  12  13
ATOM     13  N   UNL     1       5.336  -5.285   2.098  0.00  0.00    +0.000 N 
ATOM     14  C   UNL     1       4.616  -6.007   3.019  0.00  0.00    +0.000 A 
ATOM     15  C   UNL     1       4.352  -7.245   2.481  0.00  0.00    +0.000 A 
ATOM     16  C   UNL     1       4.944  -7.291   1.191  0.00  0.00    +0.000 A 
ATOM     17  C   UNL     1       4.994  -8.275   0.182  0.00  0.00    +0.000 A 
ATOM     18  C   UNL     1       5.689  -8.011  -1.003  0.00  0.00    +0.000 A 
ATOM     19  C   UNL     1       6.341  -6.798  -1.168  0.00  0.00    +0.000 A 
ATOM     20  F   UNL     1       7.009  -6.566  -2.307  0.00  0.00    +0.000 F 
ATOM     21  C   UNL     1       6.318  -5.807  -0.188  0.00  0.00    +0.000 A 
ATOM     22  C   UNL     1       5.591  -6.065   0.985  0.00  0.00    +0.000 A 
ENDBRANCH  12  13
ENDBRANCH   4  12
TORSDOF 3
