REMARK  Name = 
REMARK  7 active torsions:
REMARK  status: ('A' for Active; 'I' for Inactive)
REMARK    1  A    between atoms: N_1  and  C_2
REMARK    2  A    between atoms: C_2  and  C_3
REMARK    3  A    between atoms: C_3  and  C_4
REMARK    4  A    between atoms: C_7  and  C_8
REMARK    5  A    between atoms: C_8  and  N_9
REMARK    6  A    between atoms: C_14  and  C_15
REMARK    7  A    between atoms: C_15  and  O_17
REMARK                            x       y       z     vdW  Elec       q    Type
REMARK                         _______ _______ _______ _____ _____    ______ ____
ROOT
ATOM      1  C   UNL     1       8.728  -1.029   1.166  0.00  0.00    +0.000 C 
ENDROOT
BRANCH   1   2
ATOM      2  N   UNL     1       9.310  -0.118   2.138  0.00  0.00    +0.000 N 
ATOM      3  C   UNL     1       9.561  -0.435   3.448  0.00  0.00    +0.000 A 
ATOM      4  N   UNL     1      10.306   0.472   4.035  0.00  0.00    +0.000 NA
ATOM      5  C   UNL     1      10.559   1.412   3.069  0.00  0.00    +0.000 A 
ATOM      6  C   UNL     1      11.367   2.557   3.135  0.00  0.00    +0.000 A 
ATOM      7  C   UNL     1      11.493   3.361   1.992  0.00  0.00    +0.000 A 
ATOM      8  C   UNL     1      10.809   3.036   0.812  0.00  0.00    +0.000 A 
ATOM      9  C   UNL     1       9.991   1.899   0.736  0.00  0.00    +0.000 A 
ATOM     10  C   UNL     1       9.910   1.093   1.879  0.00  0.00    +0.000 A 
BRANCH   7  11
ATOM     11  C   UNL     1      12.441   4.504   2.061  0.00  0.00    +0.000 C 
ATOM     12  O   UNL     1      13.425   4.503   2.779  0.00  0.00    +0.000 OA
BRANCH  11  13
ATOM     13  O   UNL     1      12.110   5.550   1.273  0.00  0.00    +0.000 OA
ATOM     14  H   UNL     1      11.217   5.513   0.889  0.00  0.00    +0.000 HD
ENDBRANCH  11  13
ENDBRANCH   7  11
ENDBRANCH   1   2
BRANCH   1  18
ATOM     15  C   UNL     1       4.405  -0.913   1.153  0.00  0.00    +0.000 A 
ATOM     16  C   UNL     1       5.089  -1.822   1.971  0.00  0.00    +0.000 A 
ATOM     17  C   UNL     1       6.486  -1.860   1.982  0.00  0.00    +0.000 A 
ATOM     18  C   UNL     1       7.228  -0.998   1.164  0.00  0.00    +0.000 A 
ATOM     19  C   UNL     1       6.536  -0.113   0.335  0.00  0.00    +0.000 A 
ATOM     20  F   UNL     1       7.214   0.693  -0.495  0.00  0.00    +0.000 F 
ATOM     21  C   UNL     1       5.144  -0.062   0.325  0.00  0.00    +0.000 A 
BRANCH  15  22
ATOM     22  C   UNL     1       2.896  -0.876   1.135  0.00  0.00    +0.000 C 
BRANCH  22  23
ATOM     23  C   UNL     1       2.325  -1.783   0.041  0.00  0.00    +0.000 C 
BRANCH  23  24
ATOM     24  N   UNL     1       0.865  -1.731   0.018  0.00  0.00    +0.000 NA
ATOM     25  H   UNL     1       0.520  -2.327  -0.734  0.00  0.00    +0.000 HD
ATOM     26  H   UNL     1       0.556  -0.786  -0.207  0.00  0.00    +0.000 HD
ENDBRANCH  23  24
ENDBRANCH  22  23
ENDBRANCH  15  22
ENDBRANCH   1  18
TORSDOF 7
