REMARK  Name = 
REMARK  8 active torsions:
REMARK  status: ('A' for Active; 'I' for Inactive)
REMARK    1  A    between atoms: C_2  and  C_3
REMARK    2  A    between atoms: C_7  and  C_8
REMARK    3  A    between atoms: C_8  and  O_9
REMARK    4  A    between atoms: O_9  and  C_10
REMARK    5  A    between atoms: C_10  and  C_11
REMARK    6  A    between atoms: C_14  and  C_15
REMARK    7  A    between atoms: C_15  and  N_16
REMARK    8  A    between atoms: C_17  and  C_19
REMARK                            x       y       z     vdW  Elec       q    Type
REMARK                         _______ _______ _______ _____ _____    ______ ____
ROOT
ATOM      1  C   UNL     1      -5.773  -3.435   0.012  0.00  0.00    +0.000 A 
ATOM      2  C   UNL     1      -6.597  -4.557  -0.020  0.00  0.00    +0.000 A 
ATOM      3  C   UNL     1      -7.976  -4.379  -0.098  0.00  0.00    +0.000 A 
ATOM      4  C   UNL     1      -8.505  -3.088  -0.152  0.00  0.00    +0.000 A 
ATOM      5  C   UNL     1      -7.607  -2.028  -0.088  0.00  0.00    +0.000 A 
ATOM      6  N   UNL     1      -6.262  -2.170  -0.016  0.00  0.00    +0.000 NA
ENDROOT
BRANCH   1   7
ATOM      7  C   UNL     1      -4.270  -3.599  -0.028  0.00  0.00    +0.000 C 
BRANCH   7   8
ATOM      8  O   UNL     1      -3.827  -4.337  -1.174  0.00  0.00    +0.000 OA
BRANCH   8   9
ATOM      9  C   UNL     1      -4.116  -3.653  -2.398  0.00  0.00    +0.000 C 
BRANCH   9  14
ATOM     10  C   UNL     1      -4.195  -5.645  -5.509  0.00  0.00    +0.000 A 
ATOM     11  C   UNL     1      -2.873  -6.016  -5.718  0.00  0.00    +0.000 A 
ATOM     12  C   UNL     1      -1.918  -5.596  -4.798  0.00  0.00    +0.000 A 
ATOM     13  C   UNL     1      -2.312  -4.827  -3.707  0.00  0.00    +0.000 A 
ATOM     14  C   UNL     1      -3.657  -4.493  -3.567  0.00  0.00    +0.000 A 
ATOM     15  N   UNL     1      -4.601  -4.891  -4.460  0.00  0.00    +0.000 NA
BRANCH  10  17
ATOM     16  N   UNL     1      -6.024  -6.409  -7.190  0.00  0.00    +0.000 NA
ATOM     17  C   UNL     1      -5.225  -6.055  -6.425  0.00  0.00    +0.000 C 
ENDBRANCH  10  17
ENDBRANCH   9  14
ENDBRANCH   8   9
ENDBRANCH   7   8
ENDBRANCH   1   7
BRANCH   4  18
ATOM     18  C   UNL     1      -9.982  -2.843  -0.240  0.00  0.00    +0.000 C 
BRANCH  18  19
ATOM     19  N   UNL     1     -10.576  -2.765   1.070  0.00  0.00    +0.000 N 
ATOM     20  C   UNL     1     -11.925  -2.581   1.234  0.00  0.00    +0.000 C 
ATOM     21  O   UNL     1     -12.699  -2.536   0.283  0.00  0.00    +0.000 OA
ATOM     22  H   UNL     1      -9.954  -2.575   1.849  0.00  0.00    +0.000 HD
BRANCH  20  23
ATOM     23  C   UNL     1     -12.403  -2.497   2.620  0.00  0.00    +0.000 A 
ATOM     24  C   UNL     1     -13.709  -2.855   2.926  0.00  0.00    +0.000 A 
ATOM     25  S   UNL     1     -14.082  -2.718   4.586  0.00  0.00    +0.000 S 
ATOM     26  C   UNL     1     -12.522  -2.138   4.945  0.00  0.00    +0.000 A 
ATOM     27  N   UNL     1     -12.176  -1.798   6.217  0.00  0.00    +0.000 NA
ATOM     28  C   UNL     1     -10.968  -1.360   6.340  0.00  0.00    +0.000 A 
ATOM     29  N   UNL     1     -10.071  -1.236   5.310  0.00  0.00    +0.000 N 
ATOM     30  C   UNL     1     -10.370  -1.589   4.017  0.00  0.00    +0.000 A 
ATOM     31  O   UNL     1      -9.529  -1.511   3.126  0.00  0.00    +0.000 OA
ATOM     32  C   UNL     1     -11.721  -2.074   3.820  0.00  0.00    +0.000 A 
ATOM     33  H   UNL     1      -9.134  -0.903   5.477  0.00  0.00    +0.000 HD
ENDBRANCH  20  23
ENDBRANCH  18  19
ENDBRANCH   4  18
TORSDOF 8
