REMARK  Name = 
REMARK  5 active torsions:
REMARK  status: ('A' for Active; 'I' for Inactive)
REMARK    1  A    between atoms: C_2  and  C_4
REMARK    2  A    between atoms: C_7  and  N_8
REMARK    3  A    between atoms: N_8  and  C_9
REMARK    4  A    between atoms: C_9  and  C_10
REMARK    5  A    between atoms: C_14  and  C_15
REMARK                            x       y       z     vdW  Elec       q    Type
REMARK                         _______ _______ _______ _____ _____    ______ ____
ROOT
ATOM      1  N   UNL     1       3.022  -5.348   3.491  0.00  0.00    +0.000 N 
ATOM      2  H   UNL     1       2.724  -5.149   4.444  0.00  0.00    +0.000 HD
ENDROOT
BRANCH   1   6
ATOM      3  C   UNL     1       0.627  -3.264   0.860  0.00  0.00    +0.000 A 
ATOM      4  C   UNL     1       2.007  -3.130   0.817  0.00  0.00    +0.000 A 
ATOM      5  N   UNL     1       2.842  -3.789   1.672  0.00  0.00    +0.000 NA
ATOM      6  C   UNL     1       2.257  -4.587   2.591  0.00  0.00    +0.000 A 
ATOM      7  C   UNL     1       0.856  -4.696   2.623  0.00  0.00    +0.000 A 
ATOM      8  N   UNL     1       0.006  -4.046   1.782  0.00  0.00    +0.000 NA
BRANCH   3  10
ATOM      9  N   UNL     1      -1.581  -2.712  -0.003  0.00  0.00    +0.000 N 
ATOM     10  C   UNL     1      -0.228  -2.558  -0.134  0.00  0.00    +0.000 C 
ATOM     11  O   UNL     1       0.251  -1.859  -1.022  0.00  0.00    +0.000 OA
ATOM     12  H   UNL     1      -2.186  -2.175  -0.612  0.00  0.00    +0.000 HD
ATOM     13  H   UNL     1      -1.967  -3.148   0.827  0.00  0.00    +0.000 HD
ENDBRANCH   3  10
ENDBRANCH   1   6
BRANCH   1  14
ATOM     14  C   UNL     1       4.470  -5.221   3.351  0.00  0.00    +0.000 C 
BRANCH  14  15
ATOM     15  C   UNL     1       5.161  -6.113   4.362  0.00  0.00    +0.000 A 
ATOM     16  C   UNL     1       4.972  -7.498   4.346  0.00  0.00    +0.000 A 
ATOM     17  C   UNL     1       5.624  -8.278   5.288  0.00  0.00    +0.000 A 
ATOM     18  N   UNL     1       6.439  -7.778   6.239  0.00  0.00    +0.000 NA
ATOM     19  C   UNL     1       6.630  -6.430   6.271  0.00  0.00    +0.000 A 
ATOM     20  C   UNL     1       6.018  -5.585   5.338  0.00  0.00    +0.000 A 
BRANCH  19  21
ATOM     21  C   UNL     1       7.469  -5.905   7.375  0.00  0.00    +0.000 A 
ATOM     22  C   UNL     1       8.030  -6.743   8.341  0.00  0.00    +0.000 A 
ATOM     23  C   UNL     1       8.758  -6.192   9.392  0.00  0.00    +0.000 A 
ATOM     24  C   UNL     1       8.921  -4.816   9.456  0.00  0.00    +0.000 A 
ATOM     25  C   UNL     1       8.349  -4.045   8.459  0.00  0.00    +0.000 A 
ATOM     26  N   UNL     1       7.634  -4.553   7.431  0.00  0.00    +0.000 NA
ENDBRANCH  19  21
ENDBRANCH  14  15
ENDBRANCH   1  14
TORSDOF 5
