REMARK  Name = 
REMARK  5 active torsions:
REMARK  status: ('A' for Active; 'I' for Inactive)
REMARK    1  A    between atoms: C_2  and  C_4
REMARK    2  A    between atoms: C_7  and  N_8
REMARK    3  A    between atoms: N_8  and  C_9
REMARK    4  A    between atoms: C_9  and  C_10
REMARK    5  A    between atoms: C_12  and  N_13
REMARK                            x       y       z     vdW  Elec       q    Type
REMARK                         _______ _______ _______ _____ _____    ______ ____
ROOT
ATOM      1  C   UNL     1       5.041  -0.144   6.178  0.00  0.00    +0.000 C 
ENDROOT
BRANCH   1   2
ATOM      2  C   UNL     1       5.995   0.240   7.295  0.00  0.00    +0.000 A 
ATOM      3  C   UNL     1       6.132   1.568   7.710  0.00  0.00    +0.000 A 
ATOM      4  C   UNL     1       6.988   1.910   8.763  0.00  0.00    +0.000 A 
ATOM      5  C   UNL     1       7.665   0.852   9.373  0.00  0.00    +0.000 A 
ATOM      6  C   UNL     1       7.466  -0.445   8.928  0.00  0.00    +0.000 A 
ATOM      7  N   UNL     1       6.650  -0.776   7.909  0.00  0.00    +0.000 NA
BRANCH   4   8
ATOM      8  N   UNL     1       7.136   3.212   9.195  0.00  0.00    +0.000 N 
ATOM      9  C   UNL     1       8.401   3.733   9.735  0.00  0.00    +0.000 C 
ATOM     10  C   UNL     1       8.143   4.490  11.058  0.00  0.00    +0.000 C 
ATOM     11  N   UNL     1       7.113   5.547  10.947  0.00  0.00    +0.000 NA
ATOM     12  C   UNL     1       5.872   4.942  10.414  0.00  0.00    +0.000 C 
ATOM     13  C   UNL     1       6.065   4.210   9.064  0.00  0.00    +0.000 C 
ATOM     14  H   UNL     1       7.440   6.234  10.269  0.00  0.00    +0.000 HD
ENDBRANCH   4   8
ENDBRANCH   1   2
BRANCH   1  15
ATOM     15  N   UNL     1       4.909   0.864   5.130  0.00  0.00    +0.000 N 
ATOM     16  H   UNL     1       4.144   1.520   5.228  0.00  0.00    +0.000 HD
BRANCH  15  20
ATOM     17  C   UNL     1       7.457   1.362   1.819  0.00  0.00    +0.000 A 
ATOM     18  C   UNL     1       7.683   0.319   2.714  0.00  0.00    +0.000 A 
ATOM     19  C   UNL     1       6.853   0.156   3.828  0.00  0.00    +0.000 A 
ATOM     20  C   UNL     1       5.776   1.020   4.069  0.00  0.00    +0.000 A 
ATOM     21  C   UNL     1       5.582   2.081   3.172  0.00  0.00    +0.000 A 
ATOM     22  C   UNL     1       6.416   2.258   2.061  0.00  0.00    +0.000 A 
BRANCH  17  24
ATOM     23  N   UNL     1       8.903   0.448   0.088  0.00  0.00    +0.000 N 
ATOM     24  C   UNL     1       8.316   1.562   0.624  0.00  0.00    +0.000 C 
ATOM     25  O   UNL     1       8.468   2.665   0.115  0.00  0.00    +0.000 OA
ATOM     26  H   UNL     1       9.406   0.578  -0.780  0.00  0.00    +0.000 HD
ATOM     27  H   UNL     1       8.610  -0.484   0.327  0.00  0.00    +0.000 HD
ENDBRANCH  17  24
ENDBRANCH  15  20
ENDBRANCH   1  15
TORSDOF 5
