REMARK  Name = 
REMARK  7 active torsions:
REMARK  status: ('A' for Active; 'I' for Inactive)
REMARK    1  A    between atoms: C_1  and  C_2
REMARK    2  A    between atoms: C_2  and  C_3
REMARK    3  A    between atoms: C_2  and  C_4
REMARK    4  A    between atoms: C_2  and  C_18
REMARK    5  A    between atoms: C_5  and  C_6
REMARK    6  A    between atoms: C_10  and  C_11
REMARK    7  A    between atoms: C_21  and  C_22
REMARK                            x       y       z     vdW  Elec       q    Type
REMARK                         _______ _______ _______ _____ _____    ______ ____
ROOT
ATOM      1  C   UNL     1       1.528   1.180  -0.028  0.00  0.00    +0.000 C 
ATOM      2  C   UNL     1       2.485  -0.038  -0.109  0.00  0.00    +0.000 C 
ATOM      3  C   UNL     1       3.711   0.426  -0.931  0.00  0.00    +0.000 C 
ENDROOT
BRANCH   2   4
ATOM      4  C   UNL     1       1.723  -1.220  -0.738  0.00  0.00    +0.000 A 
ATOM      5  C   UNL     1       2.090  -1.795  -1.965  0.00  0.00    +0.000 A 
ATOM      6  C   UNL     1       1.345  -2.839  -2.523  0.00  0.00    +0.000 A 
ATOM      7  C   UNL     1       0.223  -3.345  -1.861  0.00  0.00    +0.000 A 
ATOM      8  C   UNL     1      -0.147  -2.804  -0.629  0.00  0.00    +0.000 A 
ATOM      9  C   UNL     1       0.598  -1.757  -0.076  0.00  0.00    +0.000 A 
BRANCH   7  10
ATOM     10  C   UNL     1      -0.566  -4.417  -2.528  0.00  0.00    +0.000 C 
ATOM     11  N   UNL     1      -1.307  -5.244  -1.735  0.00  0.00    +0.000 N 
ATOM     12  O   UNL     1      -0.534  -4.571  -3.742  0.00  0.00    +0.000 OA
ATOM     13  H   UNL     1      -1.217  -5.280  -0.730  0.00  0.00    +0.000 HD
ATOM     14  H   UNL     1      -1.772  -6.014  -2.200  0.00  0.00    +0.000 HD
ENDBRANCH   7  10
ENDBRANCH   2   4
BRANCH   2  15
ATOM     15  C   UNL     1       3.034  -0.466   1.254  0.00  0.00    +0.000 C 
ATOM     16  C   UNL     1       2.743   0.103   2.434  0.00  0.00    +0.000 C 
BRANCH  16  17
ATOM     17  C   UNL     1       3.305  -0.278   3.735  0.00  0.00    +0.000 A 
ATOM     18  C   UNL     1       4.568  -0.850   3.881  0.00  0.00    +0.000 A 
ATOM     19  C   UNL     1       5.084  -1.088   5.153  0.00  0.00    +0.000 A 
ATOM     20  C   UNL     1       4.354  -0.722   6.286  0.00  0.00    +0.000 A 
ATOM     21  C   UNL     1       3.097  -0.100   6.177  0.00  0.00    +0.000 A 
ATOM     22  C   UNL     1       2.581   0.079   4.882  0.00  0.00    +0.000 A 
BRANCH  21  23
ATOM     23  C   UNL     1       2.391   0.468   7.351  0.00  0.00    +0.000 A 
ATOM     24  C   UNL     1       3.123   1.056   8.401  0.00  0.00    +0.000 A 
ATOM     25  C   UNL     1       2.486   1.715   9.455  0.00  0.00    +0.000 A 
ATOM     26  C   UNL     1       1.101   1.811   9.474  0.00  0.00    +0.000 A 
ATOM     27  C   UNL     1       0.352   1.222   8.461  0.00  0.00    +0.000 A 
ATOM     28  C   UNL     1       0.989   0.546   7.416  0.00  0.00    +0.000 A 
ENDBRANCH  21  23
ENDBRANCH  16  17
ENDBRANCH   2  15
TORSDOF 5
