REMARK  Name = 
REMARK  10 active torsions:
REMARK  status: ('A' for Active; 'I' for Inactive)
REMARK    1  A    between atoms: C_1  and  C_2
REMARK    2  A    between atoms: C_2  and  C_3
REMARK    3  A    between atoms: C_3  and  N_4
REMARK    4  A    between atoms: C_3  and  C_21
REMARK    5  A    between atoms: N_4  and  C_5
REMARK    6  A    between atoms: C_5  and  C_6
REMARK    7  A    between atoms: C_9  and  C_10
REMARK    8  A    between atoms: C_10  and  N_11
REMARK    9  A    between atoms: N_11  and  C_12
REMARK   10  A    between atoms: C_12  and  C_13
REMARK                            x       y       z     vdW  Elec       q    Type
REMARK                         _______ _______ _______ _____ _____    ______ ____
ROOT
ATOM      1  C   UNL     1       0.935  -2.418  -0.952  0.00  0.00    +0.000 C 
ENDROOT
BRANCH   1   2
ATOM      2  C   UNL     1       0.562  -3.345  -2.084  0.00  0.00    +0.000 A 
ATOM      3  C   UNL     1       0.971  -4.685  -2.088  0.00  0.00    +0.000 A 
ATOM      4  C   UNL     1       0.601  -5.532  -3.134  0.00  0.00    +0.000 A 
ATOM      5  C   UNL     1      -0.199  -5.063  -4.187  0.00  0.00    +0.000 A 
ATOM      6  C   UNL     1      -0.621  -3.730  -4.175  0.00  0.00    +0.000 A 
ATOM      7  C   UNL     1      -0.240  -2.879  -3.137  0.00  0.00    +0.000 A 
BRANCH   5   8
ATOM      8  C   UNL     1      -0.585  -5.982  -5.319  0.00  0.00    +0.000 C 
BRANCH   8   9
ATOM      9  N   UNL     1      -1.320  -7.135  -4.814  0.00  0.00    +0.000 NA
ATOM     10  H   UNL     1      -2.151  -6.810  -4.321  0.00  0.00    +0.000 HD
BRANCH   9  11
ATOM     11  C   UNL     1      -1.714  -8.034  -5.890  0.00  0.00    +0.000 C 
BRANCH  11  12
ATOM     12  C   UNL     1      -2.464  -9.215  -5.328  0.00  0.00    +0.000 A 
ATOM     13  C   UNL     1      -3.781  -9.483  -5.710  0.00  0.00    +0.000 A 
ATOM     14  C   UNL     1      -4.426 -10.570  -5.142  0.00  0.00    +0.000 A 
ATOM     15  N   UNL     1      -3.859 -11.395  -4.235  0.00  0.00    +0.000 NA
ATOM     16  C   UNL     1      -2.587 -11.119  -3.880  0.00  0.00    +0.000 A 
ATOM     17  C   UNL     1      -1.857 -10.061  -4.394  0.00  0.00    +0.000 A 
ENDBRANCH  11  12
ENDBRANCH   9  11
ENDBRANCH   8   9
ENDBRANCH   5   8
ENDBRANCH   1   2
BRANCH   1  18
ATOM     18  N   UNL     1       2.379  -2.221  -0.862  0.00  0.00    +0.000 NA
ATOM     19  H   UNL     1       2.837  -3.121  -0.732  0.00  0.00    +0.000 HD
BRANCH  18  20
ATOM     20  C   UNL     1       2.823  -1.299   0.191  0.00  0.00    +0.000 C 
BRANCH  20  21
ATOM     21  C   UNL     1       2.337   0.102  -0.148  0.00  0.00    +0.000 A 
ATOM     22  C   UNL     1       1.157   0.663   0.322  0.00  0.00    +0.000 A 
ATOM     23  S   UNL     1       0.855   2.226  -0.285  0.00  0.00    +0.000 S 
ATOM     24  C   UNL     1       2.302   2.219  -1.180  0.00  0.00    +0.000 A 
ATOM     25  N   UNL     1       2.657   3.291  -1.935  0.00  0.00    +0.000 NA
ATOM     26  C   UNL     1       3.771   3.140  -2.571  0.00  0.00    +0.000 A 
ATOM     27  N   UNL     1       4.560   2.018  -2.519  0.00  0.00    +0.000 N 
ATOM     28  C   UNL     1       4.257   0.917  -1.745  0.00  0.00    +0.000 A 
ATOM     29  O   UNL     1       5.030  -0.034  -1.675  0.00  0.00    +0.000 OA
ATOM     30  C   UNL     1       3.004   1.037  -1.024  0.00  0.00    +0.000 A 
ATOM     31  H   UNL     1       5.430   1.975  -3.030  0.00  0.00    +0.000 HD
ENDBRANCH  20  21
BRANCH  20  33
ATOM     32  C   UNL     1       2.989  -3.096   2.041  0.00  0.00    +0.000 C 
ATOM     33  C   UNL     1       2.474  -1.722   1.638  0.00  0.00    +0.000 C 
ENDBRANCH  20  33
ENDBRANCH  18  20
ENDBRANCH   1  18
TORSDOF 9
