REMARK  Name = 
REMARK  5 active torsions:
REMARK  status: ('A' for Active; 'I' for Inactive)
REMARK    1  A    between atoms: C_2  and  C_4
REMARK    2  A    between atoms: C_7  and  O_8
REMARK    3  A    between atoms: O_8  and  C_9
REMARK    4  A    between atoms: C_9  and  C_10
REMARK    5  A    between atoms: C_15  and  C_16
REMARK                            x       y       z     vdW  Elec       q    Type
REMARK                         _______ _______ _______ _____ _____    ______ ____
ROOT
ATOM      1  C   UNL     1       5.729  -3.084  -6.408  0.00  0.00    +0.000 A 
ATOM      2  C   UNL     1       6.709  -2.507  -7.219  0.00  0.00    +0.000 A 
ATOM      3  C   UNL     1       7.500  -3.319  -8.019  0.00  0.00    +0.000 A 
ATOM      4  F   UNL     1       8.440  -2.761  -8.793  0.00  0.00    +0.000 F 
ATOM      5  C   UNL     1       7.341  -4.703  -8.028  0.00  0.00    +0.000 A 
ATOM      6  C   UNL     1       6.379  -5.322  -7.215  0.00  0.00    +0.000 A 
ATOM      7  C   UNL     1       5.572  -4.484  -6.420  0.00  0.00    +0.000 A 
ENDROOT
BRANCH   6   8
ATOM      8  C   UNL     1       6.239  -6.793  -7.163  0.00  0.00    +0.000 A 
ATOM      9  C   UNL     1       7.347  -7.646  -7.257  0.00  0.00    +0.000 A 
ATOM     10  N   UNL     1       7.304  -9.003  -7.194  0.00  0.00    +0.000 NA
ATOM     11  C   UNL     1       6.084  -9.554  -7.015  0.00  0.00    +0.000 A 
ATOM     12  C   UNL     1       4.926  -8.811  -6.907  0.00  0.00    +0.000 A 
ATOM     13  F   UNL     1       3.744  -9.412  -6.724  0.00  0.00    +0.000 F 
ATOM     14  C   UNL     1       4.999  -7.425  -6.987  0.00  0.00    +0.000 A 
ENDBRANCH   6   8
BRANCH   1  15
ATOM     15  C   UNL     1       4.851  -2.227  -5.531  0.00  0.00    +0.000 C 
BRANCH  15  16
ATOM     16  O   UNL     1       4.998  -2.665  -4.181  0.00  0.00    +0.000 OA
BRANCH  16  20
ATOM     17  C   UNL     1       2.894  -0.815  -1.094  0.00  0.00    +0.000 A 
ATOM     18  C   UNL     1       2.723  -0.337  -2.399  0.00  0.00    +0.000 A 
ATOM     19  C   UNL     1       3.408  -0.930  -3.462  0.00  0.00    +0.000 A 
ATOM     20  C   UNL     1       4.274  -2.001  -3.231  0.00  0.00    +0.000 A 
ATOM     21  C   UNL     1       4.456  -2.466  -1.926  0.00  0.00    +0.000 A 
ATOM     22  C   UNL     1       3.775  -1.873  -0.859  0.00  0.00    +0.000 A 
BRANCH  17  24
ATOM     23  N   UNL     1       0.968   0.373  -0.200  0.00  0.00    +0.000 N 
ATOM     24  C   UNL     1       2.177  -0.211   0.058  0.00  0.00    +0.000 C 
ATOM     25  O   UNL     1       2.623  -0.267   1.195  0.00  0.00    +0.000 OA
ATOM     26  H   UNL     1       0.439   0.672   0.610  0.00  0.00    +0.000 HD
ATOM     27  H   UNL     1       0.457   0.199  -1.053  0.00  0.00    +0.000 HD
ENDBRANCH  17  24
ENDBRANCH  16  20
ENDBRANCH  15  16
ENDBRANCH   1  15
TORSDOF 5
