REMARK  Name = 
REMARK  5 active torsions:
REMARK  status: ('A' for Active; 'I' for Inactive)
REMARK    1  A    between atoms: C_2  and  C_3
REMARK    2  A    between atoms: C_6  and  N_7
REMARK    3  A    between atoms: N_7  and  C_8
REMARK    4  A    between atoms: C_8  and  C_9
REMARK    5  A    between atoms: C_13  and  C_14
REMARK                            x       y       z     vdW  Elec       q    Type
REMARK                         _______ _______ _______ _____ _____    ______ ____
ROOT
ATOM      1  C   UNL     1       4.556  -1.131   0.109  0.00  0.00    +0.000 C 
ATOM      2  C   UNL     1       4.781  -2.256  -0.891  0.00  0.00    +0.000 C 
ATOM      3  C   UNL     1       4.319  -2.596   0.482  0.00  0.00    +0.000 C 
ENDROOT
BRANCH   1   4
ATOM      4  C   UNL     1       5.696  -0.542   0.933  0.00  0.00    +0.000 A 
ATOM      5  C   UNL     1       5.545  -0.324   2.314  0.00  0.00    +0.000 A 
ATOM      6  C   UNL     1       6.648  -0.093   3.132  0.00  0.00    +0.000 A 
ATOM      7  C   UNL     1       7.927  -0.066   2.574  0.00  0.00    +0.000 A 
ATOM      8  C   UNL     1       8.121  -0.205   1.192  0.00  0.00    +0.000 A 
ATOM      9  C   UNL     1       6.980  -0.391   0.389  0.00  0.00    +0.000 A 
BRANCH   8  10
ATOM     10  C   UNL     1       9.466  -0.275   0.591  0.00  0.00    +0.000 A 
ATOM     11  C   UNL     1       9.744   0.297  -0.664  0.00  0.00    +0.000 A 
ATOM     12  C   UNL     1      11.003   0.170  -1.264  0.00  0.00    +0.000 A 
ATOM     13  C   UNL     1      12.015  -0.524  -0.616  0.00  0.00    +0.000 A 
ATOM     14  C   UNL     1      11.754  -1.095   0.627  0.00  0.00    +0.000 A 
ATOM     15  F   UNL     1      12.718  -1.785   1.254  0.00  0.00    +0.000 F 
ATOM     16  C   UNL     1      10.504  -0.980   1.226  0.00  0.00    +0.000 A 
ENDBRANCH   8  10
ENDBRANCH   1   4
BRANCH   1  17
ATOM     17  N   UNL     1       3.423  -0.224  -0.120  0.00  0.00    +0.000 N 
ATOM     18  H   UNL     1       2.537  -0.446   0.321  0.00  0.00    +0.000 HD
BRANCH  17  22
ATOM     19  C   UNL     1       3.076   2.507  -3.339  0.00  0.00    +0.000 A 
ATOM     20  C   UNL     1       4.117   1.577  -3.335  0.00  0.00    +0.000 A 
ATOM     21  C   UNL     1       4.244   0.670  -2.277  0.00  0.00    +0.000 A 
ATOM     22  C   UNL     1       3.314   0.637  -1.230  0.00  0.00    +0.000 A 
ATOM     23  C   UNL     1       2.286   1.592  -1.240  0.00  0.00    +0.000 A 
ATOM     24  C   UNL     1       2.165   2.520  -2.282  0.00  0.00    +0.000 A 
BRANCH  19  26
ATOM     25  N   UNL     1       2.859   4.216  -5.280  0.00  0.00    +0.000 NA
ATOM     26  C   UNL     1       2.957   3.452  -4.408  0.00  0.00    +0.000 C 
ENDBRANCH  19  26
ENDBRANCH  17  22
ENDBRANCH   1  17
TORSDOF 5
