REMARK  Name = 
REMARK  10 active torsions:
REMARK  status: ('A' for Active; 'I' for Inactive)
REMARK    1  A    between atoms: N_1  and  C_2
REMARK    2  A    between atoms: C_2  and  C_3
REMARK    3  A    between atoms: C_3  and  N_4
REMARK    4  A    between atoms: N_4  and  C_5
REMARK    5  A    between atoms: C_5  and  C_6
REMARK    6  A    between atoms: C_9  and  C_10
REMARK    7  A    between atoms: C_10  and  C_11
REMARK    8  A    between atoms: C_14  and  C_15
REMARK    9  A    between atoms: C_15  and  N_16
REMARK   10  A    between atoms: C_17  and  C_19
REMARK                            x       y       z     vdW  Elec       q    Type
REMARK                         _______ _______ _______ _____ _____    ______ ____
ROOT
ATOM      1  C   UNL     1      11.296  -2.883  -0.394  0.00  0.00    +0.000 A 
ATOM      2  C   UNL     1      11.033  -4.201  -0.028  0.00  0.00    +0.000 A 
ATOM      3  C   UNL     1      11.602  -4.702   1.143  0.00  0.00    +0.000 A 
ATOM      4  C   UNL     1      12.403  -3.877   1.933  0.00  0.00    +0.000 A 
ATOM      5  C   UNL     1      12.637  -2.587   1.471  0.00  0.00    +0.000 A 
ATOM      6  N   UNL     1      12.104  -2.076   0.338  0.00  0.00    +0.000 NA
ENDROOT
BRANCH   1   7
ATOM      7  C   UNL     1      10.643  -2.272  -1.613  0.00  0.00    +0.000 C 
BRANCH   7  11
ATOM      8  C   UNL     1       6.965  -0.282  -0.771  0.00  0.00    +0.000 A 
ATOM      9  C   UNL     1       6.953  -1.342  -1.671  0.00  0.00    +0.000 A 
ATOM     10  C   UNL     1       8.145  -2.006  -1.950  0.00  0.00    +0.000 A 
ATOM     11  C   UNL     1       9.327  -1.597  -1.328  0.00  0.00    +0.000 A 
ATOM     12  C   UNL     1       9.245  -0.520  -0.449  0.00  0.00    +0.000 A 
ATOM     13  N   UNL     1       8.100   0.139  -0.156  0.00  0.00    +0.000 NA
BRANCH   8  14
ATOM     14  C   UNL     1       5.662   0.382  -0.366  0.00  0.00    +0.000 C 
BRANCH  14  15
ATOM     15  N   UNL     1       4.719  -0.519   0.332  0.00  0.00    +0.000 NA
ATOM     16  H   UNL     1       3.946   0.070   0.655  0.00  0.00    +0.000 HD
BRANCH  15  17
ATOM     17  C   UNL     1       5.312  -1.098   1.554  0.00  0.00    +0.000 C 
BRANCH  17  18
ATOM     18  C   UNL     1       5.617  -0.060   2.651  0.00  0.00    +0.000 C 
BRANCH  18  19
ATOM     19  N   UNL     1       4.423   0.733   2.974  0.00  0.00    +0.000 NA
ATOM     20  H   UNL     1       4.671   1.415   3.690  0.00  0.00    +0.000 HD
ATOM     21  H   UNL     1       3.728   0.118   3.397  0.00  0.00    +0.000 HD
ENDBRANCH  18  19
ENDBRANCH  17  18
ENDBRANCH  15  17
ENDBRANCH  14  15
ENDBRANCH   8  14
ENDBRANCH   7  11
ENDBRANCH   1   7
BRANCH   4  22
ATOM     22  C   UNL     1      13.022  -4.355   3.211  0.00  0.00    +0.000 C 
BRANCH  22  23
ATOM     23  N   UNL     1      14.329  -4.916   2.980  0.00  0.00    +0.000 N 
ATOM     24  C   UNL     1      15.038  -5.506   3.995  0.00  0.00    +0.000 C 
ATOM     25  O   UNL     1      14.570  -5.640   5.122  0.00  0.00    +0.000 OA
ATOM     26  H   UNL     1      14.817  -4.622   2.141  0.00  0.00    +0.000 HD
BRANCH  24  27
ATOM     27  C   UNL     1      16.366  -6.026   3.646  0.00  0.00    +0.000 A 
ATOM     28  C   UNL     1      16.938  -7.023   4.424  0.00  0.00    +0.000 A 
ATOM     29  S   UNL     1      18.454  -7.554   3.849  0.00  0.00    +0.000 S 
ATOM     30  C   UNL     1      18.424  -6.429   2.573  0.00  0.00    +0.000 A 
ATOM     31  N   UNL     1      19.462  -6.337   1.695  0.00  0.00    +0.000 NA
ATOM     32  C   UNL     1      19.323  -5.421   0.800  0.00  0.00    +0.000 A 
ATOM     33  N   UNL     1      18.239  -4.587   0.695  0.00  0.00    +0.000 N 
ATOM     34  C   UNL     1      17.155  -4.666   1.535  0.00  0.00    +0.000 A 
ATOM     35  O   UNL     1      16.176  -3.943   1.385  0.00  0.00    +0.000 OA
ATOM     36  C   UNL     1      17.267  -5.674   2.574  0.00  0.00    +0.000 A 
ATOM     37  H   UNL     1      18.187  -3.895  -0.037  0.00  0.00    +0.000 HD
ENDBRANCH  24  27
ENDBRANCH  22  23
ENDBRANCH   4  22
TORSDOF 10
