REMARK  Name = 
REMARK  7 active torsions:
REMARK  status: ('A' for Active; 'I' for Inactive)
REMARK    1  A    between atoms: C_1  and  O_2
REMARK    2  A    between atoms: O_2  and  C_3
REMARK    3  A    between atoms: C_5  and  N_6
REMARK    4  A    between atoms: N_6  and  C_7
REMARK    5  A    between atoms: C_7  and  C_8
REMARK    6  A    between atoms: C_7  and  C_9
REMARK    7  A    between atoms: C_17  and  C_18
REMARK                            x       y       z     vdW  Elec       q    Type
REMARK                         _______ _______ _______ _____ _____    ______ ____
ROOT
ATOM      1  C   UNL     1       2.675  -0.911   1.487  0.00  0.00    +0.000 A 
ATOM      2  C   UNL     1       3.702  -0.486   2.348  0.00  0.00    +0.000 A 
ATOM      3  C   UNL     1       4.676  -1.373   2.832  0.00  0.00    +0.000 A 
ATOM      4  C   UNL     1       4.588  -2.712   2.454  0.00  0.00    +0.000 A 
ATOM      5  C   UNL     1       3.574  -3.151   1.592  0.00  0.00    +0.000 A 
ATOM      6  C   UNL     1       2.611  -2.256   1.112  0.00  0.00    +0.000 A 
ENDROOT
BRANCH   1   8
ATOM      7  C   UNL     1       2.022   1.300   0.945  0.00  0.00    +0.000 C 
ATOM      8  O   UNL     1       1.686  -0.081   1.027  0.00  0.00    +0.000 OA
ENDBRANCH   1   8
BRANCH   3   9
ATOM      9  N   UNL     1       5.648  -0.854   3.678  0.00  0.00    +0.000 N 
ATOM     10  H   UNL     1       6.152  -0.070   3.273  0.00  0.00    +0.000 HD
BRANCH   9  11
ATOM     11  C   UNL     1       6.428  -1.666   4.606  0.00  0.00    +0.000 C 
ATOM     12  C   UNL     1       7.693  -2.216   3.947  0.00  0.00    +0.000 C 
BRANCH  11  13
ATOM     13  C   UNL     1       6.766  -0.824   5.822  0.00  0.00    +0.000 A 
ATOM     14  C   UNL     1       7.582   0.315   5.768  0.00  0.00    +0.000 A 
ATOM     15  C   UNL     1       7.879   1.017   6.934  0.00  0.00    +0.000 A 
ATOM     16  C   UNL     1       7.346   0.563   8.127  0.00  0.00    +0.000 A 
ATOM     17  N   UNL     1       6.544  -0.516   8.224  0.00  0.00    +0.000 NA
ATOM     18  C   UNL     1       6.267  -1.175   7.075  0.00  0.00    +0.000 A 
ENDBRANCH  11  13
ENDBRANCH   9  11
ENDBRANCH   3   9
BRANCH   6  19
ATOM     19  C   UNL     1       1.589  -2.739   0.225  0.00  0.00    +0.000 C 
ATOM     20  N   UNL     1       0.786  -3.172  -0.498  0.00  0.00    +0.000 NA
ENDBRANCH   6  19
TORSDOF 5
