REMARK  Name = 
REMARK  5 active torsions:
REMARK  status: ('A' for Active; 'I' for Inactive)
REMARK    1  A    between atoms: C_1  and  C_2
REMARK    2  A    between atoms: C_4  and  C_5
REMARK    3  A    between atoms: N_10  and  C_11
REMARK    4  A    between atoms: C_11  and  C_12
REMARK    5  A    between atoms: C_16  and  C_17
REMARK                            x       y       z     vdW  Elec       q    Type
REMARK                         _______ _______ _______ _____ _____    ______ ____
ROOT
ATOM      1  C   UNL     1      -2.222  -0.186   0.797  0.00  0.00    +0.000 C 
ATOM      2  C   UNL     1      -0.830  -0.142   0.244  0.00  0.00    +0.000 A 
ATOM      3  C   UNL     1      -0.230  -1.269  -0.255  0.00  0.00    +0.000 A 
ATOM      4  C   UNL     1       1.044  -1.087  -0.737  0.00  0.00    +0.000 A 
ATOM      5  N   UNL     1       1.704   0.100  -0.750  0.00  0.00    +0.000 NA
ATOM      6  C   UNL     1       1.029   1.143  -0.262  0.00  0.00    +0.000 A 
ATOM      7  N   UNL     1       1.562   2.419  -0.299  0.00  0.00    +0.000 N 
ATOM      8  N   UNL     1      -0.207   1.058   0.252  0.00  0.00    +0.000 NA
ATOM      9  H   UNL     1       1.021   2.987   0.343  0.00  0.00    +0.000 HD
ENDROOT
BRANCH   4  10
ATOM     10  C   UNL     1       1.770  -2.264  -1.309  0.00  0.00    +0.000 C 
ATOM     11  N   UNL     1       3.028  -2.012  -1.780  0.00  0.00    +0.000 N 
ATOM     12  O   UNL     1       1.275  -3.382  -1.360  0.00  0.00    +0.000 OA
ATOM     13  H   UNL     1       3.391  -1.067  -1.770  0.00  0.00    +0.000 HD
ATOM     14  H   UNL     1       3.552  -2.756  -2.216  0.00  0.00    +0.000 HD
ENDBRANCH   4  10
BRANCH   7  15
ATOM     15  C   UNL     1       2.995   2.521  -0.164  0.00  0.00    +0.000 C 
BRANCH  15  16
ATOM     16  C   UNL     1       3.403   3.981  -0.190  0.00  0.00    +0.000 A 
ATOM     17  C   UNL     1       3.522   4.716   0.994  0.00  0.00    +0.000 A 
ATOM     18  C   UNL     1       3.913   6.053   0.953  0.00  0.00    +0.000 A 
ATOM     19  C   UNL     1       4.189   6.670  -0.271  0.00  0.00    +0.000 A 
ATOM     20  C   UNL     1       4.078   5.969  -1.485  0.00  0.00    +0.000 A 
ATOM     21  C   UNL     1       3.663   4.623  -1.415  0.00  0.00    +0.000 A 
BRANCH  20  22
ATOM     22  C   UNL     1       4.416   6.602  -2.778  0.00  0.00    +0.000 A 
ATOM     23  C   UNL     1       5.471   7.517  -2.906  0.00  0.00    +0.000 A 
ATOM     24  N   UNL     1       5.860   8.116  -4.063  0.00  0.00    +0.000 NA
ATOM     25  C   UNL     1       5.165   7.782  -5.171  0.00  0.00    +0.000 A 
ATOM     26  C   UNL     1       4.107   6.894  -5.162  0.00  0.00    +0.000 A 
ATOM     27  F   UNL     1       3.459   6.595  -6.295  0.00  0.00    +0.000 F 
ATOM     28  C   UNL     1       3.724   6.305  -3.962  0.00  0.00    +0.000 A 
ENDBRANCH  20  22
ENDBRANCH  15  16
ENDBRANCH   7  15
TORSDOF 4
