REMARK  Name = 
REMARK  6 active torsions:
REMARK  status: ('A' for Active; 'I' for Inactive)
REMARK    1  A    between atoms: C_1  and  C_2
REMARK    2  A    between atoms: C_2  and  N_3
REMARK    3  A    between atoms: C_2  and  C_16
REMARK    4  A    between atoms: C_4  and  C_6
REMARK    5  A    between atoms: C_19  and  O_20
REMARK    6  A    between atoms: O_20  and  C_21
REMARK                            x       y       z     vdW  Elec       q    Type
REMARK                         _______ _______ _______ _____ _____    ______ ____
ROOT
ATOM      1  C   UNL     1       0.876  -0.020   0.054  0.00  0.00    +0.000 C 
ATOM      2  C   UNL     1       2.403   0.050  -0.008  0.00  0.00    +0.000 C 
ENDROOT
BRANCH   2   3
ATOM      3  C   UNL     1       2.896   1.467  -0.245  0.00  0.00    +0.000 A 
ATOM      4  C   UNL     1       3.722   2.069   0.715  0.00  0.00    +0.000 A 
ATOM      5  C   UNL     1       4.225   3.356   0.517  0.00  0.00    +0.000 A 
ATOM      6  C   UNL     1       3.956   4.045  -0.665  0.00  0.00    +0.000 A 
ATOM      7  C   UNL     1       3.107   3.471  -1.615  0.00  0.00    +0.000 A 
ATOM      8  C   UNL     1       2.584   2.189  -1.408  0.00  0.00    +0.000 A 
BRANCH   6   9
ATOM      9  O   UNL     1       4.423   5.312  -0.933  0.00  0.00    +0.000 OA
BRANCH   9  10
ATOM     10  C   UNL     1       5.716   5.633  -0.529  0.00  0.00    +0.000 A 
ATOM     11  C   UNL     1       5.976   6.973  -0.280  0.00  0.00    +0.000 A 
ATOM     12  C   UNL     1       7.253   7.329   0.143  0.00  0.00    +0.000 A 
ATOM     13  C   UNL     1       8.220   6.340   0.300  0.00  0.00    +0.000 A 
ATOM     14  C   UNL     1       7.875   5.034   0.006  0.00  0.00    +0.000 A 
ATOM     15  N   UNL     1       6.652   4.660  -0.421  0.00  0.00    +0.000 NA
ENDBRANCH   9  10
ENDBRANCH   6   9
ENDBRANCH   2   3
BRANCH   2  16
ATOM     16  N   UNL     1       2.927  -0.846  -1.020  0.00  0.00    +0.000 N 
ATOM     17  C   UNL     1       3.129  -2.181  -0.789  0.00  0.00    +0.000 C 
ATOM     18  O   UNL     1       2.885  -2.702   0.296  0.00  0.00    +0.000 OA
ATOM     19  H   UNL     1       3.256  -0.428  -1.885  0.00  0.00    +0.000 HD
BRANCH  17  20
ATOM     20  C   UNL     1       3.600  -2.980  -1.928  0.00  0.00    +0.000 A 
ATOM     21  C   UNL     1       3.387  -4.353  -1.936  0.00  0.00    +0.000 A 
ATOM     22  S   UNL     1       3.960  -5.126  -3.343  0.00  0.00    +0.000 S 
ATOM     23  C   UNL     1       4.565  -3.662  -3.966  0.00  0.00    +0.000 A 
ATOM     24  N   UNL     1       5.219  -3.628  -5.159  0.00  0.00    +0.000 NA
ATOM     25  C   UNL     1       5.669  -2.463  -5.486  0.00  0.00    +0.000 A 
ATOM     26  N   UNL     1       5.510  -1.327  -4.738  0.00  0.00    +0.000 N 
ATOM     27  C   UNL     1       4.787  -1.300  -3.570  0.00  0.00    +0.000 A 
ATOM     28  O   UNL     1       4.548  -0.242  -2.996  0.00  0.00    +0.000 OA
ATOM     29  C   UNL     1       4.306  -2.593  -3.127  0.00  0.00    +0.000 A 
ATOM     30  H   UNL     1       5.862  -0.437  -5.062  0.00  0.00    +0.000 HD
ENDBRANCH  17  20
ENDBRANCH   2  16
TORSDOF 5
