REMARK  Name = 
REMARK  6 active torsions:
REMARK  status: ('A' for Active; 'I' for Inactive)
REMARK    1  A    between atoms: N_1  and  S_2
REMARK    2  A    between atoms: S_2  and  C_5
REMARK    3  A    between atoms: C_8  and  O_9
REMARK    4  A    between atoms: O_9  and  C_10
REMARK    5  A    between atoms: C_10  and  C_11
REMARK    6  A    between atoms: C_11  and  C_12
REMARK                            x       y       z     vdW  Elec       q    Type
REMARK                         _______ _______ _______ _____ _____    ______ ____
ROOT
ATOM      1  C   UNL     1       3.352  -1.570  -0.582  0.00  0.00    +0.000 A 
ATOM      2  C   UNL     1       3.820  -1.559  -1.895  0.00  0.00    +0.000 A 
ATOM      3  C   UNL     1       4.189  -2.762  -2.506  0.00  0.00    +0.000 A 
ATOM      4  C   UNL     1       4.104  -3.968  -1.804  0.00  0.00    +0.000 A 
ATOM      5  C   UNL     1       3.613  -3.969  -0.495  0.00  0.00    +0.000 A 
ATOM      6  C   UNL     1       3.249  -2.771   0.125  0.00  0.00    +0.000 A 
ENDROOT
BRANCH   1   7
ATOM      7  S   UNL     1       2.959  -0.050   0.231  0.00  0.00    +0.000 S 
ATOM      8  O   UNL     1       3.642   1.038  -0.435  0.00  0.00    +0.000 OA
ATOM      9  O   UNL     1       3.031  -0.242   1.658  0.00  0.00    +0.000 OA
BRANCH   7  10
ATOM     10  N   UNL     1       1.330   0.136  -0.123  0.00  0.00    +0.000 NA
ATOM     11  H   UNL     1       1.172   1.066  -0.517  0.00  0.00    +0.000 HD
ATOM     12  H   UNL     1       0.767  -0.054   0.705  0.00  0.00    +0.000 HD
ENDBRANCH   7  10
ENDBRANCH   1   7
BRANCH   4  13
ATOM     13  O   UNL     1       4.436  -5.197  -2.311  0.00  0.00    +0.000 OA
BRANCH  13  14
ATOM     14  C   UNL     1       5.470  -5.193  -3.301  0.00  0.00    +0.000 C 
BRANCH  14  15
ATOM     15  C   UNL     1       5.767  -6.635  -3.711  0.00  0.00    +0.000 C 
BRANCH  15  16
ATOM     16  C   UNL     1       6.841  -6.718  -4.768  0.00  0.00    +0.000 A 
ATOM     17  C   UNL     1       8.189  -6.852  -4.406  0.00  0.00    +0.000 A 
ATOM     18  C   UNL     1       9.183  -6.935  -5.386  0.00  0.00    +0.000 A 
ATOM     19  C   UNL     1       8.840  -6.878  -6.736  0.00  0.00    +0.000 A 
ATOM     20  C   UNL     1       7.505  -6.728  -7.102  0.00  0.00    +0.000 A 
ATOM     21 CL   UNL     1       7.080  -6.651  -8.768  0.00  0.00    +0.000 Cl
ATOM     22  C   UNL     1       6.508  -6.642  -6.129  0.00  0.00    +0.000 A 
ENDBRANCH  15  16
ENDBRANCH  14  15
ENDBRANCH  13  14
ENDBRANCH   4  13
TORSDOF 6
