REMARK  Name = 
REMARK  6 active torsions:
REMARK  status: ('A' for Active; 'I' for Inactive)
REMARK    1  A    between atoms: C_1  and  C_2
REMARK    2  A    between atoms: C_7  and  C_8
REMARK    3  A    between atoms: C_8  and  N_9
REMARK    4  A    between atoms: N_9  and  C_10
REMARK    5  A    between atoms: C_13  and  C_14
REMARK    6  A    between atoms: C_25  and  C_26
REMARK                            x       y       z     vdW  Elec       q    Type
REMARK                         _______ _______ _______ _____ _____    ______ ____
ROOT
ATOM      1  C   UNL     1       1.702   4.849  -5.047  0.00  0.00    +0.000 C 
ATOM      2  C   UNL     1       1.523   5.908  -3.969  0.00  0.00    +0.000 C 
ATOM      3  C   UNL     1       0.538   5.847  -5.078  0.00  0.00    +0.000 C 
ENDROOT
BRANCH   1  10
ATOM      4  C   UNL     1       1.653  -2.195  -2.892  0.00  0.00    +0.000 C 
ATOM      5  C   UNL     1       2.709  -1.659  -1.929  0.00  0.00    +0.000 C 
ATOM      6  C   UNL     1       2.505  -0.186  -1.525  0.00  0.00    +0.000 C 
ATOM      7  N   UNL     1       3.008   0.783  -2.509  0.00  0.00    +0.000 N 
ATOM      8  C   UNL     1       2.079   1.441  -3.304  0.00  0.00    +0.000 A 
ATOM      9  C   UNL     1       2.374   2.730  -3.761  0.00  0.00    +0.000 A 
ATOM     10  C   UNL     1       1.474   3.417  -4.594  0.00  0.00    +0.000 A 
ATOM     11  C   UNL     1       0.334   2.725  -4.985  0.00  0.00    +0.000 A 
ATOM     12  C   UNL     1       0.077   1.482  -4.443  0.00  0.00    +0.000 A 
ATOM     13  N   UNL     1       0.912   0.844  -3.602  0.00  0.00    +0.000 NA
ATOM     14  C   UNL     1       4.270   0.431  -3.176  0.00  0.00    +0.000 C 
ATOM     15  C   UNL     1       4.369  -1.066  -3.535  0.00  0.00    +0.000 C 
ATOM     16  C   UNL     1       5.798  -1.401  -3.951  0.00  0.00    +0.000 C 
ATOM     17  O   UNL     1       4.040  -1.905  -2.417  0.00  0.00    +0.000 OA
ENDBRANCH   1  10
BRANCH   1  18
ATOM     18  N   UNL     1       2.484   4.929  -6.286  0.00  0.00    +0.000 N 
ATOM     19  H   UNL     1       1.995   4.729  -7.150  0.00  0.00    +0.000 HD
BRANCH  18  20
ATOM     20  C   UNL     1       3.751   5.491  -6.424  0.00  0.00    +0.000 A 
ATOM     21  C   UNL     1       4.201   5.912  -7.685  0.00  0.00    +0.000 A 
ATOM     22  C   UNL     1       5.443   6.542  -7.807  0.00  0.00    +0.000 A 
ATOM     23  C   UNL     1       6.202   6.710  -6.662  0.00  0.00    +0.000 A 
ATOM     24  N   UNL     1       5.823   6.290  -5.424  0.00  0.00    +0.000 NA
ATOM     25  C   UNL     1       4.610   5.700  -5.348  0.00  0.00    +0.000 A 
BRANCH  23  26
ATOM     26  C   UNL     1       7.529   7.398  -6.704  0.00  0.00    +0.000 C 
ATOM     27  N   UNL     1       8.149   7.489  -5.489  0.00  0.00    +0.000 N 
ATOM     28  O   UNL     1       8.018   7.838  -7.734  0.00  0.00    +0.000 OA
ATOM     29  H   UNL     1       7.683   7.105  -4.669  0.00  0.00    +0.000 HD
ATOM     30  H   UNL     1       9.046   7.942  -5.406  0.00  0.00    +0.000 HD
ENDBRANCH  23  26
ENDBRANCH  18  20
ENDBRANCH   1  18
TORSDOF 4
