REMARK  Name = 
REMARK  8 active torsions:
REMARK  status: ('A' for Active; 'I' for Inactive)
REMARK    1  A    between atoms: N_1  and  C_2
REMARK    2  A    between atoms: C_2  and  C_3
REMARK    3  A    between atoms: C_3  and  C_4
REMARK    4  A    between atoms: C_4  and  N_5
REMARK    5  A    between atoms: C_4  and  C_18
REMARK    6  A    between atoms: C_6  and  C_8
REMARK    7  A    between atoms: C_21  and  O_22
REMARK    8  A    between atoms: O_22  and  C_23
REMARK                            x       y       z     vdW  Elec       q    Type
REMARK                         _______ _______ _______ _____ _____    ______ ____
ROOT
ATOM      1  C   UNL     1       4.452   1.316  -0.773  0.00  0.00    +0.000 C 
ENDROOT
BRANCH   1   2
ATOM      2  C   UNL     1       5.111   2.649  -1.119  0.00  0.00    +0.000 A 
ATOM      3  C   UNL     1       5.226   3.600  -0.088  0.00  0.00    +0.000 A 
ATOM      4  C   UNL     1       5.587   4.925  -0.349  0.00  0.00    +0.000 A 
ATOM      5  C   UNL     1       5.890   5.328  -1.648  0.00  0.00    +0.000 A 
ATOM      6  C   UNL     1       5.838   4.381  -2.677  0.00  0.00    +0.000 A 
ATOM      7  C   UNL     1       5.449   3.053  -2.419  0.00  0.00    +0.000 A 
BRANCH   5   8
ATOM      8  O   UNL     1       6.125   6.638  -2.021  0.00  0.00    +0.000 OA
BRANCH   8   9
ATOM      9  C   UNL     1       6.702   7.511  -1.107  0.00  0.00    +0.000 A 
ATOM     10  C   UNL     1       6.346   8.852  -1.196  0.00  0.00    +0.000 A 
ATOM     11  C   UNL     1       6.944   9.754  -0.313  0.00  0.00    +0.000 A 
ATOM     12  C   UNL     1       7.865   9.293   0.613  0.00  0.00    +0.000 A 
ATOM     13  C   UNL     1       8.168   7.940   0.614  0.00  0.00    +0.000 A 
ATOM     14  N   UNL     1       7.621   7.045  -0.233  0.00  0.00    +0.000 NA
ENDBRANCH   8   9
ENDBRANCH   5   8
ENDBRANCH   1   2
BRANCH   1  15
ATOM     15  N   UNL     1       2.999   1.522  -0.859  0.00  0.00    +0.000 N 
ATOM     16  C   UNL     1       2.102   0.822  -0.094  0.00  0.00    +0.000 C 
ATOM     17  O   UNL     1       2.478   0.013   0.753  0.00  0.00    +0.000 OA
ATOM     18  H   UNL     1       2.671   2.160  -1.578  0.00  0.00    +0.000 HD
BRANCH  16  19
ATOM     19  C   UNL     1       0.664   1.059  -0.318  0.00  0.00    +0.000 A 
ATOM     20  C   UNL     1      -0.258   0.406   0.492  0.00  0.00    +0.000 A 
ATOM     21  S   UNL     1      -1.883   0.759   0.126  0.00  0.00    +0.000 S 
ATOM     22  C   UNL     1      -1.426   1.790  -1.145  0.00  0.00    +0.000 A 
ATOM     23  N   UNL     1      -2.369   2.416  -1.898  0.00  0.00    +0.000 NA
ATOM     24  C   UNL     1      -1.892   3.169  -2.833  0.00  0.00    +0.000 A 
ATOM     25  N   UNL     1      -0.557   3.354  -3.077  0.00  0.00    +0.000 N 
ATOM     26  C   UNL     1       0.431   2.736  -2.348  0.00  0.00    +0.000 A 
ATOM     27  O   UNL     1       1.619   2.906  -2.609  0.00  0.00    +0.000 OA
ATOM     28  C   UNL     1      -0.048   1.876  -1.280  0.00  0.00    +0.000 A 
ATOM     29  H   UNL     1      -0.249   3.956  -3.825  0.00  0.00    +0.000 HD
ENDBRANCH  16  19
ENDBRANCH   1  15
BRANCH   1  30
ATOM     30  C   UNL     1       4.829   0.068  -1.598  0.00  0.00    +0.000 C 
BRANCH  30  31
ATOM     31  C   UNL     1       6.283  -0.396  -1.494  0.00  0.00    +0.000 C 
BRANCH  31  32
ATOM     32  N   UNL     1       6.693  -0.704  -0.130  0.00  0.00    +0.000 NA
ATOM     33  H   UNL     1       7.651  -1.052  -0.133  0.00  0.00    +0.000 HD
ATOM     34  H   UNL     1       6.118  -1.458   0.248  0.00  0.00    +0.000 HD
ENDBRANCH  31  32
ENDBRANCH  30  31
ENDBRANCH   1  30
TORSDOF 8
