REMARK  Name = 
REMARK  5 active torsions:
REMARK  status: ('A' for Active; 'I' for Inactive)
REMARK    1  A    between atoms: C_2  and  C_4
REMARK    2  A    between atoms: C_7  and  O_8
REMARK    3  A    between atoms: O_8  and  C_9
REMARK    4  A    between atoms: C_9  and  C_10
REMARK    5  A    between atoms: C_12  and  C_13
REMARK                            x       y       z     vdW  Elec       q    Type
REMARK                         _______ _______ _______ _____ _____    ______ ____
ROOT
ATOM      1  C   UNL     1       5.072   3.504   4.689  0.00  0.00    +0.000 C 
ENDROOT
BRANCH   1   2
ATOM      2  C   UNL     1       5.982   4.499   5.371  0.00  0.00    +0.000 A 
ATOM      3  C   UNL     1       5.725   5.867   5.266  0.00  0.00    +0.000 A 
ATOM      4  C   UNL     1       6.501   6.789   5.984  0.00  0.00    +0.000 A 
ATOM      5  C   UNL     1       7.558   6.267   6.742  0.00  0.00    +0.000 A 
ATOM      6  C   UNL     1       7.773   4.897   6.764  0.00  0.00    +0.000 A 
ATOM      7  N   UNL     1       7.003   4.007   6.111  0.00  0.00    +0.000 NA
BRANCH   4   8
ATOM      8  C   UNL     1       6.194   8.241   5.978  0.00  0.00    +0.000 A 
ATOM      9  C   UNL     1       4.865   8.706   5.881  0.00  0.00    +0.000 A 
ATOM     10  C   UNL     1       4.564  10.072   5.911  0.00  0.00    +0.000 A 
ATOM     11  C   UNL     1       5.589  10.995   6.049  0.00  0.00    +0.000 A 
ATOM     12  F   UNL     1       5.302  12.301   6.096  0.00  0.00    +0.000 F 
ATOM     13  C   UNL     1       6.909  10.578   6.144  0.00  0.00    +0.000 A 
ATOM     14  C   UNL     1       7.208   9.212   6.101  0.00  0.00    +0.000 A 
ENDBRANCH   4   8
ENDBRANCH   1   2
BRANCH   1  15
ATOM     15  O   UNL     1       5.474   3.312   3.333  0.00  0.00    +0.000 OA
BRANCH  15  19
ATOM     16  C   UNL     1       3.449   0.549   0.946  0.00  0.00    +0.000 A 
ATOM     17  C   UNL     1       2.969   0.795   2.236  0.00  0.00    +0.000 A 
ATOM     18  C   UNL     1       3.621   1.712   3.067  0.00  0.00    +0.000 A 
ATOM     19  C   UNL     1       4.758   2.389   2.617  0.00  0.00    +0.000 A 
ATOM     20  C   UNL     1       5.240   2.134   1.331  0.00  0.00    +0.000 A 
ATOM     21  C   UNL     1       4.595   1.214   0.499  0.00  0.00    +0.000 A 
BRANCH  16  23
ATOM     22  N   UNL     1       1.464  -0.682   0.247  0.00  0.00    +0.000 N 
ATOM     23  C   UNL     1       2.792  -0.431   0.043  0.00  0.00    +0.000 C 
ATOM     24  O   UNL     1       3.401  -0.973  -0.871  0.00  0.00    +0.000 OA
ATOM     25  H   UNL     1       1.014  -1.280  -0.437  0.00  0.00    +0.000 HD
ATOM     26  H   UNL     1       0.874  -0.078   0.800  0.00  0.00    +0.000 HD
ENDBRANCH  16  23
ENDBRANCH  15  19
ENDBRANCH   1  15
TORSDOF 5
