REMARK  Name = 
REMARK  7 active torsions:
REMARK  status: ('A' for Active; 'I' for Inactive)
REMARK    1  A    between atoms: C_1  and  C_2
REMARK    2  A    between atoms: C_2  and  C_3
REMARK    3  A    between atoms: C_2  and  C_15
REMARK    4  A    between atoms: C_3  and  O_4
REMARK    5  A    between atoms: O_4  and  C_5
REMARK    6  A    between atoms: C_8  and  C_9
REMARK    7  A    between atoms: C_19  and  C_20
REMARK                            x       y       z     vdW  Elec       q    Type
REMARK                         _______ _______ _______ _____ _____    ______ ____
ROOT
ATOM      1  C   UNL     1       3.099  -1.462  -0.521  0.00  0.00    +0.000 C 
ENDROOT
BRANCH   1   3
ATOM      2  C   UNL     1       0.952  -0.128  -0.027  0.00  0.00    +0.000 C 
ATOM      3  C   UNL     1       2.376  -0.149  -0.478  0.00  0.00    +0.000 C 
BRANCH   3   4
ATOM      4  C   UNL     1       2.982   1.041  -1.088  0.00  0.00    +0.000 A 
ATOM      5  C   UNL     1       3.625   0.944  -2.329  0.00  0.00    +0.000 A 
ATOM      6  C   UNL     1       4.238   2.056  -2.907  0.00  0.00    +0.000 A 
ATOM      7  C   UNL     1       4.220   3.282  -2.247  0.00  0.00    +0.000 A 
ATOM      8  C   UNL     1       3.576   3.411  -1.008  0.00  0.00    +0.000 A 
ATOM      9  C   UNL     1       2.958   2.282  -0.439  0.00  0.00    +0.000 A 
BRANCH   8  10
ATOM     10  C   UNL     1       3.543   4.737  -0.288  0.00  0.00    +0.000 C 
ATOM     11  F   UNL     1       4.180   5.738  -0.958  0.00  0.00    +0.000 F 
ATOM     12  F   UNL     1       2.274   5.182  -0.075  0.00  0.00    +0.000 F 
ATOM     13  F   UNL     1       4.130   4.680   0.939  0.00  0.00    +0.000 F 
ENDBRANCH   8  10
ENDBRANCH   3   4
ENDBRANCH   1   3
BRANCH   1  14
ATOM     14  O   UNL     1       2.523  -2.280  -1.541  0.00  0.00    +0.000 OA
BRANCH  14  15
ATOM     15  C   UNL     1       3.095  -3.509  -1.730  0.00  0.00    +0.000 A 
ATOM     16  C   UNL     1       4.197  -4.010  -1.041  0.00  0.00    +0.000 A 
ATOM     17  C   UNL     1       4.689  -5.285  -1.336  0.00  0.00    +0.000 A 
ATOM     18  C   UNL     1       4.084  -6.088  -2.316  0.00  0.00    +0.000 A 
ATOM     19  C   UNL     1       2.981  -5.578  -3.015  0.00  0.00    +0.000 A 
ATOM     20 CL   UNL     1       2.177  -6.429  -4.288  0.00  0.00    +0.000 Cl
ATOM     21  C   UNL     1       2.495  -4.296  -2.717  0.00  0.00    +0.000 A 
BRANCH  18  22
ATOM     22  C   UNL     1       4.701  -7.426  -2.523  0.00  0.00    +0.000 C 
ATOM     23  N   UNL     1       3.907  -8.455  -2.932  0.00  0.00    +0.000 N 
ATOM     24  O   UNL     1       5.888  -7.617  -2.283  0.00  0.00    +0.000 OA
ATOM     25  H   UNL     1       2.941  -8.335  -3.206  0.00  0.00    +0.000 HD
ATOM     26  H   UNL     1       4.348  -9.351  -3.096  0.00  0.00    +0.000 HD
ENDBRANCH  18  22
ENDBRANCH  14  15
ENDBRANCH   1  14
TORSDOF 6
