REMARK  Name = 
REMARK  10 active torsions:
REMARK  status: ('A' for Active; 'I' for Inactive)
REMARK    1  A    between atoms: C_1  and  C_2
REMARK    2  A    between atoms: C_2  and  C_3
REMARK    3  A    between atoms: C_2  and  N_4
REMARK    4  A    between atoms: C_5  and  C_7
REMARK    5  A    between atoms: C_10  and  O_11
REMARK    6  A    between atoms: O_11  and  C_12
REMARK    7  A    between atoms: C_12  and  C_13
REMARK    8  A    between atoms: C_13  and  C_14
REMARK    9  A    between atoms: C_13  and  C_15
REMARK   10  A    between atoms: C_13  and  C_16
REMARK                            x       y       z     vdW  Elec       q    Type
REMARK                         _______ _______ _______ _____ _____    ______ ____
ROOT
ATOM      1  C   UNL     1       4.876   1.730  -2.596  0.00  0.00    +0.000 A 
ATOM      2  C   UNL     1       4.249   2.971  -2.758  0.00  0.00    +0.000 A 
ATOM      3  C   UNL     1       4.601   3.812  -3.820  0.00  0.00    +0.000 A 
ATOM      4  C   UNL     1       5.591   3.424  -4.723  0.00  0.00    +0.000 A 
ATOM      5  C   UNL     1       6.232   2.194  -4.547  0.00  0.00    +0.000 A 
ATOM      6  C   UNL     1       5.882   1.348  -3.489  0.00  0.00    +0.000 A 
ENDROOT
BRANCH   1   8
ATOM      7  N   UNL     1       4.540  -0.491  -1.651  0.00  0.00    +0.000 N 
ATOM      8  C   UNL     1       4.458   0.872  -1.453  0.00  0.00    +0.000 C 
ATOM      9  O   UNL     1       4.038   1.385  -0.423  0.00  0.00    +0.000 OA
ATOM     10  H   UNL     1       4.860  -0.852  -2.538  0.00  0.00    +0.000 HD
BRANCH   7  12
ATOM     11  C   UNL     1       3.687  -2.740  -1.221  0.00  0.00    +0.000 C 
ATOM     12  C   UNL     1       4.203  -1.445  -0.603  0.00  0.00    +0.000 C 
ATOM     13  C   UNL     1       5.417  -1.718   0.282  0.00  0.00    +0.000 C 
ENDBRANCH   7  12
ENDBRANCH   1   8
BRANCH   4  14
ATOM     14  O   UNL     1       6.027   4.150  -5.797  0.00  0.00    +0.000 OA
BRANCH  14  15
ATOM     15  C   UNL     1       5.374   5.401  -6.045  0.00  0.00    +0.000 C 
BRANCH  15  16
ATOM     16  C   UNL     1       5.965   6.087  -7.313  0.00  0.00    +0.000 C 
ATOM     17  C   UNL     1       7.486   6.277  -7.097  0.00  0.00    +0.000 C 
ATOM     18  C   UNL     1       5.800   5.160  -8.539  0.00  0.00    +0.000 C 
BRANCH  16  19
ATOM     19  C   UNL     1       5.222   7.410  -7.561  0.00  0.00    +0.000 A 
ATOM     20  C   UNL     1       5.852   8.662  -7.554  0.00  0.00    +0.000 A 
ATOM     21  C   UNL     1       5.118   9.827  -7.772  0.00  0.00    +0.000 A 
ATOM     22  C   UNL     1       3.758   9.718  -7.992  0.00  0.00    +0.000 A 
ATOM     23  N   UNL     1       3.103   8.541  -8.011  0.00  0.00    +0.000 NA
ATOM     24  C   UNL     1       3.844   7.428  -7.802  0.00  0.00    +0.000 A 
ENDBRANCH  16  19
ENDBRANCH  15  16
ENDBRANCH  14  15
ENDBRANCH   4  14
TORSDOF 6
