REMARK  Name = 
REMARK  6 active torsions:
REMARK  status: ('A' for Active; 'I' for Inactive)
REMARK    1  A    between atoms: C_2  and  C_25
REMARK    2  A    between atoms: N_3  and  C_4
REMARK    3  A    between atoms: C_4  and  C_5
REMARK    4  A    between atoms: C_8  and  C_9
REMARK    5  A    between atoms: C_9  and  N_10
REMARK    6  A    between atoms: C_11  and  C_13
REMARK                            x       y       z     vdW  Elec       q    Type
REMARK                         _______ _______ _______ _____ _____    ______ ____
ROOT
ATOM      1  C   UNL     1       3.342  -1.958  -3.141  0.00  0.00    +0.000 A 
ATOM      2  C   UNL     1       4.173  -1.117  -3.879  0.00  0.00    +0.000 A 
ATOM      3  C   UNL     1       5.018  -1.671  -4.839  0.00  0.00    +0.000 A 
ATOM      4  C   UNL     1       5.040  -3.053  -5.031  0.00  0.00    +0.000 A 
ATOM      5  C   UNL     1       4.176  -3.814  -4.251  0.00  0.00    +0.000 A 
ATOM      6  N   UNL     1       3.342  -3.304  -3.313  0.00  0.00    +0.000 NA
ENDROOT
BRANCH   1   7
ATOM      7  C   UNL     1       2.393  -1.377  -2.118  0.00  0.00    +0.000 C 
BRANCH   7  10
ATOM      8  O   UNL     1       1.667   0.606  -0.270  0.00  0.00    +0.000 OA
ATOM      9  C   UNL     1       2.532  -0.208   0.040  0.00  0.00    +0.000 C 
ATOM     10  N   UNL     1       3.009  -1.171  -0.826  0.00  0.00    +0.000 N 
ATOM     11  H   UNL     1       3.606  -1.894  -0.433  0.00  0.00    +0.000 HD
BRANCH   9  12
ATOM     12  C   UNL     1       3.133  -0.206   1.414  0.00  0.00    +0.000 A 
ATOM     13  C   UNL     1       2.703   0.739   2.339  0.00  0.00    +0.000 A 
ATOM     14  C   UNL     1       3.284   0.743   3.602  0.00  0.00    +0.000 A 
ATOM     15  C   UNL     1       4.273  -0.191   3.896  0.00  0.00    +0.000 A 
ATOM     16  C   UNL     1       4.635  -1.100   2.913  0.00  0.00    +0.000 A 
ATOM     17  N   UNL     1       4.093  -1.139   1.675  0.00  0.00    +0.000 NA
ENDBRANCH   9  12
ENDBRANCH   7  10
ENDBRANCH   1   7
BRANCH   4  18
ATOM     18  C   UNL     1       5.917  -3.687  -6.070  0.00  0.00    +0.000 C 
BRANCH  18  19
ATOM     19  N   UNL     1       5.234  -3.770  -7.338  0.00  0.00    +0.000 N 
ATOM     20  C   UNL     1       5.777  -4.432  -8.409  0.00  0.00    +0.000 C 
ATOM     21  O   UNL     1       6.844  -5.036  -8.331  0.00  0.00    +0.000 OA
ATOM     22  H   UNL     1       4.500  -3.091  -7.503  0.00  0.00    +0.000 HD
BRANCH  20  23
ATOM     23  C   UNL     1       4.975  -4.439  -9.640  0.00  0.00    +0.000 A 
ATOM     24  C   UNL     1       5.168  -5.435 -10.588  0.00  0.00    +0.000 A 
ATOM     25  S   UNL     1       4.093  -5.338 -11.910  0.00  0.00    +0.000 S 
ATOM     26  C   UNL     1       3.371  -3.927 -11.291  0.00  0.00    +0.000 A 
ATOM     27  N   UNL     1       2.362  -3.306 -11.958  0.00  0.00    +0.000 NA
ATOM     28  C   UNL     1       1.929  -2.230 -11.390  0.00  0.00    +0.000 A 
ATOM     29  N   UNL     1       2.415  -1.718 -10.215  0.00  0.00    +0.000 N 
ATOM     30  C   UNL     1       3.419  -2.321  -9.498  0.00  0.00    +0.000 A 
ATOM     31  O   UNL     1       3.815  -1.850  -8.436  0.00  0.00    +0.000 OA
ATOM     32  C   UNL     1       3.939  -3.539 -10.091  0.00  0.00    +0.000 A 
ATOM     33  H   UNL     1       2.032  -0.871  -9.822  0.00  0.00    +0.000 HD
ENDBRANCH  20  23
ENDBRANCH  18  19
ENDBRANCH   4  18
TORSDOF 6
