REMARK  Name = 
REMARK  6 active torsions:
REMARK  status: ('A' for Active; 'I' for Inactive)
REMARK    1  A    between atoms: C_2  and  C_18
REMARK    2  A    between atoms: N_3  and  C_4
REMARK    3  A    between atoms: C_4  and  C_5
REMARK    4  A    between atoms: C_8  and  C_9
REMARK    5  A    between atoms: C_9  and  N_10
REMARK    6  A    between atoms: C_13  and  O_14
REMARK                            x       y       z     vdW  Elec       q    Type
REMARK                         _______ _______ _______ _____ _____    ______ ____
ROOT
ATOM      1  O   UNL     1       3.810  -0.837  -1.026  0.00  0.00    +0.000 OA
ATOM      2  C   UNL     1       3.584   0.153  -0.336  0.00  0.00    +0.000 C 
ATOM      3  N   UNL     1       2.823   1.201  -0.786  0.00  0.00    +0.000 N 
ATOM      4  H   UNL     1       2.813   2.066  -0.257  0.00  0.00    +0.000 HD
ENDROOT
BRANCH   2   5
ATOM      5  C   UNL     1       4.069   0.253   1.046  0.00  0.00    +0.000 A 
ATOM      6  C   UNL     1       4.394  -0.899   1.751  0.00  0.00    +0.000 A 
ATOM      7  S   UNL     1       4.904  -0.599   3.351  0.00  0.00    +0.000 S 
ATOM      8  C   UNL     1       4.756   1.084   3.143  0.00  0.00    +0.000 A 
ATOM      9  N   UNL     1       5.070   1.945   4.148  0.00  0.00    +0.000 NA
ATOM     10  C   UNL     1       4.962   3.193   3.835  0.00  0.00    +0.000 A 
ATOM     11  N   UNL     1       4.554   3.660   2.613  0.00  0.00    +0.000 N 
ATOM     12  C   UNL     1       4.145   2.828   1.599  0.00  0.00    +0.000 A 
ATOM     13  O   UNL     1       3.649   3.278   0.571  0.00  0.00    +0.000 OA
ATOM     14  C   UNL     1       4.299   1.412   1.879  0.00  0.00    +0.000 A 
ATOM     15  H   UNL     1       4.465   4.650   2.442  0.00  0.00    +0.000 HD
ENDBRANCH   2   5
BRANCH   3  16
ATOM     16  C   UNL     1       2.323   1.275  -2.137  0.00  0.00    +0.000 C 
BRANCH  16  17
ATOM     17  C   UNL     1       3.236   2.078  -3.015  0.00  0.00    +0.000 A 
ATOM     18  C   UNL     1       3.124   3.466  -3.126  0.00  0.00    +0.000 A 
ATOM     19  C   UNL     1       3.993   4.168  -3.960  0.00  0.00    +0.000 A 
ATOM     20  C   UNL     1       4.958   3.459  -4.673  0.00  0.00    +0.000 A 
ATOM     21  N   UNL     1       5.102   2.113  -4.559  0.00  0.00    +0.000 NA
ATOM     22  C   UNL     1       4.254   1.461  -3.732  0.00  0.00    +0.000 A 
BRANCH  20  23
ATOM     23  C   UNL     1       5.899   4.173  -5.627  0.00  0.00    +0.000 C 
BRANCH  23  24
ATOM     24  N   UNL     1       7.099   4.763  -5.000  0.00  0.00    +0.000 NA
ATOM     25  C   UNL     1       7.989   5.348  -6.018  0.00  0.00    +0.000 C 
ATOM     26  C   UNL     1       9.419   5.138  -5.517  0.00  0.00    +0.000 C 
ATOM     27  C   UNL     1       9.255   4.465  -4.165  0.00  0.00    +0.000 C 
ATOM     28  C   UNL     1       7.912   3.752  -4.294  0.00  0.00    +0.000 C 
BRANCH  27  29
ATOM     29  O   UNL     1       9.193   5.468  -3.148  0.00  0.00    +0.000 OA
ATOM     30  H   UNL     1       8.333   5.913  -3.283  0.00  0.00    +0.000 HD
ENDBRANCH  27  29
ENDBRANCH  23  24
ENDBRANCH  20  23
ENDBRANCH  16  17
ENDBRANCH   3  16
TORSDOF 6
