REMARK  Name = 
REMARK  10 active torsions:
REMARK  status: ('A' for Active; 'I' for Inactive)
REMARK    1  A    between atoms: N_1  and  C_2
REMARK    2  A    between atoms: C_2  and  C_3
REMARK    3  A    between atoms: C_3  and  N_4
REMARK    4  A    between atoms: C_3  and  C_20
REMARK    5  A    between atoms: N_4  and  C_5
REMARK    6  A    between atoms: C_5  and  C_6
REMARK    7  A    between atoms: C_9  and  C_10
REMARK    8  A    between atoms: C_10  and  N_11
REMARK    9  A    between atoms: N_11  and  C_12
REMARK   10  A    between atoms: C_12  and  C_13
REMARK                            x       y       z     vdW  Elec       q    Type
REMARK                         _______ _______ _______ _____ _____    ______ ____
ROOT
ATOM      1  N   UNL     1      -0.116   1.694  -1.260  0.00  0.00    +0.000 NA
ATOM      2  H   UNL     1      -0.823   1.667  -0.527  0.00  0.00    +0.000 HD
ENDROOT
BRANCH   1   3
ATOM      3  C   UNL     1       0.241   0.293  -1.577  0.00  0.00    +0.000 C 
BRANCH   3   4
ATOM      4  C   UNL     1      -1.054  -0.458  -1.872  0.00  0.00    +0.000 A 
ATOM      5  C   UNL     1      -2.178   0.088  -2.477  0.00  0.00    +0.000 A 
ATOM      6  S   UNL     1      -3.440  -1.036  -2.713  0.00  0.00    +0.000 S 
ATOM      7  C   UNL     1      -2.515  -2.300  -2.048  0.00  0.00    +0.000 A 
ATOM      8  N   UNL     1      -2.995  -3.572  -1.994  0.00  0.00    +0.000 NA
ATOM      9  C   UNL     1      -2.168  -4.428  -1.493  0.00  0.00    +0.000 A 
ATOM     10  N   UNL     1      -0.915  -4.127  -1.022  0.00  0.00    +0.000 N 
ATOM     11  C   UNL     1      -0.394  -2.852  -1.031  0.00  0.00    +0.000 A 
ATOM     12  O   UNL     1       0.717  -2.604  -0.572  0.00  0.00    +0.000 OA
ATOM     13  C   UNL     1      -1.276  -1.862  -1.620  0.00  0.00    +0.000 A 
ATOM     14  H   UNL     1      -0.322  -4.846  -0.625  0.00  0.00    +0.000 HD
ENDBRANCH   3   4
BRANCH   3  15
ATOM     15  C   UNL     1       1.240   0.164  -2.773  0.00  0.00    +0.000 C 
BRANCH  15  16
ATOM     16  N   UNL     1       0.796   0.852  -3.995  0.00  0.00    +0.000 NA
ATOM     17  H   UNL     1       1.582   0.992  -4.623  0.00  0.00    +0.000 HD
ATOM     18  H   UNL     1       0.442   1.772  -3.726  0.00  0.00    +0.000 HD
ENDBRANCH  15  16
ENDBRANCH   3  15
ENDBRANCH   1   3
BRANCH   1  19
ATOM     19  C   UNL     1       1.017   2.476  -0.768  0.00  0.00    +0.000 C 
BRANCH  19  20
ATOM     20  C   UNL     1       0.581   3.864  -0.352  0.00  0.00    +0.000 A 
ATOM     21  C   UNL     1      -0.313   4.047   0.712  0.00  0.00    +0.000 A 
ATOM     22  C   UNL     1      -0.714   5.329   1.092  0.00  0.00    +0.000 A 
ATOM     23  C   UNL     1      -0.213   6.460   0.434  0.00  0.00    +0.000 A 
ATOM     24  C   UNL     1       0.685   6.281  -0.625  0.00  0.00    +0.000 A 
ATOM     25  C   UNL     1       1.075   4.996  -1.016  0.00  0.00    +0.000 A 
BRANCH  23  26
ATOM     26  C   UNL     1      -0.643   7.844   0.859  0.00  0.00    +0.000 C 
BRANCH  26  27
ATOM     27  N   UNL     1      -0.309   8.079   2.262  0.00  0.00    +0.000 NA
ATOM     28  H   UNL     1       0.698   7.961   2.380  0.00  0.00    +0.000 HD
BRANCH  27  29
ATOM     29  C   UNL     1      -0.664   9.431   2.672  0.00  0.00    +0.000 C 
BRANCH  29  30
ATOM     30  C   UNL     1      -0.287   9.608   4.101  0.00  0.00    +0.000 A 
ATOM     31  C   UNL     1       0.551  10.516   4.719  0.00  0.00    +0.000 A 
ATOM     32  C   UNL     1       0.545  10.229   6.106  0.00  0.00    +0.000 A 
ATOM     33  C   UNL     1      -0.292   9.153   6.299  0.00  0.00    +0.000 A 
ATOM     34  N   UNL     1      -0.788   8.780   5.079  0.00  0.00    +0.000 N 
ATOM     35  H   UNL     1      -1.401   7.995   4.900  0.00  0.00    +0.000 HD
ENDBRANCH  29  30
ENDBRANCH  27  29
ENDBRANCH  26  27
ENDBRANCH  23  26
ENDBRANCH  19  20
ENDBRANCH   1  19
TORSDOF 10
