REMARK  Name = 
REMARK  10 active torsions:
REMARK  status: ('A' for Active; 'I' for Inactive)
REMARK    1  A    between atoms: C_1  and  C_2
REMARK    2  A    between atoms: C_2  and  O_3
REMARK    3  A    between atoms: O_3  and  C_4
REMARK    4  A    between atoms: C_6  and  C_7
REMARK    5  A    between atoms: C_7  and  N_8
REMARK    6  A    between atoms: C_9  and  C_11
REMARK    7  A    between atoms: C_23  and  C_24
REMARK    8  A    between atoms: C_24  and  N_25
REMARK    9  A    between atoms: N_25  and  C_26
REMARK   10  A    between atoms: C_26  and  C_27
REMARK                            x       y       z     vdW  Elec       q    Type
REMARK                         _______ _______ _______ _____ _____    ______ ____
ROOT
ATOM      1  C   UNL     1       4.378  -1.374  -0.761  0.00  0.00    +0.000 A 
ATOM      2  C   UNL     1       5.225  -1.212   0.344  0.00  0.00    +0.000 A 
ATOM      3  C   UNL     1       6.585  -1.537   0.282  0.00  0.00    +0.000 A 
ATOM      4  C   UNL     1       7.112  -2.004  -0.922  0.00  0.00    +0.000 A 
ATOM      5  C   UNL     1       6.291  -2.128  -2.046  0.00  0.00    +0.000 A 
ATOM      6  C   UNL     1       4.922  -1.803  -1.989  0.00  0.00    +0.000 A 
ENDROOT
BRANCH   1   7
ATOM      7  O   UNL     1       3.023  -1.142  -0.711  0.00  0.00    +0.000 OA
BRANCH   7   9
ATOM      8  C   UNL     1       0.980  -0.713   0.490  0.00  0.00    +0.000 C 
ATOM      9  C   UNL     1       2.490  -0.823   0.577  0.00  0.00    +0.000 C 
ENDBRANCH   7   9
ENDBRANCH   1   7
BRANCH   3  10
ATOM     10  C   UNL     1       7.443  -1.351   1.503  0.00  0.00    +0.000 C 
BRANCH  10  11
ATOM     11  N   UNL     1       8.040  -0.041   1.536  0.00  0.00    +0.000 N 
ATOM     12  C   UNL     1       7.531   0.991   2.283  0.00  0.00    +0.000 C 
ATOM     13  O   UNL     1       6.523   0.862   2.975  0.00  0.00    +0.000 OA
ATOM     14  H   UNL     1       8.745   0.154   0.834  0.00  0.00    +0.000 HD
BRANCH  12  15
ATOM     15  C   UNL     1       8.298   2.245   2.280  0.00  0.00    +0.000 A 
ATOM     16  C   UNL     1       8.130   3.149   3.320  0.00  0.00    +0.000 A 
ATOM     17  S   UNL     1       9.114   4.536   3.190  0.00  0.00    +0.000 S 
ATOM     18  C   UNL     1       9.768   4.000   1.715  0.00  0.00    +0.000 A 
ATOM     19  N   UNL     1      10.675   4.756   1.040  0.00  0.00    +0.000 NA
ATOM     20  C   UNL     1      11.064   4.247  -0.082  0.00  0.00    +0.000 A 
ATOM     21  N   UNL     1      10.638   3.044  -0.581  0.00  0.00    +0.000 N 
ATOM     22  C   UNL     1       9.777   2.219   0.094  0.00  0.00    +0.000 A 
ATOM     23  O   UNL     1       9.509   1.092  -0.323  0.00  0.00    +0.000 OA
ATOM     24  C   UNL     1       9.266   2.764   1.342  0.00  0.00    +0.000 A 
ATOM     25  H   UNL     1      11.008   2.687  -1.450  0.00  0.00    +0.000 HD
ENDBRANCH  12  15
ENDBRANCH  10  11
ENDBRANCH   3  10
BRANCH   6  26
ATOM     26  C   UNL     1       4.091  -1.908  -3.255  0.00  0.00    +0.000 C 
BRANCH  26  27
ATOM     27  N   UNL     1       3.640  -0.594  -3.699  0.00  0.00    +0.000 NA
ATOM     28  H   UNL     1       4.444   0.017  -3.833  0.00  0.00    +0.000 HD
BRANCH  27  29
ATOM     29  C   UNL     1       2.872  -0.647  -4.942  0.00  0.00    +0.000 C 
BRANCH  29  30
ATOM     30  C   UNL     1       2.357   0.733  -5.313  0.00  0.00    +0.000 A 
ATOM     31  C   UNL     1       1.476   1.392  -4.454  0.00  0.00    +0.000 A 
ATOM     32  C   UNL     1       1.072   2.687  -4.763  0.00  0.00    +0.000 A 
ATOM     33  C   UNL     1       1.550   3.287  -5.920  0.00  0.00    +0.000 A 
ATOM     34  C   UNL     1       2.412   2.562  -6.726  0.00  0.00    +0.000 A 
ATOM     35  N   UNL     1       2.828   1.305  -6.451  0.00  0.00    +0.000 NA
ENDBRANCH  29  30
ENDBRANCH  27  29
ENDBRANCH  26  27
ENDBRANCH   6  26
TORSDOF 9
