REMARK  Name = 
REMARK  6 active torsions:
REMARK  status: ('A' for Active; 'I' for Inactive)
REMARK    1  A    between atoms: C_2  and  C_4
REMARK    2  A    between atoms: C_7  and  N_8
REMARK    3  A    between atoms: N_8  and  C_9
REMARK    4  A    between atoms: C_9  and  C_10
REMARK    5  A    between atoms: C_10  and  C_13
REMARK    6  A    between atoms: C_17  and  C_18
REMARK                            x       y       z     vdW  Elec       q    Type
REMARK                         _______ _______ _______ _____ _____    ______ ____
ROOT
ATOM      1  C   UNL     1       5.848   6.139   3.873  0.00  0.00    +0.000 C 
ATOM      2  F   UNL     1       7.124   5.668   3.997  0.00  0.00    +0.000 F 
ATOM      3  F   UNL     1       5.888   7.024   2.831  0.00  0.00    +0.000 F 
ENDROOT
BRANCH   1   4
ATOM      4  C   UNL     1       5.356   6.779   5.157  0.00  0.00    +0.000 A 
ATOM      5  C   UNL     1       4.496   7.883   5.125  0.00  0.00    +0.000 A 
ATOM      6  C   UNL     1       4.008   8.425   6.310  0.00  0.00    +0.000 A 
ATOM      7  C   UNL     1       4.352   7.849   7.535  0.00  0.00    +0.000 A 
ATOM      8  C   UNL     1       5.181   6.715   7.609  0.00  0.00    +0.000 A 
ATOM      9  C   UNL     1       5.701   6.217   6.401  0.00  0.00    +0.000 A 
BRANCH   8  10
ATOM     10  C   UNL     1       5.422   6.026   8.895  0.00  0.00    +0.000 A 
ATOM     11  C   UNL     1       6.634   5.389   9.195  0.00  0.00    +0.000 A 
ATOM     12  C   UNL     1       6.765   4.711  10.400  0.00  0.00    +0.000 A 
ATOM     13  N   UNL     1       5.792   4.626  11.325  0.00  0.00    +0.000 NA
ATOM     14  C   UNL     1       4.634   5.246  11.029  0.00  0.00    +0.000 A 
ATOM     15  F   UNL     1       3.640   5.173  11.928  0.00  0.00    +0.000 F 
ATOM     16  C   UNL     1       4.406   5.938   9.855  0.00  0.00    +0.000 A 
ENDBRANCH   8  10
ENDBRANCH   1   4
BRANCH   1  17
ATOM     17  C   UNL     1       4.911   4.968   3.478  0.00  0.00    +0.000 C 
BRANCH  17  18
ATOM     18  N   UNL     1       5.296   4.299   2.222  0.00  0.00    +0.000 N 
ATOM     19  H   UNL     1       5.683   4.918   1.510  0.00  0.00    +0.000 HD
BRANCH  18  23
ATOM     20  C   UNL     1       3.218   0.944   0.737  0.00  0.00    +0.000 A 
ATOM     21  C   UNL     1       2.766   1.577   1.894  0.00  0.00    +0.000 A 
ATOM     22  C   UNL     1       3.432   2.705   2.381  0.00  0.00    +0.000 A 
ATOM     23  C   UNL     1       4.541   3.243   1.717  0.00  0.00    +0.000 A 
ATOM     24  C   UNL     1       4.991   2.585   0.564  0.00  0.00    +0.000 A 
ATOM     25  C   UNL     1       4.344   1.442   0.076  0.00  0.00    +0.000 A 
BRANCH  20  27
ATOM     26  N   UNL     1       1.226  -0.429   0.489  0.00  0.00    +0.000 N 
ATOM     27  C   UNL     1       2.557  -0.286   0.223  0.00  0.00    +0.000 C 
ATOM     28  O   UNL     1       3.169  -1.116  -0.437  0.00  0.00    +0.000 OA
ATOM     29  H   UNL     1       0.767  -1.223   0.062  0.00  0.00    +0.000 HD
ATOM     30  H   UNL     1       0.649   0.337   0.801  0.00  0.00    +0.000 HD
ENDBRANCH  20  27
ENDBRANCH  18  23
ENDBRANCH  17  18
ENDBRANCH   1  17
TORSDOF 6
