REMARK  Name = 
REMARK  6 active torsions:
REMARK  status: ('A' for Active; 'I' for Inactive)
REMARK    1  A    between atoms: C_2  and  C_3
REMARK    2  A    between atoms: C_6  and  N_7
REMARK    3  A    between atoms: N_7  and  C_8
REMARK    4  A    between atoms: C_8  and  C_9
REMARK    5  A    between atoms: C_13  and  C_14
REMARK    6  A    between atoms: C_18  and  C_19
REMARK                            x       y       z     vdW  Elec       q    Type
REMARK                         _______ _______ _______ _____ _____    ______ ____
ROOT
ATOM      1  C   UNL     1       9.665   0.276  -0.620  0.00  0.00    +0.000 A 
ATOM      2  C   UNL     1       9.686   1.310  -1.568  0.00  0.00    +0.000 A 
ATOM      3  C   UNL     1      10.450   2.457  -1.365  0.00  0.00    +0.000 A 
ATOM      4  C   UNL     1      11.248   2.573  -0.226  0.00  0.00    +0.000 A 
ATOM      5  C   UNL     1      11.331   1.527   0.707  0.00  0.00    +0.000 A 
ATOM      6  C   UNL     1      10.525   0.394   0.484  0.00  0.00    +0.000 A 
ENDROOT
BRANCH   5   7
ATOM      7  C   UNL     1      12.201   1.595   1.898  0.00  0.00    +0.000 A 
ATOM      8  C   UNL     1      12.867   0.449   2.365  0.00  0.00    +0.000 A 
ATOM      9  C   UNL     1      13.649   0.519   3.507  0.00  0.00    +0.000 A 
ATOM     10  N   UNL     1      13.825   1.646   4.219  0.00  0.00    +0.000 NA
ATOM     11  C   UNL     1      13.185   2.756   3.754  0.00  0.00    +0.000 A 
ATOM     12  C   UNL     1      12.380   2.779   2.621  0.00  0.00    +0.000 A 
BRANCH  11  13
ATOM     13  C   UNL     1      13.374   4.002   4.559  0.00  0.00    +0.000 C 
ATOM     14  N   UNL     1      14.145   3.855   5.680  0.00  0.00    +0.000 N 
ATOM     15  O   UNL     1      12.875   5.078   4.251  0.00  0.00    +0.000 OA
ATOM     16  H   UNL     1      14.525   2.941   5.898  0.00  0.00    +0.000 HD
ATOM     17  H   UNL     1      14.300   4.641   6.291  0.00  0.00    +0.000 HD
ENDBRANCH  11  13
ENDBRANCH   5   7
BRANCH   1  18
ATOM     18  C   UNL     1       8.659  -0.863  -0.718  0.00  0.00    +0.000 C 
ATOM     19  C   UNL     1       7.811  -1.200   0.495  0.00  0.00    +0.000 C 
ATOM     20  C   UNL     1       7.202  -0.412  -0.616  0.00  0.00    +0.000 C 
BRANCH  18  21
ATOM     21  N   UNL     1       8.939  -1.848  -1.756  0.00  0.00    +0.000 N 
ATOM     22  H   UNL     1       8.804  -1.604  -2.731  0.00  0.00    +0.000 HD
BRANCH  21  26
ATOM     23  C   UNL     1      11.114  -5.330  -1.671  0.00  0.00    +0.000 A 
ATOM     24  C   UNL     1      10.631  -4.772  -2.840  0.00  0.00    +0.000 A 
ATOM     25  N   UNL     1       9.934  -3.608  -2.862  0.00  0.00    +0.000 NA
ATOM     26  C   UNL     1       9.713  -2.996  -1.675  0.00  0.00    +0.000 A 
ATOM     27  C   UNL     1      10.210  -3.566  -0.505  0.00  0.00    +0.000 A 
ATOM     28  N   UNL     1      10.922  -4.732  -0.469  0.00  0.00    +0.000 NA
BRANCH  23  30
ATOM     29  N   UNL     1      12.397  -7.584  -1.777  0.00  0.00    +0.000 NA
ATOM     30  C   UNL     1      11.828  -6.572  -1.696  0.00  0.00    +0.000 C 
ENDBRANCH  23  30
ENDBRANCH  21  26
ENDBRANCH  18  21
ENDBRANCH   1  18
TORSDOF 6
