REMARK  Name = 
REMARK  6 active torsions:
REMARK  status: ('A' for Active; 'I' for Inactive)
REMARK    1  A    between atoms: C_1  and  N_2
REMARK    2  A    between atoms: N_2  and  C_3
REMARK    3  A    between atoms: C_3  and  C_4
REMARK    4  A    between atoms: C_7  and  C_8
REMARK    5  A    between atoms: C_8  and  C_9
REMARK    6  A    between atoms: C_16  and  C_18
REMARK                            x       y       z     vdW  Elec       q    Type
REMARK                         _______ _______ _______ _____ _____    ______ ____
ROOT
ATOM      1  C   UNL     1       2.137   0.818   1.893  0.00  0.00    +0.000 C 
ATOM      2  N   UNL     1       3.053   0.399   0.835  0.00  0.00    +0.000 N 
ATOM      3  C   UNL     1       3.616  -0.884   0.963  0.00  0.00    +0.000 C 
ATOM      4  O   UNL     1       3.365  -1.599   1.933  0.00  0.00    +0.000 OA
ENDROOT
BRANCH   3   5
ATOM      5  C   UNL     1       4.547  -1.375  -0.064  0.00  0.00    +0.000 A 
ATOM      6  C   UNL     1       5.583  -0.632  -0.607  0.00  0.00    +0.000 A 
ATOM      7  S   UNL     1       6.530  -1.496  -1.734  0.00  0.00    +0.000 S 
ATOM      8  C   UNL     1       5.692  -2.939  -1.406  0.00  0.00    +0.000 A 
ATOM      9  N   UNL     1       6.086  -4.115  -1.960  0.00  0.00    +0.000 NA
ATOM     10  C   UNL     1       5.406  -5.139  -1.561  0.00  0.00    +0.000 A 
ATOM     11  N   UNL     1       4.345  -5.084  -0.695  0.00  0.00    +0.000 N 
ATOM     12  C   UNL     1       3.820  -3.897  -0.226  0.00  0.00    +0.000 A 
ATOM     13  O   UNL     1       2.727  -3.868   0.331  0.00  0.00    +0.000 OA
ATOM     14  C   UNL     1       4.634  -2.737  -0.538  0.00  0.00    +0.000 A 
ATOM     15  H   UNL     1       3.811  -5.913  -0.482  0.00  0.00    +0.000 HD
ENDBRANCH   3   5
BRANCH   2  16
ATOM     16  C   UNL     1       3.197   1.230  -0.367  0.00  0.00    +0.000 C 
BRANCH  16  17
ATOM     17  C   UNL     1       2.253   2.383  -0.527  0.00  0.00    +0.000 A 
ATOM     18  C   UNL     1       0.998   2.209  -1.098  0.00  0.00    +0.000 A 
ATOM     19  C   UNL     1       0.139   3.296  -1.199  0.00  0.00    +0.000 A 
ATOM     20  C   UNL     1       0.531   4.532  -0.690  0.00  0.00    +0.000 A 
ATOM     21  N   UNL     1       1.764   4.731  -0.163  0.00  0.00    +0.000 NA
ATOM     22  C   UNL     1       2.594   3.666  -0.105  0.00  0.00    +0.000 A 
BRANCH  20  23
ATOM     23  C   UNL     1      -0.432   5.699  -0.672  0.00  0.00    +0.000 C 
BRANCH  23  24
ATOM     24  C   UNL     1      -1.691   5.511   0.195  0.00  0.00    +0.000 C 
ATOM     25  C   UNL     1      -1.396   5.248   1.668  0.00  0.00    +0.000 C 
ATOM     26  C   UNL     1      -2.630   4.511   2.158  0.00  0.00    +0.000 C 
ATOM     27  C   UNL     1      -3.163   3.787   0.936  0.00  0.00    +0.000 C 
ATOM     28  N   UNL     1      -2.550   4.398  -0.241  0.00  0.00    +0.000 NA
ATOM     29  H   UNL     1      -3.257   4.723  -0.897  0.00  0.00    +0.000 HD
ENDBRANCH  23  24
ENDBRANCH  20  23
ENDBRANCH  16  17
ENDBRANCH   2  16
TORSDOF 5
