REMARK  Name = 
REMARK  5 active torsions:
REMARK  status: ('A' for Active; 'I' for Inactive)
REMARK    1  A    between atoms: N_1  and  C_2
REMARK    2  A    between atoms: C_2  and  C_3
REMARK    3  A    between atoms: C_6  and  O_7
REMARK    4  A    between atoms: O_7  and  C_8
REMARK    5  A    between atoms: C_8  and  C_9
REMARK                            x       y       z     vdW  Elec       q    Type
REMARK                         _______ _______ _______ _____ _____    ______ ____
ROOT
ATOM      1  C   UNL     1       2.872  -1.048  -0.763  0.00  0.00    +0.000 A 
ATOM      2  C   UNL     1       3.838  -0.887  -1.766  0.00  0.00    +0.000 A 
ATOM      3  C   UNL     1       4.266  -1.981  -2.523  0.00  0.00    +0.000 A 
ATOM      4  C   UNL     1       3.742  -3.251  -2.281  0.00  0.00    +0.000 A 
ATOM      5  C   UNL     1       2.746  -3.410  -1.317  0.00  0.00    +0.000 A 
ATOM      6  C   UNL     1       2.322  -2.317  -0.555  0.00  0.00    +0.000 A 
ENDROOT
BRANCH   1   7
ATOM      7  C   UNL     1       2.440   0.117   0.089  0.00  0.00    +0.000 C 
BRANCH   7   8
ATOM      8  N   UNL     1       1.827   1.169  -0.708  0.00  0.00    +0.000 NA
ATOM      9  H   UNL     1       1.455   1.883  -0.086  0.00  0.00    +0.000 HD
ATOM     10  H   UNL     1       1.031   0.778  -1.209  0.00  0.00    +0.000 HD
ENDBRANCH   7   8
ENDBRANCH   1   7
BRANCH   4  11
ATOM     11  O   UNL     1       4.272  -4.265  -3.034  0.00  0.00    +0.000 OA
BRANCH  11  12
ATOM     12  C   UNL     1       4.132  -5.573  -2.473  0.00  0.00    +0.000 C 
BRANCH  12  13
ATOM     13  C   UNL     1       5.139  -6.516  -3.074  0.00  0.00    +0.000 A 
ATOM     14  C   UNL     1       5.540  -6.444  -4.410  0.00  0.00    +0.000 A 
ATOM     15  C   UNL     1       6.468  -7.359  -4.900  0.00  0.00    +0.000 A 
ATOM     16  C   UNL     1       6.949  -8.324  -4.031  0.00  0.00    +0.000 A 
ATOM     17 CL   UNL     1       8.107  -9.476  -4.550  0.00  0.00    +0.000 Cl
ATOM     18  N   UNL     1       6.569  -8.449  -2.744  0.00  0.00    +0.000 NA
ATOM     19  C   UNL     1       5.673  -7.545  -2.299  0.00  0.00    +0.000 A 
ENDBRANCH  12  13
ENDBRANCH  11  12
ENDBRANCH   4  11
TORSDOF 5
