REMARK  Name = 
REMARK  6 active torsions:
REMARK  status: ('A' for Active; 'I' for Inactive)
REMARK    1  A    between atoms: C_2  and  C_3
REMARK    2  A    between atoms: N_7  and  C_8
REMARK    3  A    between atoms: C_8  and  C_9
REMARK    4  A    between atoms: C_9  and  C_12
REMARK    5  A    between atoms: C_16  and  O_17
REMARK    6  A    between atoms: O_17  and  C_18
REMARK                            x       y       z     vdW  Elec       q    Type
REMARK                         _______ _______ _______ _____ _____    ______ ____
ROOT
ATOM      1  C   UNL     1      -5.876   1.130  -0.353  0.00  0.00    +0.000 C 
ATOM      2  F   UNL     1      -4.789   1.223  -1.174  0.00  0.00    +0.000 F 
ATOM      3  F   UNL     1      -6.618   0.096  -0.852  0.00  0.00    +0.000 F 
ENDROOT
BRANCH   1   4
ATOM      4  C   UNL     1      -6.666   2.425  -0.296  0.00  0.00    +0.000 A 
ATOM      5  C   UNL     1      -8.053   2.409  -0.094  0.00  0.00    +0.000 A 
ATOM      6  C   UNL     1      -8.763   3.605   0.030  0.00  0.00    +0.000 A 
ATOM      7  C   UNL     1      -8.100   4.833  -0.050  0.00  0.00    +0.000 A 
ATOM      8  C   UNL     1      -6.724   4.863  -0.262  0.00  0.00    +0.000 A 
ATOM      9  C   UNL     1      -6.013   3.665  -0.379  0.00  0.00    +0.000 A 
BRANCH   8  10
ATOM     10  O   UNL     1      -5.956   5.998  -0.319  0.00  0.00    +0.000 OA
BRANCH  10  11
ATOM     11  C   UNL     1      -6.574   7.265  -0.625  0.00  0.00    +0.000 C 
ATOM     12  C   UNL     1      -7.059   7.481  -2.075  0.00  0.00    +0.000 C 
ATOM     13  C   UNL     1      -6.447   8.893  -2.023  0.00  0.00    +0.000 C 
ATOM     14  F   UNL     1      -5.794   9.291  -3.137  0.00  0.00    +0.000 F 
ATOM     15  F   UNL     1      -7.310   9.884  -1.701  0.00  0.00    +0.000 F 
ATOM     16  C   UNL     1      -5.557   8.404  -0.868  0.00  0.00    +0.000 C 
ENDBRANCH  10  11
ENDBRANCH   8  10
ENDBRANCH   1   4
BRANCH   1  17
ATOM     17  C   UNL     1      -5.396   0.756   1.071  0.00  0.00    +0.000 C 
BRANCH  17  22
ATOM     18  C   UNL     1      -3.244  -2.314   4.589  0.00  0.00    +0.000 A 
ATOM     19  C   UNL     1      -3.834  -1.062   4.702  0.00  0.00    +0.000 A 
ATOM     20  C   UNL     1      -4.332  -0.438   3.557  0.00  0.00    +0.000 A 
ATOM     21  C   UNL     1      -4.230  -1.070   2.320  0.00  0.00    +0.000 A 
ATOM     22  N   UNL     1      -4.674  -0.510   1.153  0.00  0.00    +0.000 N 
ATOM     23  N   UNL     1      -3.665  -2.285   2.205  0.00  0.00    +0.000 NA
ATOM     24  C   UNL     1      -3.186  -2.882   3.329  0.00  0.00    +0.000 A 
ATOM     25  H   UNL     1      -4.561  -1.088   0.326  0.00  0.00    +0.000 HD
BRANCH  18  27
ATOM     26  N   UNL     1      -2.280  -3.527   6.660  0.00  0.00    +0.000 NA
ATOM     27  C   UNL     1      -2.712  -2.989   5.727  0.00  0.00    +0.000 C 
ENDBRANCH  18  27
ENDBRANCH  17  22
ENDBRANCH   1  17
TORSDOF 6
