REMARK  Name = 
REMARK  9 active torsions:
REMARK  status: ('A' for Active; 'I' for Inactive)
REMARK    1  A    between atoms: C_1  and  C_2
REMARK    2  A    between atoms: C_2  and  C_3
REMARK    3  A    between atoms: C_2  and  C_4
REMARK    4  A    between atoms: C_2  and  C_5
REMARK    5  A    between atoms: C_7  and  C_8
REMARK    6  A    between atoms: C_8  and  N_9
REMARK    7  A    between atoms: N_9  and  C_10
REMARK    8  A    between atoms: C_13  and  C_14
REMARK    9  A    between atoms: C_18  and  O_19
REMARK                            x       y       z     vdW  Elec       q    Type
REMARK                         _______ _______ _______ _____ _____    ______ ____
ROOT
ATOM      1  N   UNL     1       4.074  -2.491  -5.140  0.00  0.00    +0.000 N 
ATOM      2  H   UNL     1       3.143  -2.092  -5.235  0.00  0.00    +0.000 HD
ENDROOT
BRANCH   1   3
ATOM      3  C   UNL     1       4.630  -2.431  -6.412  0.00  0.00    +0.000 A 
ATOM      4  N   UNL     1       3.712  -2.311  -7.395  0.00  0.00    +0.000 NA
ATOM      5  C   UNL     1       4.147  -2.300  -8.684  0.00  0.00    +0.000 A 
ATOM      6  C   UNL     1       5.484  -2.386  -9.052  0.00  0.00    +0.000 A 
ATOM      7  C   UNL     1       6.421  -2.502  -8.027  0.00  0.00    +0.000 A 
ATOM      8  C   UNL     1       5.993  -2.541  -6.704  0.00  0.00    +0.000 A 
BRANCH   6   9
ATOM      9  C   UNL     1       5.957  -2.368 -10.453  0.00  0.00    +0.000 C 
ATOM     10  N   UNL     1       5.054  -2.268 -11.470  0.00  0.00    +0.000 N 
ATOM     11  O   UNL     1       7.154  -2.443 -10.708  0.00  0.00    +0.000 OA
ATOM     12  H   UNL     1       4.047  -2.206 -11.373  0.00  0.00    +0.000 HD
ATOM     13  H   UNL     1       5.426  -2.267 -12.408  0.00  0.00    +0.000 HD
ENDBRANCH   6   9
BRANCH   8  14
ATOM     14  O   UNL     1       6.925  -2.667  -5.717  0.00  0.00    +0.000 OA
ATOM     15  H   UNL     1       7.791  -2.876  -6.098  0.00  0.00    +0.000 HD
ENDBRANCH   8  14
ENDBRANCH   1   3
BRANCH   1  16
ATOM     16  C   UNL     1       4.834  -1.974  -4.015  0.00  0.00    +0.000 C 
BRANCH  16  19
ATOM     17  C   UNL     1       3.024  -1.233  -0.736  0.00  0.00    +0.000 A 
ATOM     18  C   UNL     1       3.743  -1.047  -1.925  0.00  0.00    +0.000 A 
ATOM     19  C   UNL     1       4.076  -2.154  -2.721  0.00  0.00    +0.000 A 
ATOM     20  C   UNL     1       3.705  -3.415  -2.278  0.00  0.00    +0.000 A 
ATOM     21  C   UNL     1       2.997  -3.526  -1.093  0.00  0.00    +0.000 A 
ATOM     22  N   UNL     1       2.645  -2.467  -0.330  0.00  0.00    +0.000 NA
BRANCH  17  24
ATOM     23  C   UNL     1       1.148   0.379  -0.403  0.00  0.00    +0.000 C 
ATOM     24  C   UNL     1       2.546  -0.037   0.099  0.00  0.00    +0.000 C 
ATOM     25  C   UNL     1       3.469   1.197   0.006  0.00  0.00    +0.000 C 
ATOM     26  C   UNL     1       2.462  -0.443   1.584  0.00  0.00    +0.000 C 
ENDBRANCH  17  24
ENDBRANCH  16  19
ENDBRANCH   1  16
TORSDOF 6
