REMARK  Name = 
REMARK  7 active torsions:
REMARK  status: ('A' for Active; 'I' for Inactive)
REMARK    1  A    between atoms: C_1  and  O_2
REMARK    2  A    between atoms: O_2  and  C_3
REMARK    3  A    between atoms: C_6  and  C_7
REMARK    4  A    between atoms: C_7  and  C_8
REMARK    5  A    between atoms: C_7  and  N_9
REMARK    6  A    between atoms: N_9  and  C_10
REMARK    7  A    between atoms: C_13  and  C_14
REMARK                            x       y       z     vdW  Elec       q    Type
REMARK                         _______ _______ _______ _____ _____    ______ ____
ROOT
ATOM      1  N   UNL     1       4.962   0.090   5.979  0.00  0.00    +0.000 N 
ATOM      2  H   UNL     1       3.976   0.274   6.134  0.00  0.00    +0.000 HD
ENDROOT
BRANCH   1   3
ATOM      3  C   UNL     1       5.671  -0.230   7.127  0.00  0.00    +0.000 A 
ATOM      4  C   UNL     1       7.061  -0.156   7.239  0.00  0.00    +0.000 A 
ATOM      5  C   UNL     1       7.725  -0.601   8.391  0.00  0.00    +0.000 A 
ATOM      6  C   UNL     1       7.008  -1.148   9.461  0.00  0.00    +0.000 A 
ATOM      7  C   UNL     1       5.620  -1.254   9.360  0.00  0.00    +0.000 A 
ATOM      8  C   UNL     1       4.970  -0.804   8.202  0.00  0.00    +0.000 A 
BRANCH   6   9
ATOM      9  C   UNL     1       7.767  -1.642  10.642  0.00  0.00    +0.000 C 
ATOM     10  N   UNL     1       7.102  -1.731  11.833  0.00  0.00    +0.000 N 
ATOM     11  O   UNL     1       8.955  -1.931  10.569  0.00  0.00    +0.000 OA
ATOM     12  H   UNL     1       6.207  -1.295  11.997  0.00  0.00    +0.000 HD
ATOM     13  H   UNL     1       7.663  -1.976  12.640  0.00  0.00    +0.000 HD
ENDBRANCH   6   9
ENDBRANCH   1   3
BRANCH   1  14
ATOM     14  C   UNL     1       5.510   0.750   4.795  0.00  0.00    +0.000 C 
ATOM     15  C   UNL     1       5.596   2.263   5.006  0.00  0.00    +0.000 C 
BRANCH  14  19
ATOM     16  C   UNL     1       3.029  -0.257   1.358  0.00  0.00    +0.000 A 
ATOM     17  C   UNL     1       4.366  -0.647   1.408  0.00  0.00    +0.000 A 
ATOM     18  C   UNL     1       5.156  -0.316   2.518  0.00  0.00    +0.000 A 
ATOM     19  C   UNL     1       4.628   0.414   3.595  0.00  0.00    +0.000 A 
ATOM     20  C   UNL     1       3.285   0.813   3.525  0.00  0.00    +0.000 A 
ATOM     21  C   UNL     1       2.497   0.477   2.419  0.00  0.00    +0.000 A 
BRANCH  16  23
ATOM     22  C   UNL     1       2.630  -1.297  -0.743  0.00  0.00    +0.000 C 
ATOM     23  O   UNL     1       2.147  -0.522   0.347  0.00  0.00    +0.000 OA
ENDBRANCH  16  23
ENDBRANCH  14  19
ENDBRANCH   1  14
TORSDOF 5
