REMARK  Name = 
REMARK  9 active torsions:
REMARK  status: ('A' for Active; 'I' for Inactive)
REMARK    1  A    between atoms: N_1  and  C_2
REMARK    2  A    between atoms: C_2  and  C_3
REMARK    3  A    between atoms: C_3  and  N_4
REMARK    4  A    between atoms: C_3  and  C_20
REMARK    5  A    between atoms: N_4  and  C_5
REMARK    6  A    between atoms: C_5  and  C_6
REMARK    7  A    between atoms: C_9  and  C_10
REMARK    8  A    between atoms: C_10  and  C_11
REMARK    9  A    between atoms: C_11  and  N_12
REMARK                            x       y       z     vdW  Elec       q    Type
REMARK                         _______ _______ _______ _____ _____    ______ ____
ROOT
ATOM      1  N   UNL     1       0.137  -0.756   1.214  0.00  0.00    +0.000 NA
ATOM      2  H   UNL     1       0.229  -1.638   0.711  0.00  0.00    +0.000 HD
ENDROOT
BRANCH   1   3
ATOM      3  C   UNL     1       0.467   0.320   0.261  0.00  0.00    +0.000 C 
BRANCH   3   4
ATOM      4  C   UNL     1      -0.418   0.118  -0.965  0.00  0.00    +0.000 A 
ATOM      5  C   UNL     1      -1.711  -0.388  -0.947  0.00  0.00    +0.000 A 
ATOM      6  S   UNL     1      -2.433  -0.462  -2.492  0.00  0.00    +0.000 S 
ATOM      7  C   UNL     1      -1.053   0.207  -3.231  0.00  0.00    +0.000 A 
ATOM      8  N   UNL     1      -1.010   0.436  -4.570  0.00  0.00    +0.000 NA
ATOM      9  C   UNL     1       0.096   0.968  -4.978  0.00  0.00    +0.000 A 
ATOM     10  N   UNL     1       1.161   1.283  -4.176  0.00  0.00    +0.000 N 
ATOM     11  C   UNL     1       1.165   1.067  -2.815  0.00  0.00    +0.000 A 
ATOM     12  O   UNL     1       2.131   1.365  -2.117  0.00  0.00    +0.000 OA
ATOM     13  C   UNL     1      -0.054   0.472  -2.312  0.00  0.00    +0.000 A 
ATOM     14  H   UNL     1       1.996   1.698  -4.561  0.00  0.00    +0.000 HD
ENDBRANCH   3   4
BRANCH   3  15
ATOM     15  C   UNL     1       0.291   1.757   0.845  0.00  0.00    +0.000 C 
BRANCH  15  16
ATOM     16  N   UNL     1      -1.055   2.030   1.365  0.00  0.00    +0.000 NA
ATOM     17  H   UNL     1      -1.061   2.903   1.883  0.00  0.00    +0.000 HD
ATOM     18  H   UNL     1      -1.309   1.277   2.006  0.00  0.00    +0.000 HD
ENDBRANCH  15  16
ENDBRANCH   3  15
ENDBRANCH   1   3
BRANCH   1  19
ATOM     19  C   UNL     1       1.022  -0.795   2.375  0.00  0.00    +0.000 C 
BRANCH  19  20
ATOM     20  C   UNL     1       0.721  -2.007   3.225  0.00  0.00    +0.000 A 
ATOM     21  C   UNL     1       0.871  -3.288   2.687  0.00  0.00    +0.000 A 
ATOM     22  C   UNL     1       0.577  -4.417   3.450  0.00  0.00    +0.000 A 
ATOM     23  C   UNL     1       0.180  -4.295   4.788  0.00  0.00    +0.000 A 
ATOM     24  C   UNL     1       0.016  -3.011   5.323  0.00  0.00    +0.000 A 
ATOM     25  C   UNL     1       0.284  -1.877   4.549  0.00  0.00    +0.000 A 
BRANCH  23  26
ATOM     26  C   UNL     1      -0.101  -5.514   5.647  0.00  0.00    +0.000 C 
BRANCH  26  27
ATOM     27  C   UNL     1       0.775  -6.712   5.276  0.00  0.00    +0.000 C 
BRANCH  27  28
ATOM     28  N   UNL     1       0.565  -7.849   6.156  0.00  0.00    +0.000 N 
ATOM     29  C   UNL     1       1.231  -9.009   5.953  0.00  0.00    +0.000 C 
ATOM     30  N   UNL     1       0.749 -10.184   6.219  0.00  0.00    +0.000 NA
ATOM     31  C   UNL     1       1.859 -11.114   5.872  0.00  0.00    +0.000 C 
ATOM     32  C   UNL     1       3.001 -10.265   5.304  0.00  0.00    +0.000 C 
ATOM     33  N   UNL     1       2.470  -8.927   5.408  0.00  0.00    +0.000 N 
ATOM     34  H   UNL     1      -0.412  -8.043   6.357  0.00  0.00    +0.000 HD
ATOM     35  H   UNL     1       3.066  -8.251   5.869  0.00  0.00    +0.000 HD
ENDBRANCH  27  28
ENDBRANCH  26  27
ENDBRANCH  23  26
ENDBRANCH  19  20
ENDBRANCH   1  19
TORSDOF 9
