REMARK  Name = 
REMARK  7 active torsions:
REMARK  status: ('A' for Active; 'I' for Inactive)
REMARK    1  A    between atoms: C_1  and  O_2
REMARK    2  A    between atoms: O_2  and  C_3
REMARK    3  A    between atoms: C_5  and  C_6
REMARK    4  A    between atoms: N_11  and  C_12
REMARK    5  A    between atoms: C_12  and  C_13
REMARK    6  A    between atoms: C_17  and  C_18
REMARK    7  A    between atoms: C_22  and  C_23
REMARK                            x       y       z     vdW  Elec       q    Type
REMARK                         _______ _______ _______ _____ _____    ______ ____
ROOT
ATOM      1  C   UNL     1       2.390   0.586  -6.901  0.00  0.00    +0.000 A 
ATOM      2  C   UNL     1       1.905  -0.351  -6.035  0.00  0.00    +0.000 A 
ATOM      3  C   UNL     1       2.592  -0.425  -4.851  0.00  0.00    +0.000 A 
ATOM      4  N   UNL     1       3.665   0.343  -4.533  0.00  0.00    +0.000 NA
ATOM      5  C   UNL     1       4.047   1.229  -5.455  0.00  0.00    +0.000 A 
ATOM      6  N   UNL     1       5.082   2.107  -5.219  0.00  0.00    +0.000 N 
ATOM      7  N   UNL     1       3.448   1.373  -6.639  0.00  0.00    +0.000 NA
ATOM      8  H   UNL     1       5.373   2.489  -6.112  0.00  0.00    +0.000 HD
ENDROOT
BRANCH   3   9
ATOM      9  C   UNL     1       2.155  -1.405  -3.811  0.00  0.00    +0.000 C 
ATOM     10  N   UNL     1       2.889  -1.406  -2.655  0.00  0.00    +0.000 N 
ATOM     11  O   UNL     1       1.202  -2.156  -3.971  0.00  0.00    +0.000 OA
ATOM     12  H   UNL     1       3.629  -0.726  -2.527  0.00  0.00    +0.000 HD
ATOM     13  H   UNL     1       2.610  -2.006  -1.892  0.00  0.00    +0.000 HD
ENDBRANCH   3   9
BRANCH   1  15
ATOM     14  C   UNL     1       2.278   1.740  -8.931  0.00  0.00    +0.000 C 
ATOM     15  O   UNL     1       1.733   0.710  -8.110  0.00  0.00    +0.000 OA
ENDBRANCH   1  15
BRANCH   6  16
ATOM     16  C   UNL     1       6.146   1.701  -4.333  0.00  0.00    +0.000 C 
BRANCH  16  17
ATOM     17  C   UNL     1       7.263   1.015  -5.082  0.00  0.00    +0.000 A 
ATOM     18  C   UNL     1       8.292   1.761  -5.670  0.00  0.00    +0.000 A 
ATOM     19  C   UNL     1       9.346   1.117  -6.312  0.00  0.00    +0.000 A 
ATOM     20  C   UNL     1       9.383  -0.279  -6.372  0.00  0.00    +0.000 A 
ATOM     21  C   UNL     1       8.368  -1.063  -5.797  0.00  0.00    +0.000 A 
ATOM     22  C   UNL     1       7.301  -0.387  -5.175  0.00  0.00    +0.000 A 
BRANCH  21  23
ATOM     23  C   UNL     1       8.442  -2.541  -5.797  0.00  0.00    +0.000 A 
ATOM     24  C   UNL     1       9.656  -3.208  -5.590  0.00  0.00    +0.000 A 
ATOM     25  C   UNL     1       9.675  -4.593  -5.557  0.00  0.00    +0.000 A 
ATOM     26  N   UNL     1       8.579  -5.362  -5.708  0.00  0.00    +0.000 NA
ATOM     27  C   UNL     1       7.404  -4.726  -5.908  0.00  0.00    +0.000 A 
ATOM     28  C   UNL     1       6.177  -5.575  -6.059  0.00  0.00    +0.000 C 
ATOM     29  C   UNL     1       7.299  -3.337  -5.965  0.00  0.00    +0.000 A 
ENDBRANCH  21  23
ENDBRANCH  16  17
ENDBRANCH   6  16
TORSDOF 5
