REMARK  Name = 
REMARK  7 active torsions:
REMARK  status: ('A' for Active; 'I' for Inactive)
REMARK    1  A    between atoms: C_1  and  O_2
REMARK    2  A    between atoms: O_2  and  C_3
REMARK    3  A    between atoms: C_10  and  C_11
REMARK    4  A    between atoms: N_13  and  C_14
REMARK    5  A    between atoms: C_14  and  C_15
REMARK    6  A    between atoms: C_18  and  C_19
REMARK    7  A    between atoms: C_20  and  C_21
REMARK                            x       y       z     vdW  Elec       q    Type
REMARK                         _______ _______ _______ _____ _____    ______ ____
ROOT
ATOM      1  C   UNL     1       3.334  -3.481  -0.717  0.00  0.00    +0.000 C 
ATOM      2  O   UNL     1       4.454  -3.953  -0.540  0.00  0.00    +0.000 OA
ATOM      3  N   UNL     1       2.619  -2.941   0.320  0.00  0.00    +0.000 N 
ATOM      4  H   UNL     1       1.705  -2.551   0.153  0.00  0.00    +0.000 HD
ENDROOT
BRANCH   1  12
ATOM      5  C   UNL     1       0.278  -2.413  -1.883  0.00  0.00    +0.000 A 
ATOM      6  N   UNL     1      -0.799  -2.031  -2.597  0.00  0.00    +0.000 NA
ATOM      7  C   UNL     1      -0.777  -2.228  -3.917  0.00  0.00    +0.000 A 
ATOM      8  N   UNL     1       0.202  -2.783  -4.628  0.00  0.00    +0.000 NA
ATOM      9  C   UNL     1       1.259  -3.140  -3.878  0.00  0.00    +0.000 A 
ATOM     10  S   UNL     1       2.600  -3.873  -4.616  0.00  0.00    +0.000 S 
ATOM     11  C   UNL     1       3.422  -3.982  -3.130  0.00  0.00    +0.000 A 
ATOM     12  C   UNL     1       2.708  -3.463  -2.053  0.00  0.00    +0.000 A 
ATOM     13  C   UNL     1       1.403  -2.982  -2.503  0.00  0.00    +0.000 A 
BRANCH   5  15
ATOM     14  C   UNL     1      -1.052  -2.142   0.024  0.00  0.00    +0.000 C 
ATOM     15  O   UNL     1       0.263  -2.192  -0.522  0.00  0.00    +0.000 OA
ENDBRANCH   5  15
ENDBRANCH   1  12
BRANCH   3  16
ATOM     16  C   UNL     1       3.127  -2.875   1.669  0.00  0.00    +0.000 C 
BRANCH  16  17
ATOM     17  C   UNL     1       2.115  -2.265   2.610  0.00  0.00    +0.000 A 
ATOM     18  C   UNL     1       1.160  -3.068   3.246  0.00  0.00    +0.000 A 
ATOM     19  C   UNL     1       0.208  -2.509   4.112  0.00  0.00    +0.000 A 
ATOM     20  C   UNL     1       0.186  -1.133   4.360  0.00  0.00    +0.000 A 
ATOM     21  C   UNL     1       1.124  -0.326   3.702  0.00  0.00    +0.000 A 
ATOM     22  C   UNL     1       2.080  -0.883   2.839  0.00  0.00    +0.000 A 
BRANCH  20  23
ATOM     23  C   UNL     1      -0.821  -0.492   5.226  0.00  0.00    +0.000 C 
ATOM     24  C   UNL     1      -1.408  -1.056   6.298  0.00  0.00    +0.000 C 
BRANCH  24  25
ATOM     25  C   UNL     1      -2.396  -0.362   7.143  0.00  0.00    +0.000 A 
ATOM     26  C   UNL     1      -2.980  -1.013   8.228  0.00  0.00    +0.000 A 
ATOM     27  C   UNL     1      -3.894  -0.320   9.021  0.00  0.00    +0.000 A 
ATOM     28  C   UNL     1      -4.202   1.000   8.711  0.00  0.00    +0.000 A 
ATOM     29  C   UNL     1      -3.583   1.569   7.613  0.00  0.00    +0.000 A 
ATOM     30  N   UNL     1      -2.695   0.921   6.828  0.00  0.00    +0.000 NA
ENDBRANCH  24  25
ENDBRANCH  20  23
ENDBRANCH  16  17
ENDBRANCH   3  16
TORSDOF 6
