REMARK  Name = 
REMARK  3 active torsions:
REMARK  status: ('A' for Active; 'I' for Inactive)
REMARK    1  A    between atoms: C_2  and  C_3
REMARK    2  A    between atoms: C_7  and  C_8
REMARK    3  A    between atoms: C_8  and  N_9
REMARK                            x       y       z     vdW  Elec       q    Type
REMARK                         _______ _______ _______ _____ _____    ______ ____
ROOT
ATOM      1  C   UNL     1       2.406   2.436   0.009  0.00  0.00    +0.000 C 
ENDROOT
BRANCH   1   2
ATOM      2  N   UNL     1       3.857   2.282   0.032  0.00  0.00    +0.000 N 
ATOM      3  C   UNL     1       4.631   2.128  -1.094  0.00  0.00    +0.000 A 
ATOM      4  C   UNL     1       5.951   2.151  -0.710  0.00  0.00    +0.000 A 
ATOM      5  C   UNL     1       5.990   2.335   0.698  0.00  0.00    +0.000 A 
ATOM      6  C   UNL     1       7.038   2.465   1.631  0.00  0.00    +0.000 A 
ATOM      7  C   UNL     1       6.738   2.650   2.984  0.00  0.00    +0.000 A 
ATOM      8  C   UNL     1       5.415   2.694   3.414  0.00  0.00    +0.000 A 
ATOM      9  C   UNL     1       4.358   2.568   2.507  0.00  0.00    +0.000 A 
ATOM     10  C   UNL     1       4.666   2.397   1.147  0.00  0.00    +0.000 A 
ENDBRANCH   1   2
BRANCH   1  15
ATOM     11  C   UNL     1       0.741  -0.816  -1.105  0.00  0.00    +0.000 A 
ATOM     12  C   UNL     1       0.384  -1.382   0.123  0.00  0.00    +0.000 A 
ATOM     13  C   UNL     1       0.667  -0.706   1.309  0.00  0.00    +0.000 A 
ATOM     14  C   UNL     1       1.313   0.532   1.273  0.00  0.00    +0.000 A 
ATOM     15  C   UNL     1       1.689   1.109   0.051  0.00  0.00    +0.000 A 
ATOM     16  C   UNL     1       1.392   0.423  -1.138  0.00  0.00    +0.000 A 
BRANCH  11  18
ATOM     17  N   UNL     1       0.189  -2.047  -3.319  0.00  0.00    +0.000 NA
ATOM     18  C   UNL     1       0.439  -1.501  -2.326  0.00  0.00    +0.000 C 
ENDBRANCH  11  18
ENDBRANCH   1  15
TORSDOF 3
