REMARK  Name = 
REMARK  4 active torsions:
REMARK  status: ('A' for Active; 'I' for Inactive)
REMARK    1  A    between atoms: C_2  and  C_4
REMARK    2  A    between atoms: N_8  and  C_9
REMARK    3  A    between atoms: C_9  and  C_10
REMARK    4  A    between atoms: C_18  and  O_19
REMARK                            x       y       z     vdW  Elec       q    Type
REMARK                         _______ _______ _______ _____ _____    ______ ____
ROOT
ATOM      1  C   UNL     1       9.835  -2.227  -6.885  0.00  0.00    +0.000 A 
ATOM      2  C   UNL     1       9.180  -3.346  -7.391  0.00  0.00    +0.000 A 
ATOM      3  C   UNL     1       7.783  -3.387  -7.371  0.00  0.00    +0.000 A 
ATOM      4  C   UNL     1       7.068  -2.327  -6.807  0.00  0.00    +0.000 A 
ATOM      5  N   UNL     1       5.653  -2.386  -6.816  0.00  0.00    +0.000 N 
ATOM      6  N   UNL     1       7.699  -1.238  -6.318  0.00  0.00    +0.000 NA
ATOM      7  C   UNL     1       9.057  -1.213  -6.350  0.00  0.00    +0.000 A 
ATOM      8  H   UNL     1       5.354  -3.354  -6.764  0.00  0.00    +0.000 HD
ENDROOT
BRANCH   1  10
ATOM      9  N   UNL     1      12.008  -2.784  -7.823  0.00  0.00    +0.000 N 
ATOM     10  C   UNL     1      11.305  -2.075  -6.888  0.00  0.00    +0.000 C 
ATOM     11  O   UNL     1      11.872  -1.317  -6.113  0.00  0.00    +0.000 OA
ATOM     12  H   UNL     1      12.999  -2.586  -7.885  0.00  0.00    +0.000 HD
ATOM     13  H   UNL     1      11.570  -3.216  -8.624  0.00  0.00    +0.000 HD
ENDBRANCH   1  10
BRANCH   5  14
ATOM     14  C   UNL     1       4.935  -1.539  -5.811  0.00  0.00    +0.000 C 
ATOM     15  C   UNL     1       4.656  -0.090  -6.161  0.00  0.00    +0.000 C 
ATOM     16  C   UNL     1       3.520  -1.059  -6.144  0.00  0.00    +0.000 C 
BRANCH  14  17
ATOM     17  C   UNL     1       5.156  -1.973  -4.358  0.00  0.00    +0.000 A 
ATOM     18  C   UNL     1       4.714  -3.233  -3.904  0.00  0.00    +0.000 A 
ATOM     19  C   UNL     1       4.923  -3.647  -2.586  0.00  0.00    +0.000 A 
ATOM     20  C   UNL     1       5.568  -2.797  -1.699  0.00  0.00    +0.000 A 
ATOM     21  F   UNL     1       5.760  -3.187  -0.433  0.00  0.00    +0.000 F 
ATOM     22  C   UNL     1       6.024  -1.553  -2.109  0.00  0.00    +0.000 A 
ATOM     23  C   UNL     1       5.829  -1.154  -3.433  0.00  0.00    +0.000 A 
ENDBRANCH  14  17
BRANCH  16  24
ATOM     24  O   UNL     1       2.996  -1.442  -7.429  0.00  0.00    +0.000 OA
ATOM     25  H   UNL     1       3.714  -1.477  -8.087  0.00  0.00    +0.000 HD
ENDBRANCH  16  24
ENDBRANCH   5  14
TORSDOF 4
