REMARK  Name = 
REMARK  9 active torsions:
REMARK  status: ('A' for Active; 'I' for Inactive)
REMARK    1  A    between atoms: C_2  and  C_22
REMARK    2  A    between atoms: N_3  and  CA_4
REMARK    3  A    between atoms: CA_4  and  C_5
REMARK    4  A    between atoms: CA_4  and  C_7
REMARK    5  A    between atoms: C_5  and  O_6
REMARK    6  A    between atoms: C_10  and  C_11
REMARK    7  A    between atoms: C_11  and  N_12
REMARK    8  A    between atoms: N_12  and  C_13
REMARK    9  A    between atoms: C_13  and  C_14
REMARK                            x       y       z     vdW  Elec       q    Type
REMARK                         _______ _______ _______ _____ _____    ______ ____
ROOT
ATOM      1  CA  UNL     1       2.196  -0.853  -2.503  0.00  0.00    +0.000 C 
ENDROOT
BRANCH   1   2
ATOM      2  C   UNL     1       3.157  -1.359  -3.566  0.00  0.00    +0.000 A 
ATOM      3  C   UNL     1       3.897  -0.416  -4.291  0.00  0.00    +0.000 A 
ATOM      4  C   UNL     1       4.810  -0.817  -5.262  0.00  0.00    +0.000 A 
ATOM      5  C   UNL     1       5.044  -2.176  -5.507  0.00  0.00    +0.000 A 
ATOM      6  C   UNL     1       4.288  -3.121  -4.801  0.00  0.00    +0.000 A 
ATOM      7  C   UNL     1       3.369  -2.719  -3.831  0.00  0.00    +0.000 A 
BRANCH   5   8
ATOM      8  C   UNL     1       6.062  -2.658  -6.515  0.00  0.00    +0.000 C 
BRANCH   8   9
ATOM      9  N   UNL     1       7.222  -1.788  -6.704  0.00  0.00    +0.000 NA
ATOM     10  H   UNL     1       6.908  -0.883  -7.047  0.00  0.00    +0.000 HD
BRANCH   9  11
ATOM     11  C   UNL     1       8.043  -1.620  -5.500  0.00  0.00    +0.000 C 
BRANCH  11  12
ATOM     12  C   UNL     1       9.137  -0.568  -5.779  0.00  0.00    +0.000 C 
ATOM     13  C   UNL     1      10.116  -1.016  -6.878  0.00  0.00    +0.000 C 
ATOM     14  C   UNL     1      11.176  -1.988  -6.367  0.00  0.00    +0.000 C 
ATOM     15  N   UNL     1      11.900  -1.439  -5.220  0.00  0.00    +0.000 NA
ATOM     16  C   UNL     1      10.984  -1.179  -4.111  0.00  0.00    +0.000 C 
ATOM     17  C   UNL     1       9.899  -0.178  -4.500  0.00  0.00    +0.000 C 
ATOM     18  H   UNL     1      12.339  -0.560  -5.500  0.00  0.00    +0.000 HD
ENDBRANCH  11  12
ENDBRANCH   9  11
ENDBRANCH   8   9
ENDBRANCH   5   8
ENDBRANCH   1   2
BRANCH   1  21
ATOM     19  O   UNL     1       3.579   1.499  -1.620  0.00  0.00    +0.000 OA
ATOM     20  C   UNL     1       3.520   0.515  -0.891  0.00  0.00    +0.000 C 
ATOM     21  N   UNL     1       2.920  -0.657  -1.262  0.00  0.00    +0.000 N 
ATOM     22  H   UNL     1       2.944  -1.448  -0.630  0.00  0.00    +0.000 HD
BRANCH  20  23
ATOM     23  C   UNL     1       4.107   0.511   0.455  0.00  0.00    +0.000 A 
ATOM     24  C   UNL     1       5.130   1.396   0.780  0.00  0.00    +0.000 A 
ATOM     25  S   UNL     1       5.651   1.263   2.400  0.00  0.00    +0.000 S 
ATOM     26  C   UNL     1       4.504   0.049   2.731  0.00  0.00    +0.000 A 
ATOM     27  N   UNL     1       4.383  -0.485   3.976  0.00  0.00    +0.000 NA
ATOM     28  C   UNL     1       3.435  -1.354   4.096  0.00  0.00    +0.000 A 
ATOM     29  N   UNL     1       2.607  -1.752   3.083  0.00  0.00    +0.000 N 
ATOM     30  C   UNL     1       2.752  -1.313   1.791  0.00  0.00    +0.000 A 
ATOM     31  O   UNL     1       2.108  -1.819   0.878  0.00  0.00    +0.000 OA
ATOM     32  C   UNL     1       3.760  -0.283   1.613  0.00  0.00    +0.000 A 
ATOM     33  H   UNL     1       1.911  -2.469   3.231  0.00  0.00    +0.000 HD
ENDBRANCH  20  23
ENDBRANCH   1  21
BRANCH   1  34
ATOM     34  C   UNL     1       0.974  -1.776  -2.270  0.00  0.00    +0.000 C 
BRANCH  34  35
ATOM     35  O   UNL     1       0.149  -1.901  -3.428  0.00  0.00    +0.000 OA
ATOM     36  H   UNL     1       0.723  -2.143  -4.177  0.00  0.00    +0.000 HD
ENDBRANCH  34  35
ENDBRANCH   1  34
TORSDOF 9
