REMARK  Name = 
REMARK  7 active torsions:
REMARK  status: ('A' for Active; 'I' for Inactive)
REMARK    1  A    between atoms: N_1  and  C_2
REMARK    2  A    between atoms: C_2  and  N_3
REMARK    3  A    between atoms: C_2  and  C_16
REMARK    4  A    between atoms: C_4  and  C_6
REMARK    5  A    between atoms: C_19  and  C_20
REMARK    6  A    between atoms: C_20  and  N_21
REMARK    7  A    between atoms: C_22  and  C_24
REMARK                            x       y       z     vdW  Elec       q    Type
REMARK                         _______ _______ _______ _____ _____    ______ ____
ROOT
ATOM      1  C   UNL     1       2.466  -0.129   0.050  0.00  0.00    +0.000 C 
ENDROOT
BRANCH   1   2
ATOM      2  C   UNL     1       2.838   1.265   0.521  0.00  0.00    +0.000 A 
ATOM      3  C   UNL     1       2.471   2.393  -0.226  0.00  0.00    +0.000 A 
ATOM      4  C   UNL     1       2.777   3.683   0.226  0.00  0.00    +0.000 A 
ATOM      5  C   UNL     1       3.472   3.875   1.429  0.00  0.00    +0.000 A 
ATOM      6  C   UNL     1       3.850   2.752   2.173  0.00  0.00    +0.000 A 
ATOM      7  C   UNL     1       3.543   1.465   1.722  0.00  0.00    +0.000 A 
BRANCH   5   8
ATOM      8  C   UNL     1       3.810   5.258   1.915  0.00  0.00    +0.000 C 
BRANCH   8   9
ATOM      9  N   UNL     1       2.789   5.814   2.762  0.00  0.00    +0.000 N 
ATOM     10  C   UNL     1       2.938   7.064   3.318  0.00  0.00    +0.000 C 
ATOM     11  O   UNL     1       3.949   7.747   3.184  0.00  0.00    +0.000 OA
ATOM     12  H   UNL     1       1.899   5.345   2.899  0.00  0.00    +0.000 HD
BRANCH  10  13
ATOM     13  C   UNL     1       1.771   7.514   4.079  0.00  0.00    +0.000 A 
ATOM     14  C   UNL     1       1.641   8.720   4.741  0.00  0.00    +0.000 A 
ATOM     15  N   UNL     1       0.390   8.707   5.290  0.00  0.00    +0.000 N 
ATOM     16  C   UNL     1      -0.192   7.515   4.958  0.00  0.00    +0.000 A 
ATOM     17  N   UNL     1       0.608   6.767   4.230  0.00  0.00    +0.000 NA
ATOM     18  H   UNL     1      -0.032   9.442   5.839  0.00  0.00    +0.000 HD
ENDBRANCH  10  13
ENDBRANCH   8   9
ENDBRANCH   5   8
ENDBRANCH   1   2
BRANCH   1  19
ATOM     19  N   UNL     1       1.747  -0.829   1.077  0.00  0.00    +0.000 N 
ATOM     20  C   UNL     1       1.235  -2.091   0.909  0.00  0.00    +0.000 C 
ATOM     21  O   UNL     1       1.449  -2.758  -0.100  0.00  0.00    +0.000 OA
ATOM     22  H   UNL     1       1.250  -0.223   1.723  0.00  0.00    +0.000 HD
BRANCH  20  23
ATOM     23  C   UNL     1       0.525  -2.660   2.060  0.00  0.00    +0.000 A 
ATOM     24  C   UNL     1       0.533  -4.033   2.260  0.00  0.00    +0.000 A 
ATOM     25  S   UNL     1      -0.297  -4.524   3.666  0.00  0.00    +0.000 S 
ATOM     26  C   UNL     1      -0.737  -2.921   4.030  0.00  0.00    +0.000 A 
ATOM     27  N   UNL     1      -1.505  -2.635   5.116  0.00  0.00    +0.000 NA
ATOM     28  C   UNL     1      -1.786  -1.382   5.253  0.00  0.00    +0.000 A 
ATOM     29  N   UNL     1      -1.358  -0.388   4.408  0.00  0.00    +0.000 N 
ATOM     30  C   UNL     1      -0.558  -0.626   3.319  0.00  0.00    +0.000 A 
ATOM     31  O   UNL     1      -0.147   0.281   2.605  0.00  0.00    +0.000 OA
ATOM     32  C   UNL     1      -0.233  -2.023   3.108  0.00  0.00    +0.000 A 
ATOM     33  H   UNL     1      -1.604   0.577   4.583  0.00  0.00    +0.000 HD
ENDBRANCH  20  23
ENDBRANCH   1  19
BRANCH   1  34
ATOM     34  N   UNL     1       3.653  -0.910  -0.232  0.00  0.00    +0.000 NA
ATOM     35  H   UNL     1       3.320  -1.827  -0.542  0.00  0.00    +0.000 HD
ATOM     36  H   UNL     1       4.124  -1.086   0.649  0.00  0.00    +0.000 HD
ENDBRANCH   1  34
TORSDOF 7
