REMARK  Name = 
REMARK  5 active torsions:
REMARK  status: ('A' for Active; 'I' for Inactive)
REMARK    1  A    between atoms: N_1  and  C_2
REMARK    2  A    between atoms: C_2  and  C_3
REMARK    3  A    between atoms: C_3  and  C_4
REMARK    4  A    between atoms: C_8  and  C_9
REMARK    5  A    between atoms: C_9  and  N_10
REMARK                            x       y       z     vdW  Elec       q    Type
REMARK                         _______ _______ _______ _____ _____    ______ ____
ROOT
ATOM      1  C   UNL     1       4.518   1.359   0.595  0.00  0.00    +0.000 A 
ATOM      2  C   UNL     1       5.160   2.602   0.660  0.00  0.00    +0.000 A 
ATOM      3  C   UNL     1       6.549   2.677   0.742  0.00  0.00    +0.000 A 
ATOM      4  C   UNL     1       7.313   1.511   0.783  0.00  0.00    +0.000 A 
ATOM      5  C   UNL     1       6.696   0.253   0.739  0.00  0.00    +0.000 A 
ATOM      6  C   UNL     1       5.299   0.192   0.613  0.00  0.00    +0.000 A 
ENDROOT
BRANCH   1   7
ATOM      7  C   UNL     1       3.010   1.292   0.486  0.00  0.00    +0.000 C 
BRANCH   7   8
ATOM      8  C   UNL     1       2.359   0.478   1.612  0.00  0.00    +0.000 C 
BRANCH   8   9
ATOM      9  N   UNL     1       0.900   0.488   1.496  0.00  0.00    +0.000 NA
ATOM     10  H   UNL     1       0.500  -0.093   2.231  0.00  0.00    +0.000 HD
ATOM     11  H   UNL     1       0.622   0.066   0.612  0.00  0.00    +0.000 HD
ENDBRANCH   8   9
ENDBRANCH   7   8
ENDBRANCH   1   7
BRANCH   5  12
ATOM     12  C   UNL     1       7.512  -1.012   0.860  0.00  0.00    +0.000 C 
BRANCH  12  13
ATOM     13  N   UNL     1       7.959  -1.522  -0.431  0.00  0.00    +0.000 N 
ATOM     14  C   UNL     1       7.263  -2.444  -1.177  0.00  0.00    +0.000 A 
ATOM     15  C   UNL     1       7.993  -2.711  -2.312  0.00  0.00    +0.000 A 
ATOM     16  C   UNL     1       9.193  -1.951  -2.246  0.00  0.00    +0.000 A 
ATOM     17  C   UNL     1      10.303  -1.812  -3.088  0.00  0.00    +0.000 A 
ATOM     18  N   UNL     1      11.341  -1.013  -2.741  0.00  0.00    +0.000 NA
ATOM     19  C   UNL     1      11.287  -0.357  -1.563  0.00  0.00    +0.000 A 
ATOM     20  C   UNL     1      10.236  -0.425  -0.661  0.00  0.00    +0.000 A 
ATOM     21  C   UNL     1       9.166  -1.239  -1.042  0.00  0.00    +0.000 A 
ENDBRANCH  12  13
ENDBRANCH   5  12
TORSDOF 5
