REMARK  Name = 
REMARK  8 active torsions:
REMARK  status: ('A' for Active; 'I' for Inactive)
REMARK    1  A    between atoms: C_1  and  C_2
REMARK    2  A    between atoms: C_2  and  C_3
REMARK    3  A    between atoms: C_2  and  C_4
REMARK    4  A    between atoms: C_2  and  C_5
REMARK    5  A    between atoms: C_8  and  C_9
REMARK    6  A    between atoms: C_9  and  O_10
REMARK    7  A    between atoms: O_10  and  C_11
REMARK    8  A    between atoms: C_15  and  C_16
REMARK                            x       y       z     vdW  Elec       q    Type
REMARK                         _______ _______ _______ _____ _____    ______ ____
ROOT
ATOM      1  O   UNL     1       5.405  -4.084  -4.101  0.00  0.00    +0.000 OA
ENDROOT
BRANCH   1   2
ATOM      2  C   UNL     1       5.737  -4.930  -5.141  0.00  0.00    +0.000 A 
ATOM      3  C   UNL     1       6.945  -5.607  -5.055  0.00  0.00    +0.000 A 
ATOM      4  C   UNL     1       7.290  -6.478  -6.088  0.00  0.00    +0.000 A 
ATOM      5  C   UNL     1       6.421  -6.645  -7.163  0.00  0.00    +0.000 A 
ATOM      6  C   UNL     1       5.235  -5.926  -7.157  0.00  0.00    +0.000 A 
ATOM      7  N   UNL     1       4.876  -5.068  -6.169  0.00  0.00    +0.000 NA
BRANCH   6   8
ATOM      8  C   UNL     1       4.246  -6.078  -8.269  0.00  0.00    +0.000 C 
ATOM      9  N   UNL     1       3.112  -5.321  -8.143  0.00  0.00    +0.000 N 
ATOM     10  O   UNL     1       4.430  -6.825  -9.222  0.00  0.00    +0.000 OA
ATOM     11  H   UNL     1       2.995  -4.727  -7.330  0.00  0.00    +0.000 HD
ATOM     12  H   UNL     1       2.386  -5.384  -8.842  0.00  0.00    +0.000 HD
ENDBRANCH   6   8
ENDBRANCH   1   2
BRANCH   1  13
ATOM     13  C   UNL     1       4.156  -3.433  -4.340  0.00  0.00    +0.000 C 
BRANCH  13  17
ATOM     14  C   UNL     1       2.953  -0.871  -1.042  0.00  0.00    +0.000 A 
ATOM     15  C   UNL     1       3.771  -0.396  -2.082  0.00  0.00    +0.000 A 
ATOM     16  C   UNL     1       4.184  -1.227  -3.127  0.00  0.00    +0.000 A 
ATOM     17  C   UNL     1       3.782  -2.562  -3.170  0.00  0.00    +0.000 A 
ATOM     18  C   UNL     1       2.998  -3.064  -2.128  0.00  0.00    +0.000 A 
ATOM     19  C   UNL     1       2.589  -2.230  -1.082  0.00  0.00    +0.000 A 
BRANCH  14  21
ATOM     20  C   UNL     1       2.939   1.499  -0.047  0.00  0.00    +0.000 C 
ATOM     21  C   UNL     1       2.443   0.042   0.087  0.00  0.00    +0.000 C 
ATOM     22  C   UNL     1       2.916  -0.478   1.461  0.00  0.00    +0.000 C 
ATOM     23  C   UNL     1       0.899   0.072   0.076  0.00  0.00    +0.000 C 
ENDBRANCH  14  21
ENDBRANCH  13  17
ENDBRANCH   1  13
TORSDOF 5
