REMARK  Name = 
REMARK  4 active torsions:
REMARK  status: ('A' for Active; 'I' for Inactive)
REMARK    1  A    between atoms: C_2  and  C_4
REMARK    2  A    between atoms: N_8  and  C_9
REMARK    3  A    between atoms: C_9  and  C_10
REMARK    4  A    between atoms: C_15  and  C_16
REMARK                            x       y       z     vdW  Elec       q    Type
REMARK                         _______ _______ _______ _____ _____    ______ ____
ROOT
ATOM      1  C   UNL     1       5.061  -2.110   5.574  0.00  0.00    +0.000 C 
ENDROOT
BRANCH   1   6
ATOM      2  C   UNL     1       7.507  -0.449   1.363  0.00  0.00    +0.000 A 
ATOM      3  C   UNL     1       7.056  -1.734   1.656  0.00  0.00    +0.000 A 
ATOM      4  C   UNL     1       6.278  -1.938   2.796  0.00  0.00    +0.000 A 
ATOM      5  C   UNL     1       5.970  -0.865   3.625  0.00  0.00    +0.000 A 
ATOM      6  N   UNL     1       5.123  -0.953   4.705  0.00  0.00    +0.000 N 
ATOM      7  N   UNL     1       6.418   0.380   3.361  0.00  0.00    +0.000 NA
ATOM      8  C   UNL     1       7.181   0.562   2.251  0.00  0.00    +0.000 A 
ATOM      9  H   UNL     1       5.094  -0.049   5.166  0.00  0.00    +0.000 HD
BRANCH   2  11
ATOM     10  N   UNL     1       8.140  -0.941  -0.930  0.00  0.00    +0.000 N 
ATOM     11  C   UNL     1       8.301  -0.130   0.160  0.00  0.00    +0.000 C 
ATOM     12  O   UNL     1       9.041   0.844   0.122  0.00  0.00    +0.000 OA
ATOM     13  H   UNL     1       8.606  -0.647  -1.780  0.00  0.00    +0.000 HD
ATOM     14  H   UNL     1       7.365  -1.580  -1.024  0.00  0.00    +0.000 HD
ENDBRANCH   2  11
ENDBRANCH   1   6
BRANCH   1  15
ATOM     15  C   UNL     1       6.130  -2.159   6.647  0.00  0.00    +0.000 A 
ATOM     16  C   UNL     1       6.672  -1.016   7.242  0.00  0.00    +0.000 A 
ATOM     17  C   UNL     1       7.586  -1.136   8.288  0.00  0.00    +0.000 A 
ATOM     18  C   UNL     1       7.957  -2.396   8.759  0.00  0.00    +0.000 A 
ATOM     19  F   UNL     1       8.848  -2.438   9.763  0.00  0.00    +0.000 F 
ATOM     20  C   UNL     1       7.423  -3.577   8.222  0.00  0.00    +0.000 A 
ATOM     21  C   UNL     1       6.506  -3.420   7.159  0.00  0.00    +0.000 A 
BRANCH  20  22
ATOM     22  C   UNL     1       7.742  -4.928   8.752  0.00  0.00    +0.000 A 
ATOM     23  C   UNL     1       7.991  -5.148  10.119  0.00  0.00    +0.000 A 
ATOM     24  C   UNL     1       8.224  -6.432  10.627  0.00  0.00    +0.000 A 
ATOM     25  C   UNL     1       8.204  -7.533   9.778  0.00  0.00    +0.000 A 
ATOM     26  C   UNL     1       7.974  -7.348   8.420  0.00  0.00    +0.000 A 
ATOM     27  C   UNL     1       7.759  -6.061   7.914  0.00  0.00    +0.000 A 
ENDBRANCH  20  22
ENDBRANCH   1  15
TORSDOF 4
