REMARK  Name = 
REMARK  9 active torsions:
REMARK  status: ('A' for Active; 'I' for Inactive)
REMARK    1  A    between atoms: C_2  and  C_21
REMARK    2  A    between atoms: N_3  and  C_4
REMARK    3  A    between atoms: C_4  and  C_5
REMARK    4  A    between atoms: C_8  and  C_9
REMARK    5  A    between atoms: C_9  and  N_10
REMARK    6  A    between atoms: N_10  and  CA_11
REMARK    7  A    between atoms: CA_11  and  C_12
REMARK    8  A    between atoms: CA_11  and  C_14
REMARK    9  A    between atoms: C_12  and  O_13
REMARK                            x       y       z     vdW  Elec       q    Type
REMARK                         _______ _______ _______ _____ _____    ______ ____
ROOT
ATOM      1  C   UNL     1      12.692   7.209   5.058  0.00  0.00    +0.000 A 
ATOM      2  C   UNL     1      11.717   6.301   4.620  0.00  0.00    +0.000 A 
ATOM      3  C   UNL     1      10.364   6.503   4.914  0.00  0.00    +0.000 A 
ATOM      4  C   UNL     1       9.957   7.618   5.653  0.00  0.00    +0.000 A 
ATOM      5  C   UNL     1      10.934   8.547   6.054  0.00  0.00    +0.000 A 
ATOM      6  C   UNL     1      12.284   8.348   5.758  0.00  0.00    +0.000 A 
ENDROOT
BRANCH   1   7
ATOM      7  C   UNL     1      14.149   6.963   4.780  0.00  0.00    +0.000 C 
BRANCH   7  10
ATOM      8  O   UNL     1      16.742   6.946   3.872  0.00  0.00    +0.000 OA
ATOM      9  C   UNL     1      15.878   7.407   3.126  0.00  0.00    +0.000 C 
ATOM     10  N   UNL     1      14.567   7.516   3.517  0.00  0.00    +0.000 N 
ATOM     11  H   UNL     1      13.849   7.694   2.823  0.00  0.00    +0.000 HD
BRANCH   9  12
ATOM     12  C   UNL     1      16.218   7.907   1.793  0.00  0.00    +0.000 A 
ATOM     13  C   UNL     1      17.512   8.337   1.529  0.00  0.00    +0.000 A 
ATOM     14  S   UNL     1      17.742   8.861  -0.077  0.00  0.00    +0.000 S 
ATOM     15  C   UNL     1      16.131   8.495  -0.484  0.00  0.00    +0.000 A 
ATOM     16  N   UNL     1      15.675   8.668  -1.752  0.00  0.00    +0.000 NA
ATOM     17  C   UNL     1      14.444   8.317  -1.930  0.00  0.00    +0.000 A 
ATOM     18  N   UNL     1      13.625   7.819  -0.947  0.00  0.00    +0.000 N 
ATOM     19  C   UNL     1      14.030   7.667   0.357  0.00  0.00    +0.000 A 
ATOM     20  O   UNL     1      13.254   7.287   1.227  0.00  0.00    +0.000 OA
ATOM     21  C   UNL     1      15.417   8.015   0.600  0.00  0.00    +0.000 A 
ATOM     22  H   UNL     1      12.664   7.583  -1.147  0.00  0.00    +0.000 HD
ENDBRANCH   9  12
ENDBRANCH   7  10
ENDBRANCH   1   7
BRANCH   4  23
ATOM     23  C   UNL     1       8.504   7.922   5.944  0.00  0.00    +0.000 C 
BRANCH  23  24
ATOM     24  N   UNL     1       7.653   6.744   6.170  0.00  0.00    +0.000 NA
ATOM     25  H   UNL     1       7.974   6.303   7.037  0.00  0.00    +0.000 HD
BRANCH  24  26
ATOM     26  CA  UNL     1       6.244   7.176   6.436  0.00  0.00    +0.000 C 
BRANCH  26  27
ATOM     27  C   UNL     1       5.332   5.946   6.550  0.00  0.00    +0.000 C 
ATOM     28  N   UNL     1       4.044   6.063   6.775  0.00  0.00    +0.000 NA
ATOM     29  C   UNL     1       3.556   4.656   6.914  0.00  0.00    +0.000 C 
ATOM     30  C   UNL     1       4.744   3.722   6.636  0.00  0.00    +0.000 C 
ATOM     31  N   UNL     1       5.793   4.669   6.427  0.00  0.00    +0.000 N 
ATOM     32  H   UNL     1       6.773   4.452   6.304  0.00  0.00    +0.000 HD
ENDBRANCH  26  27
BRANCH  26  33
ATOM     33  C   UNL     1       6.088   8.000   7.734  0.00  0.00    +0.000 C 
BRANCH  33  34
ATOM     34  O   UNL     1       6.710   7.330   8.836  0.00  0.00    +0.000 OA
ATOM     35  H   UNL     1       6.438   7.809   9.639  0.00  0.00    +0.000 HD
ENDBRANCH  33  34
ENDBRANCH  26  33
ENDBRANCH  24  26
ENDBRANCH  23  24
ENDBRANCH   4  23
TORSDOF 9
