REMARK  Name = 
REMARK  5 active torsions:
REMARK  status: ('A' for Active; 'I' for Inactive)
REMARK    1  A    between atoms: N_1  and  C_2
REMARK    2  A    between atoms: C_2  and  C_3
REMARK    3  A    between atoms: C_3  and  C_4
REMARK    4  A    between atoms: C_7  and  C_8
REMARK    5  A    between atoms: C_8  and  N_9
REMARK                            x       y       z     vdW  Elec       q    Type
REMARK                         _______ _______ _______ _____ _____    ______ ____
ROOT
ATOM      1  C   UNL     1       4.641  -1.444  -0.276  0.00  0.00    +0.000 A 
ATOM      2  C   UNL     1       5.410  -2.596  -0.484  0.00  0.00    +0.000 A 
ATOM      3  C   UNL     1       6.805  -2.519  -0.547  0.00  0.00    +0.000 A 
ATOM      4  C   UNL     1       7.465  -1.292  -0.388  0.00  0.00    +0.000 A 
ATOM      5  C   UNL     1       6.694  -0.142  -0.181  0.00  0.00    +0.000 A 
ATOM      6  C   UNL     1       5.300  -0.218  -0.115  0.00  0.00    +0.000 A 
ENDROOT
BRANCH   1   7
ATOM      7  C   UNL     1       3.128  -1.517  -0.234  0.00  0.00    +0.000 C 
BRANCH   7   8
ATOM      8  C   UNL     1       2.581  -1.747   1.174  0.00  0.00    +0.000 C 
BRANCH   8   9
ATOM      9  N   UNL     1       1.118  -1.809   1.153  0.00  0.00    +0.000 NA
ATOM     10  H   UNL     1       0.774  -1.990   2.095  0.00  0.00    +0.000 HD
ATOM     11  H   UNL     1       0.812  -2.598   0.582  0.00  0.00    +0.000 HD
ENDBRANCH   8   9
ENDBRANCH   7   8
ENDBRANCH   1   7
BRANCH   4  12
ATOM     12  C   UNL     1       8.979  -1.206  -0.409  0.00  0.00    +0.000 C 
BRANCH  12  13
ATOM     13  N   UNL     1       9.523  -0.953  -1.729  0.00  0.00    +0.000 N 
ATOM     14  C   UNL     1       9.431  -1.817  -2.794  0.00  0.00    +0.000 A 
ATOM     15  C   UNL     1      10.157  -1.295  -3.839  0.00  0.00    +0.000 A 
ATOM     16  C   UNL     1      10.992  -0.296  -3.283  0.00  0.00    +0.000 A 
ATOM     17  C   UNL     1      12.158   0.348  -3.733  0.00  0.00    +0.000 A 
ATOM     18  C   UNL     1      12.741   1.310  -2.917  0.00  0.00    +0.000 A 
ATOM     19  F   UNL     1      13.928   1.828  -3.263  0.00  0.00    +0.000 F 
ATOM     20  C   UNL     1      12.131   1.732  -1.743  0.00  0.00    +0.000 A 
ATOM     21  C   UNL     1      10.968   1.109  -1.278  0.00  0.00    +0.000 A 
ATOM     22  C   UNL     1      10.471   0.024  -2.017  0.00  0.00    +0.000 A 
ENDBRANCH  12  13
ENDBRANCH   4  12
TORSDOF 5
