REMARK  Name = 
REMARK  5 active torsions:
REMARK  status: ('A' for Active; 'I' for Inactive)
REMARK    1  A    between atoms: N_1  and  C_2
REMARK    2  A    between atoms: C_2  and  C_3
REMARK    3  A    between atoms: C_3  and  C_4
REMARK    4  A    between atoms: C_7  and  C_8
REMARK    5  A    between atoms: C_8  and  N_9
REMARK                            x       y       z     vdW  Elec       q    Type
REMARK                         _______ _______ _______ _____ _____    ______ ____
ROOT
ATOM      1  C   UNL     1       4.461   1.364  -0.510  0.00  0.00    +0.000 A 
ATOM      2  C   UNL     1       5.114   2.603  -0.519  0.00  0.00    +0.000 A 
ATOM      3  C   UNL     1       6.509   2.673  -0.445  0.00  0.00    +0.000 A 
ATOM      4  C   UNL     1       7.281   1.506  -0.367  0.00  0.00    +0.000 A 
ATOM      5  C   UNL     1       6.626   0.267  -0.390  0.00  0.00    +0.000 A 
ATOM      6  C   UNL     1       5.231   0.196  -0.467  0.00  0.00    +0.000 A 
ENDROOT
BRANCH   1   7
ATOM      7  C   UNL     1       2.953   1.292  -0.519  0.00  0.00    +0.000 C 
BRANCH   7   8
ATOM      8  C   UNL     1       2.362   1.253  -1.931  0.00  0.00    +0.000 C 
BRANCH   8   9
ATOM      9  N   UNL     1       0.899   1.221  -1.881  0.00  0.00    +0.000 NA
ATOM     10  H   UNL     1       0.527   1.232  -2.829  0.00  0.00    +0.000 HD
ATOM     11  H   UNL     1       0.553   2.068  -1.430  0.00  0.00    +0.000 HD
ENDBRANCH   8   9
ENDBRANCH   7   8
ENDBRANCH   1   7
BRANCH   4  12
ATOM     12  C   UNL     1       8.783   1.577  -0.257  0.00  0.00    +0.000 C 
BRANCH  12  13
ATOM     13  N   UNL     1       9.244   1.608   1.129  0.00  0.00    +0.000 N 
ATOM     14  C   UNL     1       9.514   0.484   1.879  0.00  0.00    +0.000 A 
ATOM     15  C   UNL     1      10.064   0.888   3.075  0.00  0.00    +0.000 A 
ATOM     16  C   UNL     1      10.144   2.299   3.049  0.00  0.00    +0.000 A 
ATOM     17  N   UNL     1      10.644   3.134   3.992  0.00  0.00    +0.000 NA
ATOM     18  C   UNL     1      10.598   4.443   3.673  0.00  0.00    +0.000 A 
ATOM     19  C   UNL     1      10.081   4.966   2.496  0.00  0.00    +0.000 A 
ATOM     20  C   UNL     1       9.567   4.102   1.532  0.00  0.00    +0.000 A 
ATOM     21  C   UNL     1       9.617   2.737   1.832  0.00  0.00    +0.000 A 
ENDBRANCH  12  13
ENDBRANCH   4  12
TORSDOF 5
