REMARK  Name = 
REMARK  5 active torsions:
REMARK  status: ('A' for Active; 'I' for Inactive)
REMARK    1  A    between atoms: C_2  and  C_3
REMARK    2  A    between atoms: N_7  and  C_8
REMARK    3  A    between atoms: C_8  and  C_9
REMARK    4  A    between atoms: C_13  and  C_14
REMARK    5  A    between atoms: C_24  and  C_25
REMARK                            x       y       z     vdW  Elec       q    Type
REMARK                         _______ _______ _______ _____ _____    ______ ____
ROOT
ATOM      1  C   UNL     1       8.626  -0.794   0.042  0.00  0.00    +0.000 C 
ATOM      2  C   UNL     1       9.082  -1.879  -0.930  0.00  0.00    +0.000 C 
ATOM      3  C   UNL     1       8.681  -2.251   0.459  0.00  0.00    +0.000 C 
ENDROOT
BRANCH   1   8
ATOM      4  C   UNL     1       4.217   1.336   1.688  0.00  0.00    +0.000 A 
ATOM      5  N   UNL     1       4.776   0.182   2.156  0.00  0.00    +0.000 NA
ATOM      6  C   UNL     1       5.875  -0.265   1.494  0.00  0.00    +0.000 A 
ATOM      7  C   UNL     1       6.409   0.381   0.400  0.00  0.00    +0.000 A 
ATOM      8  N   UNL     1       7.405  -0.118  -0.426  0.00  0.00    +0.000 N 
ATOM      9  N   UNL     1       5.876   1.547  -0.023  0.00  0.00    +0.000 NA
ATOM     10  C   UNL     1       4.772   2.036   0.625  0.00  0.00    +0.000 A 
ATOM     11  H   UNL     1       7.578   0.624  -1.103  0.00  0.00    +0.000 HD
BRANCH  10  12
ATOM     12  C   UNL     1       4.210   3.343   0.118  0.00  0.00    +0.000 C 
ATOM     13  F   UNL     1       3.033   3.729   0.678  0.00  0.00    +0.000 F 
ATOM     14  F   UNL     1       5.065   4.386   0.323  0.00  0.00    +0.000 F 
ATOM     15  F   UNL     1       3.974   3.319  -1.226  0.00  0.00    +0.000 F 
ENDBRANCH  10  12
BRANCH   4  17
ATOM     16  N   UNL     1       1.993   2.013   2.843  0.00  0.00    +0.000 NA
ATOM     17  C   UNL     1       2.995   1.711   2.343  0.00  0.00    +0.000 C 
ENDBRANCH   4  17
ENDBRANCH   1   8
BRANCH   1  18
ATOM     18  C   UNL     1       9.652   0.179   0.622  0.00  0.00    +0.000 A 
ATOM     19  C   UNL     1      10.185   1.206  -0.175  0.00  0.00    +0.000 A 
ATOM     20  C   UNL     1      10.949   2.229   0.379  0.00  0.00    +0.000 A 
ATOM     21  C   UNL     1      11.247   2.218   1.741  0.00  0.00    +0.000 A 
ATOM     22  C   UNL     1      10.807   1.179   2.577  0.00  0.00    +0.000 A 
ATOM     23  C   UNL     1      10.000   0.180   1.990  0.00  0.00    +0.000 A 
BRANCH  22  24
ATOM     24  C   UNL     1      11.170   1.143   4.016  0.00  0.00    +0.000 A 
ATOM     25  C   UNL     1      11.287   2.321   4.778  0.00  0.00    +0.000 A 
ATOM     26  C   UNL     1      11.666   2.290   6.125  0.00  0.00    +0.000 A 
ATOM     27  C   UNL     1      11.924   1.075   6.749  0.00  0.00    +0.000 A 
ATOM     28  C   UNL     1      11.805  -0.108   6.026  0.00  0.00    +0.000 A 
ATOM     29  C   UNL     1      11.438  -0.072   4.676  0.00  0.00    +0.000 A 
ENDBRANCH  22  24
ENDBRANCH   1  18
TORSDOF 5
