REMARK  Name = 
REMARK  6 active torsions:
REMARK  status: ('A' for Active; 'I' for Inactive)
REMARK    1  A    between atoms: C_2  and  C_3
REMARK    2  A    between atoms: C_6  and  N_7
REMARK    3  A    between atoms: N_7  and  C_8
REMARK    4  A    between atoms: C_8  and  C_9
REMARK    5  A    between atoms: C_13  and  O_14
REMARK    6  A    between atoms: O_14  and  C_15
REMARK                            x       y       z     vdW  Elec       q    Type
REMARK                         _______ _______ _______ _____ _____    ______ ____
ROOT
ATOM      1  C   UNL     1       8.713  -0.847  -0.618  0.00  0.00    +0.000 C 
ATOM      2  C   UNL     1       8.814  -2.015  -1.586  0.00  0.00    +0.000 C 
ATOM      3  C   UNL     1       9.028  -2.239  -0.128  0.00  0.00    +0.000 C 
ENDROOT
BRANCH   1   4
ATOM      4  C   UNL     1       9.790   0.224  -0.620  0.00  0.00    +0.000 A 
ATOM      5  C   UNL     1      10.138   0.895  -1.807  0.00  0.00    +0.000 A 
ATOM      6  C   UNL     1      10.904   2.058  -1.781  0.00  0.00    +0.000 A 
ATOM      7  C   UNL     1      11.374   2.546  -0.566  0.00  0.00    +0.000 A 
ATOM      8  C   UNL     1      11.137   1.847   0.618  0.00  0.00    +0.000 A 
ATOM      9  C   UNL     1      10.333   0.707   0.588  0.00  0.00    +0.000 A 
BRANCH   8  10
ATOM     10  O   UNL     1      11.671   2.419   1.732  0.00  0.00    +0.000 OA
BRANCH  10  11
ATOM     11  C   UNL     1      12.010   1.591   2.833  0.00  0.00    +0.000 C 
ATOM     12  F   UNL     1      12.111   0.282   2.521  0.00  0.00    +0.000 F 
ATOM     13  F   UNL     1      13.210   1.993   3.312  0.00  0.00    +0.000 F 
ATOM     14  F   UNL     1      11.095   1.739   3.814  0.00  0.00    +0.000 F 
ENDBRANCH  10  11
ENDBRANCH   8  10
ENDBRANCH   1   4
BRANCH   1  15
ATOM     15  N   UNL     1       7.385  -0.263  -0.536  0.00  0.00    +0.000 N 
ATOM     16  H   UNL     1       7.021   0.272  -1.319  0.00  0.00    +0.000 HD
BRANCH  15  20
ATOM     17  C   UNL     1       4.850   0.283   2.623  0.00  0.00    +0.000 A 
ATOM     18  C   UNL     1       4.576   0.738   1.348  0.00  0.00    +0.000 A 
ATOM     19  N   UNL     1       5.443   0.594   0.317  0.00  0.00    +0.000 NA
ATOM     20  C   UNL     1       6.605  -0.040   0.584  0.00  0.00    +0.000 A 
ATOM     21  C   UNL     1       6.885  -0.465   1.881  0.00  0.00    +0.000 A 
ATOM     22  N   UNL     1       6.025  -0.320   2.927  0.00  0.00    +0.000 NA
BRANCH  17  24
ATOM     23  N   UNL     1       3.046   0.527   4.469  0.00  0.00    +0.000 NA
ATOM     24  C   UNL     1       3.882   0.412   3.665  0.00  0.00    +0.000 C 
ENDBRANCH  17  24
ENDBRANCH  15  20
ENDBRANCH   1  15
TORSDOF 6
