REMARK  Name = 
REMARK  9 active torsions:
REMARK  status: ('A' for Active; 'I' for Inactive)
REMARK    1  A    between atoms: N_1  and  C_2
REMARK    2  A    between atoms: C_2  and  N_3
REMARK    3  A    between atoms: C_2  and  C_20
REMARK    4  A    between atoms: N_3  and  C_4
REMARK    5  A    between atoms: C_4  and  C_5
REMARK    6  A    between atoms: C_8  and  C_9
REMARK    7  A    between atoms: C_9  and  N_10
REMARK    8  A    between atoms: N_10  and  C_11
REMARK    9  A    between atoms: C_11  and  C_12
REMARK                            x       y       z     vdW  Elec       q    Type
REMARK                         _______ _______ _______ _____ _____    ______ ____
ROOT
ATOM      1  N   UNL     1       2.479  -1.334  -0.432  0.00  0.00    +0.000 NA
ATOM      2  H   UNL     1       3.468  -1.256  -0.689  0.00  0.00    +0.000 HD
ENDROOT
BRANCH   1   3
ATOM      3  C   UNL     1       2.029   0.017  -0.167  0.00  0.00    +0.000 C 
BRANCH   3   4
ATOM      4  C   UNL     1       2.185   0.863  -1.417  0.00  0.00    +0.000 A 
ATOM      5  C   UNL     1       1.150   1.391  -2.182  0.00  0.00    +0.000 A 
ATOM      6  S   UNL     1       1.672   2.383  -3.469  0.00  0.00    +0.000 S 
ATOM      7  C   UNL     1       3.305   2.161  -3.049  0.00  0.00    +0.000 A 
ATOM      8  N   UNL     1       4.303   2.779  -3.734  0.00  0.00    +0.000 NA
ATOM      9  C   UNL     1       5.486   2.526  -3.285  0.00  0.00    +0.000 A 
ATOM     10  N   UNL     1       5.769   1.692  -2.230  0.00  0.00    +0.000 N 
ATOM     11  C   UNL     1       4.795   1.007  -1.536  0.00  0.00    +0.000 A 
ATOM     12  O   UNL     1       5.066   0.199  -0.652  0.00  0.00    +0.000 OA
ATOM     13  C   UNL     1       3.444   1.307  -1.971  0.00  0.00    +0.000 A 
ATOM     14  H   UNL     1       6.724   1.515  -1.956  0.00  0.00    +0.000 HD
ENDBRANCH   3   4
BRANCH   3  15
ATOM     15  N   UNL     1       0.620  -0.074   0.136  0.00  0.00    +0.000 NA
ATOM     16  H   UNL     1       0.505  -0.452   1.068  0.00  0.00    +0.000 HD
ATOM     17  H   UNL     1       0.265  -0.786  -0.501  0.00  0.00    +0.000 HD
ENDBRANCH   3  15
ENDBRANCH   1   3
BRANCH   1  18
ATOM     18  C   UNL     1       2.433  -2.201   0.750  0.00  0.00    +0.000 C 
BRANCH  18  19
ATOM     19  C   UNL     1       2.944  -3.597   0.472  0.00  0.00    +0.000 A 
ATOM     20  C   UNL     1       4.288  -3.826   0.151  0.00  0.00    +0.000 A 
ATOM     21  C   UNL     1       4.754  -5.127  -0.059  0.00  0.00    +0.000 A 
ATOM     22  C   UNL     1       3.893  -6.228   0.061  0.00  0.00    +0.000 A 
ATOM     23  C   UNL     1       2.549  -6.000   0.380  0.00  0.00    +0.000 A 
ATOM     24  C   UNL     1       2.082  -4.698   0.579  0.00  0.00    +0.000 A 
BRANCH  22  25
ATOM     25  C   UNL     1       4.401  -7.632  -0.168  0.00  0.00    +0.000 C 
BRANCH  25  26
ATOM     26  N   UNL     1       5.479  -7.960   0.763  0.00  0.00    +0.000 NA
ATOM     27  H   UNL     1       5.131  -7.862   1.717  0.00  0.00    +0.000 HD
BRANCH  26  28
ATOM     28  C   UNL     1       5.956  -9.325   0.562  0.00  0.00    +0.000 C 
BRANCH  28  29
ATOM     29  C   UNL     1       7.050  -9.662   1.545  0.00  0.00    +0.000 A 
ATOM     30  C   UNL     1       6.901 -10.709   2.458  0.00  0.00    +0.000 A 
ATOM     31  C   UNL     1       7.937 -10.975   3.340  0.00  0.00    +0.000 A 
ATOM     32  N   UNL     1       9.095 -10.282   3.375  0.00  0.00    +0.000 NA
ATOM     33  C   UNL     1       9.218  -9.274   2.483  0.00  0.00    +0.000 A 
ATOM     34  C   UNL     1       8.244  -8.933   1.563  0.00  0.00    +0.000 A 
ENDBRANCH  28  29
ENDBRANCH  26  28
ENDBRANCH  25  26
ENDBRANCH  22  25
ENDBRANCH  18  19
ENDBRANCH   1  18
TORSDOF 9
