REMARK  Name = 
REMARK  6 active torsions:
REMARK  status: ('A' for Active; 'I' for Inactive)
REMARK    1  A    between atoms: C_2  and  C_4
REMARK    2  A    between atoms: N_8  and  C_9
REMARK    3  A    between atoms: C_9  and  C_10
REMARK    4  A    between atoms: C_10  and  C_13
REMARK    5  A    between atoms: C_17  and  N_18
REMARK    6  A    between atoms: N_18  and  C_19
REMARK                            x       y       z     vdW  Elec       q    Type
REMARK                         _______ _______ _______ _____ _____    ______ ____
ROOT
ATOM      1  C   UNL     1       6.105  -6.459  -2.856  0.00  0.00    +0.000 C 
ATOM      2  F   UNL     1       7.392  -5.989  -2.789  0.00  0.00    +0.000 F 
ATOM      3  F   UNL     1       6.005  -7.310  -1.786  0.00  0.00    +0.000 F 
ENDROOT
BRANCH   1   4
ATOM      4  C   UNL     1       5.836  -7.184  -4.151  0.00  0.00    +0.000 A 
ATOM      5  C   UNL     1       6.817  -7.273  -5.146  0.00  0.00    +0.000 A 
ATOM      6  C   UNL     1       6.541  -7.920  -6.351  0.00  0.00    +0.000 A 
ATOM      7  C   UNL     1       5.279  -8.475  -6.579  0.00  0.00    +0.000 A 
ATOM      8  C   UNL     1       4.296  -8.446  -5.587  0.00  0.00    +0.000 A 
ATOM      9  C   UNL     1       4.600  -7.798  -4.377  0.00  0.00    +0.000 A 
ATOM     10  F   UNL     1       3.657  -7.742  -3.422  0.00  0.00    +0.000 F 
BRANCH   8  11
ATOM     11  N   UNL     1       2.989  -8.915  -5.818  0.00  0.00    +0.000 N 
ATOM     12  H   UNL     1       2.506  -9.241  -4.984  0.00  0.00    +0.000 HD
BRANCH  11  13
ATOM     13  C   UNL     1       2.356  -9.151  -7.078  0.00  0.00    +0.000 C 
ATOM     14  C   UNL     1       0.814  -9.170  -6.997  0.00  0.00    +0.000 C 
ATOM     15  N   UNL     1       0.816 -10.337  -7.917  0.00  0.00    +0.000 NA
ATOM     16  C   UNL     1       2.204 -10.633  -7.470  0.00  0.00    +0.000 C 
ATOM     17  H   UNL     1       0.762 -10.065  -8.900  0.00  0.00    +0.000 HD
ENDBRANCH  11  13
ENDBRANCH   8  11
ENDBRANCH   1   4
BRANCH   1  18
ATOM     18  C   UNL     1       5.154  -5.262  -2.582  0.00  0.00    +0.000 C 
BRANCH  18  23
ATOM     19  C   UNL     1       3.035  -0.667  -3.256  0.00  0.00    +0.000 A 
ATOM     20  C   UNL     1       3.307  -1.361  -2.084  0.00  0.00    +0.000 A 
ATOM     21  C   UNL     1       4.038  -2.547  -2.150  0.00  0.00    +0.000 A 
ATOM     22  C   UNL     1       4.466  -3.031  -3.385  0.00  0.00    +0.000 A 
ATOM     23  N   UNL     1       5.275  -4.144  -3.528  0.00  0.00    +0.000 N 
ATOM     24  N   UNL     1       4.167  -2.389  -4.529  0.00  0.00    +0.000 NA
ATOM     25  C   UNL     1       3.459  -1.229  -4.449  0.00  0.00    +0.000 A 
ATOM     26  H   UNL     1       5.312  -4.380  -4.520  0.00  0.00    +0.000 HD
BRANCH  19  28
ATOM     27  N   UNL     1       2.439   1.410  -2.154  0.00  0.00    +0.000 N 
ATOM     28  C   UNL     1       2.331   0.632  -3.274  0.00  0.00    +0.000 C 
ATOM     29  O   UNL     1       1.715   1.016  -4.259  0.00  0.00    +0.000 OA
ATOM     30  H   UNL     1       2.062   2.348  -2.222  0.00  0.00    +0.000 HD
ATOM     31  H   UNL     1       3.142   1.247  -1.447  0.00  0.00    +0.000 HD
ENDBRANCH  19  28
ENDBRANCH  18  23
ENDBRANCH   1  18
TORSDOF 6
