REMARK  Name = 
REMARK  4 active torsions:
REMARK  status: ('A' for Active; 'I' for Inactive)
REMARK    1  A    between atoms: C_5  and  N_6
REMARK    2  A    between atoms: N_6  and  C_7
REMARK    3  A    between atoms: C_7  and  C_8
REMARK    4  A    between atoms: C_12  and  C_13
REMARK                            x       y       z     vdW  Elec       q    Type
REMARK                         _______ _______ _______ _____ _____    ______ ____
ROOT
ATOM      1  C   UNL     1       3.509  -3.853  -0.080  0.00  0.00    +0.000 A 
ATOM      2  C   UNL     1       4.886  -4.051  -0.159  0.00  0.00    +0.000 A 
ATOM      3  C   UNL     1       5.375  -5.348  -0.160  0.00  0.00    +0.000 A 
ATOM      4  C   UNL     1       4.483  -6.413  -0.088  0.00  0.00    +0.000 A 
ATOM      5  C   UNL     1       3.113  -6.158  -0.019  0.00  0.00    +0.000 A 
ATOM      6  N   UNL     1       2.625  -4.890  -0.033  0.00  0.00    +0.000 NA
ENDROOT
BRANCH   5   7
ATOM      7  C   UNL     1       2.123  -7.234   0.074  0.00  0.00    +0.000 A 
ATOM      8  C   UNL     1       2.367  -8.455   0.687  0.00  0.00    +0.000 A 
ATOM      9  N   UNL     1       1.492  -9.483   0.752  0.00  0.00    +0.000 NA
ATOM     10  C   UNL     1       0.302  -9.263   0.180  0.00  0.00    +0.000 A 
ATOM     11  N   UNL     1      -0.079  -8.130  -0.426  0.00  0.00    +0.000 NA
ATOM     12  C   UNL     1       0.845  -7.140  -0.456  0.00  0.00    +0.000 A 
ENDBRANCH   5   7
BRANCH   1  13
ATOM     13  C   UNL     1       2.955  -2.439  -0.051  0.00  0.00    +0.000 C 
BRANCH  13  14
ATOM     14  N   UNL     1       2.792  -1.915  -1.405  0.00  0.00    +0.000 N 
ATOM     15  H   UNL     1       2.408  -2.603  -2.050  0.00  0.00    +0.000 HD
BRANCH  14  20
ATOM     16  C   UNL     1       1.749   1.633  -0.902  0.00  0.00    +0.000 A 
ATOM     17  C   UNL     1       1.533   1.968  -2.226  0.00  0.00    +0.000 A 
ATOM     18  N   UNL     1       1.665   1.094  -3.242  0.00  0.00    +0.000 NA
ATOM     19  C   UNL     1       2.044  -0.166  -2.908  0.00  0.00    +0.000 A 
ATOM     20  C   UNL     1       2.285  -0.629  -1.609  0.00  0.00    +0.000 A 
ATOM     21  C   UNL     1       2.136   0.325  -0.600  0.00  0.00    +0.000 A 
ENDBRANCH  14  20
ENDBRANCH  13  14
ENDBRANCH   1  13
TORSDOF 4
