REMARK  Name = 
REMARK  8 active torsions:
REMARK  status: ('A' for Active; 'I' for Inactive)
REMARK    1  A    between atoms: C_1  and  C_2
REMARK    2  A    between atoms: C_4  and  C_5
REMARK    3  A    between atoms: C_10  and  N_11
REMARK    4  A    between atoms: N_11  and  C_12
REMARK    5  A    between atoms: C_12  and  C_13
REMARK    6  A    between atoms: C_17  and  C_18
REMARK    7  A    between atoms: C_21  and  O_22
REMARK    8  A    between atoms: O_22  and  C_23
REMARK                            x       y       z     vdW  Elec       q    Type
REMARK                         _______ _______ _______ _____ _____    ______ ____
ROOT
ATOM      1  C   UNL     1       2.373  -2.564   0.009  0.00  0.00    +0.000 C 
ATOM      2  C   UNL     1       3.331  -2.368   1.200  0.00  0.00    +0.000 C 
ATOM      3  C   UNL     1       3.731  -1.882  -0.137  0.00  0.00    +0.000 C 
ENDROOT
BRANCH   1   4
ATOM      4  C   UNL     1       2.325  -3.974  -0.585  0.00  0.00    +0.000 A 
ATOM      5  C   UNL     1       2.312  -4.176  -1.971  0.00  0.00    +0.000 A 
ATOM      6  C   UNL     1       2.395  -5.457  -2.508  0.00  0.00    +0.000 A 
ATOM      7  C   UNL     1       2.518  -6.558  -1.662  0.00  0.00    +0.000 A 
ATOM      8  C   UNL     1       2.570  -6.405  -0.264  0.00  0.00    +0.000 A 
ATOM      9  C   UNL     1       2.413  -5.110   0.244  0.00  0.00    +0.000 A 
BRANCH   8  10
ATOM     10  C   UNL     1       2.911  -7.536   0.624  0.00  0.00    +0.000 A 
ATOM     11  C   UNL     1       3.813  -8.524   0.188  0.00  0.00    +0.000 A 
ATOM     12  C   UNL     1       4.222  -9.568   1.019  0.00  0.00    +0.000 A 
ATOM     13  C   UNL     1       3.763  -9.630   2.330  0.00  0.00    +0.000 A 
ATOM     14  C   UNL     1       2.853  -8.676   2.782  0.00  0.00    +0.000 A 
ATOM     15  C   UNL     1       2.433  -7.639   1.941  0.00  0.00    +0.000 A 
BRANCH  13  16
ATOM     16  O   UNL     1       4.123 -10.577   3.244  0.00  0.00    +0.000 OA
BRANCH  16  17
ATOM     17  C   UNL     1       5.402 -11.153   3.039  0.00  0.00    +0.000 C 
ATOM     18  F   UNL     1       5.849 -11.582   4.246  0.00  0.00    +0.000 F 
ATOM     19  F   UNL     1       5.263 -12.252   2.258  0.00  0.00    +0.000 F 
ENDBRANCH  16  17
ENDBRANCH  13  16
ENDBRANCH   8  10
ENDBRANCH   1   4
BRANCH   1  20
ATOM     20  N   UNL     1       1.029  -2.014   0.256  0.00  0.00    +0.000 N 
ATOM     21  H   UNL     1       0.382  -2.632   0.741  0.00  0.00    +0.000 HD
BRANCH  20  28
ATOM     22  C   UNL     1       1.987   0.082  -1.825  0.00  0.00    +0.000 C 
ATOM     23  C   UNL     1       0.658   0.012  -1.163  0.00  0.00    +0.000 A 
ATOM     24  C   UNL     1      -0.233   1.056  -1.466  0.00  0.00    +0.000 A 
ATOM     25  C   UNL     1      -1.524   1.088  -0.963  0.00  0.00    +0.000 A 
ATOM     26  C   UNL     1      -1.876   0.032  -0.150  0.00  0.00    +0.000 A 
ATOM     27  N   UNL     1      -1.023  -0.981   0.196  0.00  0.00    +0.000 NA
ATOM     28  C   UNL     1       0.254  -0.989  -0.284  0.00  0.00    +0.000 A 
BRANCH  25  29
ATOM     29  C   UNL     1      -2.385   2.237  -1.351  0.00  0.00    +0.000 C 
ATOM     30  N   UNL     1      -3.664   2.318  -0.889  0.00  0.00    +0.000 N 
ATOM     31  O   UNL     1      -1.963   3.120  -2.083  0.00  0.00    +0.000 OA
ATOM     32  H   UNL     1      -4.118   1.664  -0.268  0.00  0.00    +0.000 HD
ATOM     33  H   UNL     1      -4.191   3.129  -1.185  0.00  0.00    +0.000 HD
ENDBRANCH  25  29
ENDBRANCH  20  28
ENDBRANCH   1  20
TORSDOF 7
