REMARK  Name = 
REMARK  6 active torsions:
REMARK  status: ('A' for Active; 'I' for Inactive)
REMARK    1  A    between atoms: C_2  and  C_25
REMARK    2  A    between atoms: N_3  and  C_4
REMARK    3  A    between atoms: C_4  and  C_5
REMARK    4  A    between atoms: C_8  and  C_9
REMARK    5  A    between atoms: C_9  and  N_10
REMARK    6  A    between atoms: C_11  and  C_13
REMARK                            x       y       z     vdW  Elec       q    Type
REMARK                         _______ _______ _______ _____ _____    ______ ____
ROOT
ATOM      1  C   UNL     1       3.103   2.606   2.511  0.00  0.00    +0.000 A 
ATOM      2  C   UNL     1       2.982   3.999   2.421  0.00  0.00    +0.000 A 
ATOM      3  C   UNL     1       3.778   4.838   3.210  0.00  0.00    +0.000 A 
ATOM      4  C   UNL     1       4.726   4.301   4.091  0.00  0.00    +0.000 A 
ATOM      5  C   UNL     1       4.853   2.908   4.174  0.00  0.00    +0.000 A 
ATOM      6  C   UNL     1       4.059   2.070   3.384  0.00  0.00    +0.000 A 
ENDROOT
BRANCH   1   7
ATOM      7  C   UNL     1       2.195   1.704   1.717  0.00  0.00    +0.000 C 
BRANCH   7  10
ATOM      8  O   UNL     1       0.947   0.029  -0.060  0.00  0.00    +0.000 OA
ATOM      9  C   UNL     1       1.983   0.574  -0.431  0.00  0.00    +0.000 C 
ATOM     10  N   UNL     1       2.698   1.419   0.394  0.00  0.00    +0.000 N 
ATOM     11  H   UNL     1       3.455   1.977   0.031  0.00  0.00    +0.000 HD
BRANCH   9  12
ATOM     12  C   UNL     1       2.509   0.362  -1.784  0.00  0.00    +0.000 A 
ATOM     13  C   UNL     1       1.803  -0.373  -2.804  0.00  0.00    +0.000 A 
ATOM     14  C   UNL     1       2.493  -0.456  -3.995  0.00  0.00    +0.000 A 
ATOM     15  S   UNL     1       3.998   0.342  -3.907  0.00  0.00    +0.000 S 
ATOM     16  C   UNL     1       3.727   0.796  -2.276  0.00  0.00    +0.000 A 
ENDBRANCH   9  12
ENDBRANCH   7  10
ENDBRANCH   1   7
BRANCH   4  17
ATOM     17  C   UNL     1       5.566   5.197   4.964  0.00  0.00    +0.000 C 
BRANCH  17  18
ATOM     18  N   UNL     1       4.926   5.461   6.230  0.00  0.00    +0.000 N 
ATOM     19  C   UNL     1       5.488   6.325   7.136  0.00  0.00    +0.000 C 
ATOM     20  O   UNL     1       6.528   6.933   6.892  0.00  0.00    +0.000 OA
ATOM     21  H   UNL     1       4.207   4.812   6.534  0.00  0.00    +0.000 HD
BRANCH  19  22
ATOM     22  C   UNL     1       4.758   6.538   8.393  0.00  0.00    +0.000 A 
ATOM     23  C   UNL     1       4.979   7.696   9.125  0.00  0.00    +0.000 A 
ATOM     24  S   UNL     1       4.017   7.816  10.529  0.00  0.00    +0.000 S 
ATOM     25  C   UNL     1       3.310   6.296  10.239  0.00  0.00    +0.000 A 
ATOM     26  N   UNL     1       2.395   5.775  11.100  0.00  0.00    +0.000 NA
ATOM     27  C   UNL     1       1.969   4.600  10.778  0.00  0.00    +0.000 A 
ATOM     28  N   UNL     1       2.369   3.901   9.668  0.00  0.00    +0.000 N 
ATOM     29  C   UNL     1       3.265   4.401   8.752  0.00  0.00    +0.000 A 
ATOM     30  O   UNL     1       3.570   3.769   7.746  0.00  0.00    +0.000 OA
ATOM     31  C   UNL     1       3.787   5.715   9.076  0.00  0.00    +0.000 A 
ATOM     32  H   UNL     1       1.993   2.986   9.470  0.00  0.00    +0.000 HD
ENDBRANCH  19  22
ENDBRANCH  17  18
ENDBRANCH   4  17
TORSDOF 6
