REMARK  Name = 
REMARK  6 active torsions:
REMARK  status: ('A' for Active; 'I' for Inactive)
REMARK    1  A    between atoms: C_2  and  C_19
REMARK    2  A    between atoms: N_3  and  C_4
REMARK    3  A    between atoms: C_4  and  C_5
REMARK    4  A    between atoms: N_8  and  C_9
REMARK    5  A    between atoms: C_9  and  C_10
REMARK    6  A    between atoms: C_13  and  O_14
REMARK                            x       y       z     vdW  Elec       q    Type
REMARK                         _______ _______ _______ _____ _____    ______ ____
ROOT
ATOM      1  C   UNL     1       2.229  -0.181   2.530  0.00  0.00    +0.000 C 
ENDROOT
BRANCH   1   2
ATOM      2  C   UNL     1       3.209  -0.035   3.666  0.00  0.00    +0.000 C 
ATOM      3  C   UNL     1       3.451   1.186   4.184  0.00  0.00    +0.000 C 
ATOM      4  C   UNL     1       4.326   1.316   5.312  0.00  0.00    +0.000 C 
ATOM      5  N   UNL     1       4.904   0.168   5.808  0.00  0.00    +0.000 N 
ATOM      6  C   UNL     1       4.570  -1.027   5.186  0.00  0.00    +0.000 C 
ATOM      7  N   UNL     1       3.778  -1.200   4.166  0.00  0.00    +0.000 NA
BRANCH   5   8
ATOM      8  C   UNL     1       5.806   0.189   6.957  0.00  0.00    +0.000 C 
BRANCH   8   9
ATOM      9  C   UNL     1       5.046   0.010   8.253  0.00  0.00    +0.000 A 
ATOM     10  C   UNL     1       4.808  -1.275   8.767  0.00  0.00    +0.000 A 
ATOM     11  C   UNL     1       4.010  -1.451   9.899  0.00  0.00    +0.000 A 
ATOM     12  C   UNL     1       3.460  -0.340  10.529  0.00  0.00    +0.000 A 
ATOM     13  C   UNL     1       3.721   0.942  10.065  0.00  0.00    +0.000 A 
ATOM     14  C   UNL     1       4.510   1.119   8.927  0.00  0.00    +0.000 A 
BRANCH  12  15
ATOM     15  O   UNL     1       2.641  -0.471  11.611  0.00  0.00    +0.000 OA
ATOM     16  H   UNL     1       2.474  -1.416  11.759  0.00  0.00    +0.000 HD
ENDBRANCH  12  15
ENDBRANCH   8   9
ENDBRANCH   5   8
ENDBRANCH   1   2
BRANCH   1  19
ATOM     17  O   UNL     1       2.630   2.230   1.100  0.00  0.00    +0.000 OA
ATOM     18  C   UNL     1       3.031   1.169   0.627  0.00  0.00    +0.000 C 
ATOM     19  N   UNL     1       2.933  -0.029   1.281  0.00  0.00    +0.000 N 
ATOM     20  H   UNL     1       3.274  -0.880   0.858  0.00  0.00    +0.000 HD
BRANCH  18  21
ATOM     21  C   UNL     1       3.698   1.114  -0.673  0.00  0.00    +0.000 A 
ATOM     22  C   UNL     1       4.412   2.202  -1.151  0.00  0.00    +0.000 A 
ATOM     23  S   UNL     1       5.150   1.906  -2.663  0.00  0.00    +0.000 S 
ATOM     24  C   UNL     1       4.502   0.332  -2.737  0.00  0.00    +0.000 A 
ATOM     25  N   UNL     1       4.759  -0.489  -3.790  0.00  0.00    +0.000 NA
ATOM     26  C   UNL     1       4.191  -1.645  -3.714  0.00  0.00    +0.000 A 
ATOM     27  N   UNL     1       3.376  -2.053  -2.688  0.00  0.00    +0.000 N 
ATOM     28  C   UNL     1       3.077  -1.251  -1.610  0.00  0.00    +0.000 A 
ATOM     29  O   UNL     1       2.332  -1.657  -0.722  0.00  0.00    +0.000 OA
ATOM     30  C   UNL     1       3.723   0.041  -1.632  0.00  0.00    +0.000 A 
ATOM     31  H   UNL     1       2.954  -2.969  -2.694  0.00  0.00    +0.000 HD
ENDBRANCH  18  21
ENDBRANCH   1  19
TORSDOF 6
