REMARK  Name = 
REMARK  10 active torsions:
REMARK  status: ('A' for Active; 'I' for Inactive)
REMARK    1  A    between atoms: C_1  and  C_2
REMARK    2  A    between atoms: C_7  and  C_8
REMARK    3  A    between atoms: N_10  and  C_11
REMARK    4  A    between atoms: C_11  and  C_12
REMARK    5  A    between atoms: C_15  and  C_16
REMARK    6  A    between atoms: C_16  and  N_17
REMARK    7  A    between atoms: N_17  and  CA_18
REMARK    8  A    between atoms: CA_18  and  C_19
REMARK    9  A    between atoms: CA_18  and  C_21
REMARK   10  A    between atoms: C_19  and  O_20
REMARK                            x       y       z     vdW  Elec       q    Type
REMARK                         _______ _______ _______ _____ _____    ______ ____
ROOT
ATOM      1  C   UNL     1       3.167  12.894   5.153  0.00  0.00    +0.000 A 
ATOM      2  C   UNL     1       3.404  11.583   4.713  0.00  0.00    +0.000 A 
ATOM      3  C   UNL     1       4.175  11.334   3.567  0.00  0.00    +0.000 A 
ATOM      4  C   UNL     1       4.720  12.395   2.838  0.00  0.00    +0.000 A 
ATOM      5  C   UNL     1       4.504  13.705   3.304  0.00  0.00    +0.000 A 
ATOM      6  C   UNL     1       3.740  13.953   4.444  0.00  0.00    +0.000 A 
ENDROOT
BRANCH   1   7
ATOM      7  C   UNL     1       2.343  13.171   6.383  0.00  0.00    +0.000 C 
BRANCH   7  10
ATOM      8  C   UNL     1       2.592  13.439   8.805  0.00  0.00    +0.000 C 
ATOM      9  O   UNL     1       1.384  13.634   8.925  0.00  0.00    +0.000 OA
ATOM     10  N   UNL     1       3.152  13.205   7.576  0.00  0.00    +0.000 N 
ATOM     11  H   UNL     1       4.154  13.070   7.472  0.00  0.00    +0.000 HD
BRANCH   8  18
ATOM     12  C   UNL     1       8.945  12.720  11.292  0.00  0.00    +0.000 C 
ATOM     13  C   UNL     1       7.496  12.919  10.956  0.00  0.00    +0.000 A 
ATOM     14  N   UNL     1       6.618  13.153  11.873  0.00  0.00    +0.000 NA
ATOM     15  C   UNL     1       5.345  13.308  11.419  0.00  0.00    +0.000 A 
ATOM     16  S   UNL     1       4.074  13.619  12.504  0.00  0.00    +0.000 S 
ATOM     17  C   UNL     1       2.936  13.663  11.238  0.00  0.00    +0.000 A 
ATOM     18  C   UNL     1       3.482  13.442   9.978  0.00  0.00    +0.000 A 
ATOM     19  C   UNL     1       4.910  13.244  10.106  0.00  0.00    +0.000 A 
ATOM     20  C   UNL     1       5.932  12.992   9.109  0.00  0.00    +0.000 A 
ATOM     21  O   UNL     1       5.722  12.928   7.902  0.00  0.00    +0.000 OA
ATOM     22  N   UNL     1       7.201  12.829   9.613  0.00  0.00    +0.000 N 
ATOM     23  H   UNL     1       7.924  12.654   8.931  0.00  0.00    +0.000 HD
ENDBRANCH   8  18
ENDBRANCH   7  10
ENDBRANCH   1   7
BRANCH   4  24
ATOM     24  C   UNL     1       5.612  12.219   1.630  0.00  0.00    +0.000 C 
BRANCH  24  25
ATOM     25  N   UNL     1       5.310  11.078   0.763  0.00  0.00    +0.000 NA
ATOM     26  H   UNL     1       4.322  11.056   0.523  0.00  0.00    +0.000 HD
BRANCH  25  27
ATOM     27  CA  UNL     1       6.144  11.065  -0.472  0.00  0.00    +0.000 C 
BRANCH  27  28
ATOM     28  C   UNL     1       5.822   9.822  -1.314  0.00  0.00    +0.000 A 
ATOM     29  C   UNL     1       5.466   9.889  -2.674  0.00  0.00    +0.000 A 
ATOM     30  C   UNL     1       5.146   8.741  -3.403  0.00  0.00    +0.000 A 
ATOM     31  C   UNL     1       5.181   7.495  -2.789  0.00  0.00    +0.000 A 
ATOM     32  C   UNL     1       5.569   7.395  -1.456  0.00  0.00    +0.000 A 
ATOM     33  C   UNL     1       5.897   8.545  -0.729  0.00  0.00    +0.000 A 
ENDBRANCH  27  28
BRANCH  27  34
ATOM     34  C   UNL     1       6.066  12.399  -1.284  0.00  0.00    +0.000 C 
BRANCH  34  35
ATOM     35  O   UNL     1       4.731  12.747  -1.657  0.00  0.00    +0.000 OA
ATOM     36  H   UNL     1       4.138  12.438  -0.951  0.00  0.00    +0.000 HD
ENDBRANCH  34  35
ENDBRANCH  27  34
ENDBRANCH  25  27
ENDBRANCH  24  25
ENDBRANCH   4  24
TORSDOF 9
