REMARK  Name = 
REMARK  11 active torsions:
REMARK  status: ('A' for Active; 'I' for Inactive)
REMARK    1  A    between atoms: C_1  and  C_2
REMARK    2  A    between atoms: C_2  and  N_3
REMARK    3  A    between atoms: N_3  and  C_4
REMARK    4  A    between atoms: C_5  and  C_7
REMARK    5  A    between atoms: C_10  and  N_11
REMARK    6  A    between atoms: N_11  and  C_12
REMARK    7  A    between atoms: C_12  and  C_13
REMARK    8  A    between atoms: C_13  and  C_14
REMARK    9  A    between atoms: C_13  and  C_15
REMARK   10  A    between atoms: C_13  and  C_16
REMARK   11  A    between atoms: C_20  and  C_21
REMARK                            x       y       z     vdW  Elec       q    Type
REMARK                         _______ _______ _______ _____ _____    ______ ____
ROOT
ATOM      1  C   UNL     1       5.425   7.790  -2.154  0.00  0.00    +0.000 C 
ENDROOT
BRANCH   1   2
ATOM      2  C   UNL     1       5.942   9.084  -2.839  0.00  0.00    +0.000 C 
ATOM      3  C   UNL     1       7.399   9.330  -2.376  0.00  0.00    +0.000 C 
ATOM      4  C   UNL     1       5.897   8.897  -4.370  0.00  0.00    +0.000 C 
BRANCH   2   5
ATOM      5  C   UNL     1       5.093  10.322  -2.448  0.00  0.00    +0.000 A 
ATOM      6  C   UNL     1       3.962  10.257  -1.612  0.00  0.00    +0.000 A 
ATOM      7  C   UNL     1       3.283  11.412  -1.210  0.00  0.00    +0.000 A 
ATOM      8  C   UNL     1       3.728  12.665  -1.623  0.00  0.00    +0.000 A 
ATOM      9  C   UNL     1       4.843  12.761  -2.456  0.00  0.00    +0.000 A 
ATOM     10  C   UNL     1       5.489  11.598  -2.895  0.00  0.00    +0.000 A 
BRANCH   9  11
ATOM     11  C   UNL     1       5.342  14.109  -2.828  0.00  0.00    +0.000 C 
ATOM     12  N   UNL     1       6.672  14.217  -3.134  0.00  0.00    +0.000 N 
ATOM     13  O   UNL     1       4.617  15.095  -2.810  0.00  0.00    +0.000 OA
ATOM     14  H   UNL     1       7.338  13.492  -2.913  0.00  0.00    +0.000 HD
ATOM     15  H   UNL     1       7.029  15.158  -3.244  0.00  0.00    +0.000 HD
ENDBRANCH   9  11
ENDBRANCH   2   5
ENDBRANCH   1   2
BRANCH   1  16
ATOM     16  N   UNL     1       6.269   6.608  -2.360  0.00  0.00    +0.000 N 
ATOM     17  H   UNL     1       6.592   6.461  -3.313  0.00  0.00    +0.000 HD
BRANCH  16  21
ATOM     18  C   UNL     1       5.142   2.962  -0.531  0.00  0.00    +0.000 A 
ATOM     19  C   UNL     1       4.489   4.147  -0.201  0.00  0.00    +0.000 A 
ATOM     20  C   UNL     1       4.823   5.339  -0.835  0.00  0.00    +0.000 A 
ATOM     21  C   UNL     1       5.867   5.408  -1.761  0.00  0.00    +0.000 A 
ATOM     22  C   UNL     1       6.619   4.245  -1.977  0.00  0.00    +0.000 A 
ATOM     23  C   UNL     1       6.254   3.028  -1.381  0.00  0.00    +0.000 A 
BRANCH  18  26
ATOM     24  N   UNL     1       3.371   1.383   0.285  0.00  0.00    +0.000 N 
ATOM     25  C   UNL     1       2.246   2.175  -0.206  0.00  0.00    +0.000 C 
ATOM     26  C   UNL     1       4.729   1.656   0.055  0.00  0.00    +0.000 C 
ATOM     27  O   UNL     1       5.615   0.846   0.312  0.00  0.00    +0.000 OA
BRANCH  24  29
ATOM     28  C   UNL     1       2.872  -1.009  -0.077  0.00  0.00    +0.000 C 
ATOM     29  C   UNL     1       3.028   0.115   0.933  0.00  0.00    +0.000 C 
ENDBRANCH  24  29
ENDBRANCH  18  26
ENDBRANCH  16  21
ENDBRANCH   1  16
TORSDOF 7
