REMARK  Name = 
REMARK  5 active torsions:
REMARK  status: ('A' for Active; 'I' for Inactive)
REMARK    1  A    between atoms: N_1  and  C_2
REMARK    2  A    between atoms: C_2  and  C_3
REMARK    3  A    between atoms: C_6  and  O_7
REMARK    4  A    between atoms: O_7  and  C_8
REMARK    5  A    between atoms: C_8  and  C_9
REMARK                            x       y       z     vdW  Elec       q    Type
REMARK                         _______ _______ _______ _____ _____    ______ ____
ROOT
ATOM      1  C   UNL     1       2.744  -1.163   0.762  0.00  0.00    +0.000 A 
ATOM      2  C   UNL     1       3.235  -1.025   2.069  0.00  0.00    +0.000 A 
ATOM      3  C   UNL     1       3.526  -2.150   2.851  0.00  0.00    +0.000 A 
ATOM      4  C   UNL     1       3.324  -3.429   2.335  0.00  0.00    +0.000 A 
ATOM      5  C   UNL     1       2.871  -3.574   1.023  0.00  0.00    +0.000 A 
ATOM      6  C   UNL     1       2.575  -2.453   0.244  0.00  0.00    +0.000 A 
ENDROOT
BRANCH   1   7
ATOM      7  C   UNL     1       2.374   0.048  -0.056  0.00  0.00    +0.000 C 
BRANCH   7   8
ATOM      8  N   UNL     1       3.501   0.956  -0.233  0.00  0.00    +0.000 NA
ATOM      9  H   UNL     1       3.243   1.676  -0.905  0.00  0.00    +0.000 HD
ATOM     10  H   UNL     1       4.274   0.438  -0.650  0.00  0.00    +0.000 HD
ENDBRANCH   7   8
ENDBRANCH   1   7
BRANCH   4  11
ATOM     11  O   UNL     1       3.583  -4.600   2.994  0.00  0.00    +0.000 OA
BRANCH  11  12
ATOM     12  C   UNL     1       3.369  -4.573   4.410  0.00  0.00    +0.000 C 
BRANCH  12  13
ATOM     13  C   UNL     1       3.617  -5.951   4.992  0.00  0.00    +0.000 A 
ATOM     14  N   UNL     1       4.875  -6.242   5.390  0.00  0.00    +0.000 NA
ATOM     15  C   UNL     1       5.074  -7.468   5.908  0.00  0.00    +0.000 A 
ATOM     16  C   UNL     1       4.081  -8.405   6.048  0.00  0.00    +0.000 A 
ATOM     17  C   UNL     1       2.834  -8.015   5.619  0.00  0.00    +0.000 A 
ATOM     18  N   UNL     1       2.573  -6.802   5.094  0.00  0.00    +0.000 NA
ENDBRANCH  12  13
ENDBRANCH  11  12
ENDBRANCH   4  11
TORSDOF 5
