REMARK  Name = 
REMARK  9 active torsions:
REMARK  status: ('A' for Active; 'I' for Inactive)
REMARK    1  A    between atoms: C_1  and  C_2
REMARK    2  A    between atoms: C_2  and  O_3
REMARK    3  A    between atoms: O_3  and  C_4
REMARK    4  A    between atoms: C_6  and  C_7
REMARK    5  A    between atoms: C_7  and  N_8
REMARK    6  A    between atoms: C_9  and  C_11
REMARK    7  A    between atoms: C_18  and  C_19
REMARK    8  A    between atoms: C_19  and  N_20
REMARK    9  A    between atoms: C_21  and  C_23
REMARK                            x       y       z     vdW  Elec       q    Type
REMARK                         _______ _______ _______ _____ _____    ______ ____
ROOT
ATOM      1  C   UNL     1       4.148  -0.660   1.423  0.00  0.00    +0.000 A 
ATOM      2  C   UNL     1       4.991   0.444   1.232  0.00  0.00    +0.000 A 
ATOM      3  C   UNL     1       6.356   0.389   1.539  0.00  0.00    +0.000 A 
ATOM      4  C   UNL     1       6.873  -0.781   2.100  0.00  0.00    +0.000 A 
ATOM      5  C   UNL     1       6.046  -1.892   2.288  0.00  0.00    +0.000 A 
ATOM      6  C   UNL     1       4.688  -1.859   1.920  0.00  0.00    +0.000 A 
ENDROOT
BRANCH   1   7
ATOM      7  O   UNL     1       2.805  -0.643   1.129  0.00  0.00    +0.000 OA
BRANCH   7   9
ATOM      8  C   UNL     1       0.768   0.513   0.572  0.00  0.00    +0.000 C 
ATOM      9  C   UNL     1       2.269   0.626   0.740  0.00  0.00    +0.000 C 
ENDBRANCH   7   9
ENDBRANCH   1   7
BRANCH   3  10
ATOM     10  C   UNL     1       7.216   1.596   1.272  0.00  0.00    +0.000 C 
BRANCH  10  11
ATOM     11  N   UNL     1       7.256   2.480   2.405  0.00  0.00    +0.000 N 
ATOM     12  C   UNL     1       6.445   3.585   2.554  0.00  0.00    +0.000 C 
ATOM     13  O   UNL     1       5.606   3.896   1.724  0.00  0.00    +0.000 OA
ATOM     14  H   UNL     1       7.854   2.229   3.182  0.00  0.00    +0.000 HD
BRANCH  12  15
ATOM     15  C   UNL     1       6.688   4.354   3.777  0.00  0.00    +0.000 A 
ATOM     16  C   UNL     1       6.002   5.472   4.217  0.00  0.00    +0.000 A 
ATOM     17  C   UNL     1       6.520   5.990   5.441  0.00  0.00    +0.000 A 
ATOM     18  C   UNL     1       7.586   5.251   5.902  0.00  0.00    +0.000 A 
ATOM     19  S   UNL     1       7.947   3.940   4.872  0.00  0.00    +0.000 S 
ENDBRANCH  12  15
ENDBRANCH  10  11
ENDBRANCH   3  10
BRANCH   6  20
ATOM     20  C   UNL     1       3.868  -3.121   2.057  0.00  0.00    +0.000 C 
BRANCH  20  21
ATOM     21  N   UNL     1       3.202  -3.217   3.333  0.00  0.00    +0.000 N 
ATOM     22  C   UNL     1       3.693  -3.942   4.387  0.00  0.00    +0.000 C 
ATOM     23  O   UNL     1       4.729  -4.596   4.314  0.00  0.00    +0.000 OA
ATOM     24  H   UNL     1       2.421  -2.585   3.468  0.00  0.00    +0.000 HD
BRANCH  22  25
ATOM     25  C   UNL     1       2.884  -3.931   5.613  0.00  0.00    +0.000 A 
ATOM     26  C   UNL     1       2.958  -4.990   6.509  0.00  0.00    +0.000 A 
ATOM     27  S   UNL     1       1.998  -4.770   7.903  0.00  0.00    +0.000 S 
ATOM     28  C   UNL     1       1.538  -3.210   7.402  0.00  0.00    +0.000 A 
ATOM     29  N   UNL     1       0.821  -2.392   8.219  0.00  0.00    +0.000 NA
ATOM     30  C   UNL     1       0.585  -1.222   7.725  0.00  0.00    +0.000 A 
ATOM     31  N   UNL     1       0.949  -0.817   6.466  0.00  0.00    +0.000 N 
ATOM     32  C   UNL     1       1.592  -1.643   5.577  0.00  0.00    +0.000 A 
ATOM     33  O   UNL     1       1.753  -1.314   4.407  0.00  0.00    +0.000 OA
ATOM     34  C   UNL     1       1.997  -2.919   6.131  0.00  0.00    +0.000 A 
ATOM     35  H   UNL     1       0.671   0.085   6.110  0.00  0.00    +0.000 HD
ENDBRANCH  22  25
ENDBRANCH  20  21
ENDBRANCH   6  20
TORSDOF 8
