REMARK  Name = 
REMARK  6 active torsions:
REMARK  status: ('A' for Active; 'I' for Inactive)
REMARK    1  A    between atoms: C_2  and  C_18
REMARK    2  A    between atoms: N_3  and  C_4
REMARK    3  A    between atoms: C_4  and  C_5
REMARK    4  A    between atoms: C_8  and  C_9
REMARK    5  A    between atoms: C_9  and  N_10
REMARK    6  A    between atoms: C_13  and  O_14
REMARK                            x       y       z     vdW  Elec       q    Type
REMARK                         _______ _______ _______ _____ _____    ______ ____
ROOT
ATOM      1  O   UNL     1       0.276   2.405  -2.227  0.00  0.00    +0.000 OA
ATOM      2  C   UNL     1       0.064   1.285  -2.683  0.00  0.00    +0.000 C 
ATOM      3  N   UNL     1       0.991   0.276  -2.629  0.00  0.00    +0.000 N 
ATOM      4  H   UNL     1       0.827  -0.575  -3.158  0.00  0.00    +0.000 HD
ENDROOT
BRANCH   2   5
ATOM      5  C   UNL     1      -1.227   0.933  -3.291  0.00  0.00    +0.000 A 
ATOM      6  C   UNL     1      -2.361   1.673  -2.986  0.00  0.00    +0.000 A 
ATOM      7  S   UNL     1      -3.772   1.121  -3.770  0.00  0.00    +0.000 S 
ATOM      8  C   UNL     1      -2.909  -0.099  -4.583  0.00  0.00    +0.000 A 
ATOM      9  N   UNL     1      -3.532  -0.932  -5.460  0.00  0.00    +0.000 NA
ATOM     10  C   UNL     1      -2.749  -1.780  -6.040  0.00  0.00    +0.000 A 
ATOM     11  N   UNL     1      -1.401  -1.881  -5.814  0.00  0.00    +0.000 N 
ATOM     12  C   UNL     1      -0.746  -1.116  -4.880  0.00  0.00    +0.000 A 
ATOM     13  O   UNL     1       0.430  -1.329  -4.599  0.00  0.00    +0.000 OA
ATOM     14  C   UNL     1      -1.568  -0.106  -4.238  0.00  0.00    +0.000 A 
ATOM     15  H   UNL     1      -0.850  -2.589  -6.274  0.00  0.00    +0.000 HD
ENDBRANCH   2   5
BRANCH   3  16
ATOM     16  C   UNL     1       2.342   0.480  -2.173  0.00  0.00    +0.000 C 
BRANCH  16  17
ATOM     17  C   UNL     1       3.254   0.849  -3.303  0.00  0.00    +0.000 A 
ATOM     18  C   UNL     1       3.422   2.180  -3.691  0.00  0.00    +0.000 A 
ATOM     19  C   UNL     1       4.293   2.496  -4.729  0.00  0.00    +0.000 A 
ATOM     20  C   UNL     1       4.965   1.468  -5.381  0.00  0.00    +0.000 A 
ATOM     21  N   UNL     1       4.795   0.159  -5.044  0.00  0.00    +0.000 NA
ATOM     22  C   UNL     1       3.947  -0.115  -4.024  0.00  0.00    +0.000 A 
BRANCH  20  23
ATOM     23  C   UNL     1       5.931   1.775  -6.514  0.00  0.00    +0.000 C 
BRANCH  23  24
ATOM     24  N   UNL     1       7.316   2.087  -6.091  0.00  0.00    +0.000 NA
ATOM     25  C   UNL     1       8.165   2.361  -7.262  0.00  0.00    +0.000 C 
ATOM     26  C   UNL     1       9.447   1.550  -7.107  0.00  0.00    +0.000 C 
ATOM     27  C   UNL     1       9.415   1.035  -5.683  0.00  0.00    +0.000 C 
ATOM     28  C   UNL     1       7.927   0.959  -5.358  0.00  0.00    +0.000 C 
BRANCH  27  29
ATOM     29  O   UNL     1      10.089   1.953  -4.826  0.00  0.00    +0.000 OA
ATOM     30  H   UNL     1       9.508   2.736  -4.754  0.00  0.00    +0.000 HD
ENDBRANCH  27  29
ENDBRANCH  23  24
ENDBRANCH  20  23
ENDBRANCH  16  17
ENDBRANCH   3  16
TORSDOF 6
