REMARK  Name = 
REMARK  5 active torsions:
REMARK  status: ('A' for Active; 'I' for Inactive)
REMARK    1  A    between atoms: C_2  and  C_19
REMARK    2  A    between atoms: N_3  and  C_4
REMARK    3  A    between atoms: C_4  and  C_5
REMARK    4  A    between atoms: C_8  and  C_9
REMARK    5  A    between atoms: C_9  and  N_10
REMARK                            x       y       z     vdW  Elec       q    Type
REMARK                         _______ _______ _______ _____ _____    ______ ____
ROOT
ATOM      1  C   UNL     1       4.373   3.254   0.549  0.00  0.00    +0.000 C 
ENDROOT
BRANCH   1   2
ATOM      2  C   UNL     1       3.194   3.237   1.542  0.00  0.00    +0.000 C 
ATOM      3  C   UNL     1       3.615   2.883   2.978  0.00  0.00    +0.000 C 
ATOM      4  C   UNL     1       4.414   3.994   3.659  0.00  0.00    +0.000 C 
ATOM      5  C   UNL     1       3.728   5.372   3.602  0.00  0.00    +0.000 C 
ATOM      6  C   UNL     1       3.293   5.703   2.162  0.00  0.00    +0.000 C 
ATOM      7  C   UNL     1       2.463   4.586   1.524  0.00  0.00    +0.000 C 
BRANCH   5   8
ATOM      8  C   UNL     1       2.518   5.500   4.548  0.00  0.00    +0.000 C 
BRANCH   8   9
ATOM      9  N   UNL     1       2.910   5.323   5.945  0.00  0.00    +0.000 N 
ATOM     10  C   UNL     1       1.833   5.464   6.847  0.00  0.00    +0.000 A 
ATOM     11  C   UNL     1       2.080   5.296   8.195  0.00  0.00    +0.000 A 
ATOM     12  C   UNL     1       1.000   5.410   9.042  0.00  0.00    +0.000 A 
ATOM     13  N   UNL     1      -0.248   5.677   8.623  0.00  0.00    +0.000 NA
ATOM     14  C   UNL     1      -0.384   5.817   7.299  0.00  0.00    +0.000 A 
ATOM     15  N   UNL     1       0.596   5.718   6.389  0.00  0.00    +0.000 NA
ATOM     16  H   UNL     1       3.658   5.954   6.223  0.00  0.00    +0.000 HD
ENDBRANCH   8   9
ENDBRANCH   5   8
ENDBRANCH   1   2
BRANCH   1  19
ATOM     17  O   UNL     1       6.702   2.674  -0.944  0.00  0.00    +0.000 OA
ATOM     18  C   UNL     1       6.039   1.760  -0.470  0.00  0.00    +0.000 C 
ATOM     19  N   UNL     1       4.940   1.942   0.349  0.00  0.00    +0.000 N 
ATOM     20  H   UNL     1       4.331   1.150   0.492  0.00  0.00    +0.000 HD
BRANCH  18  21
ATOM     21  C   UNL     1       6.195   0.370  -0.876  0.00  0.00    +0.000 A 
ATOM     22  C   UNL     1       6.410   0.003  -2.194  0.00  0.00    +0.000 A 
ATOM     23  S   UNL     1       6.128  -1.668  -2.450  0.00  0.00    +0.000 S 
ATOM     24  C   UNL     1       5.812  -1.927  -0.794  0.00  0.00    +0.000 A 
ATOM     25  N   UNL     1       5.366  -3.118  -0.316  0.00  0.00    +0.000 NA
ATOM     26  C   UNL     1       5.224  -3.153   0.970  0.00  0.00    +0.000 A 
ATOM     27  N   UNL     1       5.537  -2.124   1.825  0.00  0.00    +0.000 N 
ATOM     28  C   UNL     1       6.024  -0.913   1.389  0.00  0.00    +0.000 A 
ATOM     29  O   UNL     1       6.400  -0.048   2.167  0.00  0.00    +0.000 OA
ATOM     30  C   UNL     1       6.060  -0.792  -0.053  0.00  0.00    +0.000 A 
ATOM     31  H   UNL     1       5.494  -2.248   2.825  0.00  0.00    +0.000 HD
ENDBRANCH  18  21
ENDBRANCH   1  19
TORSDOF 5
