REMARK  Name = 
REMARK  10 active torsions:
REMARK  status: ('A' for Active; 'I' for Inactive)
REMARK    1  A    between atoms: C_1  and  C_2
REMARK    2  A    between atoms: C_2  and  C_3
REMARK    3  A    between atoms: C_3  and  N_4
REMARK    4  A    between atoms: C_3  and  C_21
REMARK    5  A    between atoms: N_4  and  C_5
REMARK    6  A    between atoms: C_5  and  C_6
REMARK    7  A    between atoms: C_9  and  C_10
REMARK    8  A    between atoms: C_10  and  N_11
REMARK    9  A    between atoms: N_11  and  C_12
REMARK   10  A    between atoms: C_12  and  C_13
REMARK                            x       y       z     vdW  Elec       q    Type
REMARK                         _______ _______ _______ _____ _____    ______ ____
ROOT
ATOM      1  C   UNL     1       1.227   2.436  -1.132  0.00  0.00    +0.000 C 
ENDROOT
BRANCH   1   2
ATOM      2  C   UNL     1       0.722   3.825  -0.850  0.00  0.00    +0.000 A 
ATOM      3  C   UNL     1      -0.356   4.018   0.016  0.00  0.00    +0.000 A 
ATOM      4  C   UNL     1      -0.817   5.299   0.306  0.00  0.00    +0.000 A 
ATOM      5  C   UNL     1      -0.184   6.421  -0.243  0.00  0.00    +0.000 A 
ATOM      6  C   UNL     1       0.901   6.233  -1.112  0.00  0.00    +0.000 A 
ATOM      7  C   UNL     1       1.347   4.947  -1.419  0.00  0.00    +0.000 A 
BRANCH   5   8
ATOM      8  C   UNL     1      -0.658   7.820   0.067  0.00  0.00    +0.000 C 
BRANCH   8   9
ATOM      9  N   UNL     1      -0.583   8.092   1.501  0.00  0.00    +0.000 NA
ATOM     10  H   UNL     1       0.387   7.982   1.800  0.00  0.00    +0.000 HD
BRANCH   9  11
ATOM     11  C   UNL     1      -1.026   9.445   1.818  0.00  0.00    +0.000 C 
BRANCH  11  12
ATOM     12  C   UNL     1      -0.933   9.717   3.301  0.00  0.00    +0.000 A 
ATOM     13  C   UNL     1      -0.113  10.750   3.765  0.00  0.00    +0.000 A 
ATOM     14  C   UNL     1      -0.032  10.975   5.130  0.00  0.00    +0.000 A 
ATOM     15  N   UNL     1      -0.698  10.254   6.055  0.00  0.00    +0.000 NA
ATOM     16  C   UNL     1      -1.492   9.266   5.591  0.00  0.00    +0.000 A 
ATOM     17  C   UNL     1      -1.648   8.970   4.242  0.00  0.00    +0.000 A 
ENDBRANCH  11  12
ENDBRANCH   9  11
ENDBRANCH   8   9
ENDBRANCH   5   8
ENDBRANCH   1   2
BRANCH   1  18
ATOM     18  N   UNL     1       0.202   1.577  -1.723  0.00  0.00    +0.000 NA
ATOM     19  H   UNL     1      -0.588   1.532  -1.083  0.00  0.00    +0.000 HD
BRANCH  18  20
ATOM     20  C   UNL     1       0.666   0.198  -1.970  0.00  0.00    +0.000 C 
BRANCH  20  21
ATOM     21  C   UNL     1      -0.549  -0.514  -2.546  0.00  0.00    +0.000 A 
ATOM     22  C   UNL     1      -1.130  -0.217  -3.773  0.00  0.00    +0.000 A 
ATOM     23  S   UNL     1      -2.464  -1.213  -4.148  0.00  0.00    +0.000 S 
ATOM     24  C   UNL     1      -2.337  -2.041  -2.665  0.00  0.00    +0.000 A 
ATOM     25  N   UNL     1      -3.207  -3.030  -2.339  0.00  0.00    +0.000 NA
ATOM     26  C   UNL     1      -2.996  -3.558  -1.174  0.00  0.00    +0.000 A 
ATOM     27  N   UNL     1      -1.993  -3.184  -0.319  0.00  0.00    +0.000 N 
ATOM     28  C   UNL     1      -1.101  -2.182  -0.592  0.00  0.00    +0.000 A 
ATOM     29  O   UNL     1      -0.242  -1.847   0.219  0.00  0.00    +0.000 OA
ATOM     30  C   UNL     1      -1.289  -1.566  -1.897  0.00  0.00    +0.000 A 
ATOM     31  H   UNL     1      -1.894  -3.630   0.586  0.00  0.00    +0.000 HD
ENDBRANCH  20  21
BRANCH  20  33
ATOM     32  C   UNL     1       2.435  -1.301  -3.192  0.00  0.00    +0.000 C 
ATOM     33  C   UNL     1       1.892   0.105  -2.919  0.00  0.00    +0.000 C 
ENDBRANCH  20  33
ENDBRANCH  18  20
ENDBRANCH   1  18
TORSDOF 9
