REMARK  Name = 
REMARK  8 active torsions:
REMARK  status: ('A' for Active; 'I' for Inactive)
REMARK    1  A    between atoms: C_1  and  C_2
REMARK    2  A    between atoms: N_4  and  C_5
REMARK    3  A    between atoms: C_7  and  C_8
REMARK    4  A    between atoms: C_8  and  C_9
REMARK    5  A    between atoms: C_9  and  N_10
REMARK    6  A    between atoms: C_14  and  C_15
REMARK    7  A    between atoms: C_21  and  C_22
REMARK    8  A    between atoms: C_28  and  C_29
REMARK                            x       y       z     vdW  Elec       q    Type
REMARK                         _______ _______ _______ _____ _____    ______ ____
ROOT
ATOM      1  C   UNL     1       1.742   1.370  -3.223  0.00  0.00    +0.000 A 
ATOM      2  C   UNL     1       2.162   2.647  -3.637  0.00  0.00    +0.000 A 
ATOM      3  C   UNL     1       1.448   3.413  -4.576  0.00  0.00    +0.000 A 
ATOM      4  C   UNL     1       0.246   2.906  -5.078  0.00  0.00    +0.000 A 
ATOM      5  C   UNL     1      -0.211   1.643  -4.687  0.00  0.00    +0.000 A 
ATOM      6  C   UNL     1       0.539   0.896  -3.763  0.00  0.00    +0.000 A 
ENDROOT
BRANCH   1  10
ATOM      7  C   UNL     1       1.927  -2.511  -2.884  0.00  0.00    +0.000 C 
ATOM      8  C   UNL     1       2.559  -1.780  -1.703  0.00  0.00    +0.000 C 
ATOM      9  C   UNL     1       1.928  -0.396  -1.445  0.00  0.00    +0.000 C 
ATOM     10  N   UNL     1       2.491   0.619  -2.342  0.00  0.00    +0.000 N 
ATOM     11  C   UNL     1       3.958   0.679  -2.317  0.00  0.00    +0.000 C 
ATOM     12  C   UNL     1       4.559  -0.711  -2.607  0.00  0.00    +0.000 C 
ATOM     13  C   UNL     1       4.543  -1.074  -4.091  0.00  0.00    +0.000 C 
ATOM     14  O   UNL     1       3.995  -1.750  -1.789  0.00  0.00    +0.000 OA
ENDBRANCH   1  10
BRANCH   5  15
ATOM     15  C   UNL     1      -1.466   1.050  -5.275  0.00  0.00    +0.000 C 
ATOM     16  F   UNL     1      -2.087   1.866  -6.171  0.00  0.00    +0.000 F 
ATOM     17  F   UNL     1      -1.225  -0.116  -5.938  0.00  0.00    +0.000 F 
ATOM     18  F   UNL     1      -2.400   0.754  -4.329  0.00  0.00    +0.000 F 
ENDBRANCH   5  15
BRANCH   3  19
ATOM     19  C   UNL     1       1.973   4.748  -5.064  0.00  0.00    +0.000 C 
BRANCH  19  20
ATOM     20  C   UNL     1       3.323   4.617  -5.783  0.00  0.00    +0.000 C 
BRANCH  20  21
ATOM     21  N   UNL     1       3.795   5.918  -6.283  0.00  0.00    +0.000 N 
ATOM     22  C   UNL     1       5.039   5.815  -6.944  0.00  0.00    +0.000 A 
ATOM     23  C   UNL     1       5.614   6.961  -7.486  0.00  0.00    +0.000 A 
ATOM     24  C   UNL     1       6.836   6.865  -8.154  0.00  0.00    +0.000 A 
ATOM     25  C   UNL     1       7.434   5.621  -8.244  0.00  0.00    +0.000 A 
ATOM     26  N   UNL     1       6.871   4.513  -7.721  0.00  0.00    +0.000 NA
ATOM     27  N   UNL     1       5.661   4.621  -7.082  0.00  0.00    +0.000 NA
ATOM     28  H   UNL     1       3.875   6.613  -5.543  0.00  0.00    +0.000 HD
BRANCH  25  29
ATOM     29  C   UNL     1       8.749   5.443  -8.921  0.00  0.00    +0.000 C 
ATOM     30  N   UNL     1       9.262   4.171  -8.931  0.00  0.00    +0.000 N 
ATOM     31  O   UNL     1       9.351   6.378  -9.429  0.00  0.00    +0.000 OA
ATOM     32  H   UNL     1       8.761   3.399  -8.507  0.00  0.00    +0.000 HD
ATOM     33  H   UNL     1      10.157   4.010  -9.370  0.00  0.00    +0.000 HD
ENDBRANCH  25  29
ENDBRANCH  20  21
ENDBRANCH  19  20
ENDBRANCH   3  19
TORSDOF 6
