REMARK  Name = 
REMARK  5 active torsions:
REMARK  status: ('A' for Active; 'I' for Inactive)
REMARK    1  A    between atoms: C_1  and  O_2
REMARK    2  A    between atoms: O_2  and  C_3
REMARK    3  A    between atoms: C_6  and  C_7
REMARK    4  A    between atoms: C_7  and  N_8
REMARK    5  A    between atoms: C_12  and  C_13
REMARK                            x       y       z     vdW  Elec       q    Type
REMARK                         _______ _______ _______ _____ _____    ______ ____
ROOT
ATOM      1  N   UNL     1       6.093   3.162   3.841  0.00  0.00    +0.000 N 
ATOM      2  C   UNL     1       7.344   3.100   3.224  0.00  0.00    +0.000 A 
ATOM      3  N   UNL     1       7.745   1.986   2.589  0.00  0.00    +0.000 NA
ATOM      4  C   UNL     1       8.966   2.002   2.014  0.00  0.00    +0.000 A 
ATOM      5  C   UNL     1       9.812   3.084   2.053  0.00  0.00    +0.000 A 
ATOM      6  C   UNL     1       9.330   4.169   2.747  0.00  0.00    +0.000 A 
ATOM      7  N   UNL     1       8.106   4.203   3.327  0.00  0.00    +0.000 NA
ATOM      8  H   UNL     1       6.094   3.990   4.422  0.00  0.00    +0.000 HD
ENDROOT
BRANCH   5   9
ATOM      9  C   UNL     1      11.136   3.009   1.420  0.00  0.00    +0.000 C 
ATOM     10  N   UNL     1      11.760   4.175   1.084  0.00  0.00    +0.000 N 
ATOM     11  O   UNL     1      11.653   1.927   1.173  0.00  0.00    +0.000 OA
ATOM     12  H   UNL     1      11.294   5.071   1.042  0.00  0.00    +0.000 HD
ATOM     13  H   UNL     1      12.620   4.081   0.556  0.00  0.00    +0.000 HD
ENDBRANCH   5   9
BRANCH   1  14
ATOM     14  C   UNL     1       5.429   1.945   4.338  0.00  0.00    +0.000 C 
ATOM     15  C   UNL     1       6.086   1.093   5.411  0.00  0.00    +0.000 C 
ATOM     16  C   UNL     1       4.945   1.979   5.786  0.00  0.00    +0.000 C 
BRANCH  14  20
ATOM     17  C   UNL     1       2.829  -0.147   1.511  0.00  0.00    +0.000 A 
ATOM     18  C   UNL     1       4.191  -0.428   1.551  0.00  0.00    +0.000 A 
ATOM     19  C   UNL     1       5.022   0.258   2.448  0.00  0.00    +0.000 A 
ATOM     20  C   UNL     1       4.528   1.243   3.321  0.00  0.00    +0.000 A 
ATOM     21  C   UNL     1       3.156   1.530   3.235  0.00  0.00    +0.000 A 
ATOM     22  C   UNL     1       2.318   0.839   2.354  0.00  0.00    +0.000 A 
BRANCH  17  24
ATOM     23  C   UNL     1       2.370  -1.776  -0.157  0.00  0.00    +0.000 C 
ATOM     24  O   UNL     1       1.902  -0.749   0.707  0.00  0.00    +0.000 OA
ENDBRANCH  17  24
ENDBRANCH  14  20
ENDBRANCH   1  14
TORSDOF 4
