REMARK  Name = 
REMARK  7 active torsions:
REMARK  status: ('A' for Active; 'I' for Inactive)
REMARK    1  A    between atoms: C_2  and  C_20
REMARK    2  A    between atoms: N_3  and  C_4
REMARK    3  A    between atoms: C_4  and  C_5
REMARK    4  A    between atoms: C_8  and  C_9
REMARK    5  A    between atoms: C_9  and  C_10
REMARK    6  A    between atoms: C_10  and  O_11
REMARK    7  A    between atoms: C_10  and  C_12
REMARK                            x       y       z     vdW  Elec       q    Type
REMARK                         _______ _______ _______ _____ _____    ______ ____
ROOT
ATOM      1  C   UNL     1       2.269  -0.170  -2.453  0.00  0.00    +0.000 C 
ENDROOT
BRANCH   1   2
ATOM      2  C   UNL     1       3.278  -0.037  -3.566  0.00  0.00    +0.000 A 
ATOM      3  C   UNL     1       3.651   1.225  -4.048  0.00  0.00    +0.000 A 
ATOM      4  C   UNL     1       4.605   1.347  -5.065  0.00  0.00    +0.000 A 
ATOM      5  C   UNL     1       5.183   0.208  -5.640  0.00  0.00    +0.000 A 
ATOM      6  C   UNL     1       4.776  -1.054  -5.185  0.00  0.00    +0.000 A 
ATOM      7  C   UNL     1       3.826  -1.176  -4.167  0.00  0.00    +0.000 A 
BRANCH   5   8
ATOM      8  C   UNL     1       6.243   0.318  -6.720  0.00  0.00    +0.000 C 
BRANCH   8   9
ATOM      9  C   UNL     1       7.681   0.346  -6.174  0.00  0.00    +0.000 C 
BRANCH   9  10
ATOM     10  C   UNL     1       8.678   0.507  -7.320  0.00  0.00    +0.000 A 
ATOM     11  N   UNL     1       9.011   1.755  -7.708  0.00  0.00    +0.000 NA
ATOM     12  C   UNL     1       9.934   1.860  -8.686  0.00  0.00    +0.000 A 
ATOM     13  C   UNL     1      10.526   0.778  -9.293  0.00  0.00    +0.000 A 
ATOM     14  C   UNL     1      10.107  -0.453  -8.845  0.00  0.00    +0.000 A 
ATOM     15  N   UNL     1       9.186  -0.623  -7.874  0.00  0.00    +0.000 NA
ENDBRANCH   9  10
BRANCH   9  16
ATOM     16  O   UNL     1       7.937  -0.875  -5.452  0.00  0.00    +0.000 OA
ATOM     17  H   UNL     1       8.198  -1.526  -6.130  0.00  0.00    +0.000 HD
ENDBRANCH   9  16
ENDBRANCH   8   9
ENDBRANCH   5   8
ENDBRANCH   1   2
BRANCH   1  20
ATOM     18  O   UNL     1      -0.170  -0.202  -0.984  0.00  0.00    +0.000 OA
ATOM     19  C   UNL     1      -0.171  -0.330  -2.195  0.00  0.00    +0.000 C 
ATOM     20  N   UNL     1       0.944  -0.229  -2.999  0.00  0.00    +0.000 N 
ATOM     21  H   UNL     1       0.885  -0.624  -3.927  0.00  0.00    +0.000 HD
BRANCH  19  22
ATOM     22  C   UNL     1      -1.299  -0.844  -2.961  0.00  0.00    +0.000 A 
ATOM     23  C   UNL     1      -2.116  -1.851  -2.484  0.00  0.00    +0.000 A 
ATOM     24  S   UNL     1      -2.841  -2.720  -3.778  0.00  0.00    +0.000 S 
ATOM     25  C   UNL     1      -2.226  -1.624  -4.931  0.00  0.00    +0.000 A 
ATOM     26  N   UNL     1      -2.328  -1.839  -6.271  0.00  0.00    +0.000 NA
ATOM     27  C   UNL     1      -1.869  -0.872  -6.998  0.00  0.00    +0.000 A 
ATOM     28  N   UNL     1      -1.361   0.309  -6.511  0.00  0.00    +0.000 N 
ATOM     29  C   UNL     1      -1.224   0.576  -5.165  0.00  0.00    +0.000 A 
ATOM     30  O   UNL     1      -0.828   1.648  -4.748  0.00  0.00    +0.000 OA
ATOM     31  C   UNL     1      -1.617  -0.546  -4.326  0.00  0.00    +0.000 A 
ATOM     32  H   UNL     1      -1.109   1.061  -7.136  0.00  0.00    +0.000 HD
ENDBRANCH  19  22
ENDBRANCH   1  20
TORSDOF 7
