REMARK  Name = 
REMARK  9 active torsions:
REMARK  status: ('A' for Active; 'I' for Inactive)
REMARK    1  A    between atoms: C_1  and  C_2
REMARK    2  A    between atoms: C_2  and  N_3
REMARK    3  A    between atoms: C_2  and  C_20
REMARK    4  A    between atoms: N_3  and  C_4
REMARK    5  A    between atoms: C_4  and  C_5
REMARK    6  A    between atoms: C_8  and  C_9
REMARK    7  A    between atoms: C_9  and  O_10
REMARK    8  A    between atoms: O_10  and  C_11
REMARK    9  A    between atoms: C_11  and  C_12
REMARK                            x       y       z     vdW  Elec       q    Type
REMARK                         _______ _______ _______ _____ _____    ______ ____
ROOT
ATOM      1  C   UNL     1       0.593  -0.358  -1.369  0.00  0.00    +0.000 C 
ENDROOT
BRANCH   1   2
ATOM      2  C   UNL     1      -0.923  -0.463  -1.345  0.00  0.00    +0.000 A 
ATOM      3  C   UNL     1      -1.554  -1.328  -0.450  0.00  0.00    +0.000 A 
ATOM      4  C   UNL     1      -2.940  -1.475  -0.519  0.00  0.00    +0.000 A 
ATOM      5  C   UNL     1      -3.668  -0.764  -1.471  0.00  0.00    +0.000 A 
ATOM      6  C   UNL     1      -2.957   0.088  -2.310  0.00  0.00    +0.000 A 
ATOM      7  N   UNL     1      -1.615   0.252  -2.267  0.00  0.00    +0.000 NA
BRANCH   5   8
ATOM      8  C   UNL     1      -5.154  -0.899  -1.609  0.00  0.00    +0.000 C 
BRANCH   8   9
ATOM      9  O   UNL     1      -5.441  -1.360  -2.926  0.00  0.00    +0.000 OA
BRANCH   9  10
ATOM     10  C   UNL     1      -6.841  -1.512  -3.149  0.00  0.00    +0.000 C 
BRANCH  10  11
ATOM     11  C   UNL     1      -7.089  -2.000  -4.548  0.00  0.00    +0.000 A 
ATOM     12  C   UNL     1      -6.245  -1.687  -5.618  0.00  0.00    +0.000 A 
ATOM     13  C   UNL     1      -6.537  -2.161  -6.895  0.00  0.00    +0.000 A 
ATOM     14  C   UNL     1      -7.681  -2.922  -7.065  0.00  0.00    +0.000 A 
ATOM     15  N   UNL     1      -8.537  -3.224  -6.066  0.00  0.00    +0.000 NA
ATOM     16  C   UNL     1      -8.223  -2.755  -4.837  0.00  0.00    +0.000 A 
ENDBRANCH  10  11
ENDBRANCH   9  10
ENDBRANCH   8   9
ENDBRANCH   5   8
ENDBRANCH   1   2
BRANCH   1  17
ATOM     17  N   UNL     1       1.080   0.993  -1.089  0.00  0.00    +0.000 NA
ATOM     18  H   UNL     1       0.705   1.303  -0.195  0.00  0.00    +0.000 HD
BRANCH  17  20
ATOM     19  C   UNL     1       3.214   0.605  -2.353  0.00  0.00    +0.000 C 
ATOM     20  C   UNL     1       2.544   1.097  -1.062  0.00  0.00    +0.000 C 
BRANCH  20  21
ATOM     21  C   UNL     1       2.866   2.555  -0.796  0.00  0.00    +0.000 A 
ATOM     22  C   UNL     1       2.407   3.607  -1.577  0.00  0.00    +0.000 A 
ATOM     23  S   UNL     1       2.897   5.139  -1.007  0.00  0.00    +0.000 S 
ATOM     24  C   UNL     1       3.735   4.449   0.304  0.00  0.00    +0.000 A 
ATOM     25  N   UNL     1       4.376   5.229   1.217  0.00  0.00    +0.000 NA
ATOM     26  C   UNL     1       4.944   4.570   2.171  0.00  0.00    +0.000 A 
ATOM     27  N   UNL     1       4.942   3.203   2.290  0.00  0.00    +0.000 N 
ATOM     28  C   UNL     1       4.359   2.369   1.361  0.00  0.00    +0.000 A 
ATOM     29  O   UNL     1       4.454   1.149   1.451  0.00  0.00    +0.000 OA
ATOM     30  C   UNL     1       3.662   3.068   0.295  0.00  0.00    +0.000 A 
ATOM     31  H   UNL     1       5.429   2.751   3.049  0.00  0.00    +0.000 HD
ENDBRANCH  20  21
ENDBRANCH  17  20
ENDBRANCH   1  17
TORSDOF 8
