REMARK  Name = 
REMARK  9 active torsions:
REMARK  status: ('A' for Active; 'I' for Inactive)
REMARK    1  A    between atoms: C_1  and  C_2
REMARK    2  A    between atoms: C_2  and  N_3
REMARK    3  A    between atoms: C_2  and  C_20
REMARK    4  A    between atoms: N_3  and  C_4
REMARK    5  A    between atoms: C_4  and  C_5
REMARK    6  A    between atoms: C_8  and  C_9
REMARK    7  A    between atoms: C_9  and  O_10
REMARK    8  A    between atoms: O_10  and  C_11
REMARK    9  A    between atoms: C_11  and  C_12
REMARK                            x       y       z     vdW  Elec       q    Type
REMARK                         _______ _______ _______ _____ _____    ______ ____
ROOT
ATOM      1  C   UNL     1       2.628   1.832   1.371  0.00  0.00    +0.000 C 
ENDROOT
BRANCH   1   2
ATOM      2  C   UNL     1       3.035   2.418   2.705  0.00  0.00    +0.000 A 
ATOM      3  C   UNL     1       3.026   3.802   2.926  0.00  0.00    +0.000 A 
ATOM      4  C   UNL     1       3.320   4.323   4.190  0.00  0.00    +0.000 A 
ATOM      5  C   UNL     1       3.619   3.473   5.263  0.00  0.00    +0.000 A 
ATOM      6  C   UNL     1       3.635   2.091   5.044  0.00  0.00    +0.000 A 
ATOM      7  C   UNL     1       3.348   1.570   3.779  0.00  0.00    +0.000 A 
BRANCH   5   8
ATOM      8  C   UNL     1       3.920   4.039   6.626  0.00  0.00    +0.000 C 
BRANCH   8   9
ATOM      9  O   UNL     1       2.789   4.776   7.082  0.00  0.00    +0.000 OA
BRANCH   9  10
ATOM     10  C   UNL     1       3.007   5.320   8.382  0.00  0.00    +0.000 C 
BRANCH  10  11
ATOM     11  C   UNL     1       1.788   6.076   8.843  0.00  0.00    +0.000 A 
ATOM     12  C   UNL     1       1.497   6.177  10.208  0.00  0.00    +0.000 A 
ATOM     13  C   UNL     1       0.384   6.904  10.601  0.00  0.00    +0.000 A 
ATOM     14  N   UNL     1      -0.442   7.539   9.744  0.00  0.00    +0.000 NA
ATOM     15  C   UNL     1      -0.140   7.440   8.432  0.00  0.00    +0.000 A 
ATOM     16  C   UNL     1       0.950   6.738   7.941  0.00  0.00    +0.000 A 
ENDBRANCH  10  11
ENDBRANCH   9  10
ENDBRANCH   8   9
ENDBRANCH   5   8
ENDBRANCH   1   2
BRANCH   1  17
ATOM     17  N   UNL     1       3.465   2.297   0.261  0.00  0.00    +0.000 NA
ATOM     18  H   UNL     1       3.390   3.313   0.226  0.00  0.00    +0.000 HD
BRANCH  17  20
ATOM     19  C   UNL     1       3.060   0.247  -1.115  0.00  0.00    +0.000 C 
ATOM     20  C   UNL     1       3.005   1.781  -1.037  0.00  0.00    +0.000 C 
BRANCH  20  21
ATOM     21  C   UNL     1       3.870   2.441  -2.099  0.00  0.00    +0.000 A 
ATOM     22  C   UNL     1       5.048   1.917  -2.612  0.00  0.00    +0.000 A 
ATOM     23  S   UNL     1       5.761   2.893  -3.819  0.00  0.00    +0.000 S 
ATOM     24  C   UNL     1       4.540   4.070  -3.672  0.00  0.00    +0.000 A 
ATOM     25  N   UNL     1       4.556   5.200  -4.429  0.00  0.00    +0.000 NA
ATOM     26  C   UNL     1       3.572   6.004  -4.200  0.00  0.00    +0.000 A 
ATOM     27  N   UNL     1       2.572   5.783  -3.285  0.00  0.00    +0.000 N 
ATOM     28  C   UNL     1       2.524   4.662  -2.484  0.00  0.00    +0.000 A 
ATOM     29  O   UNL     1       1.641   4.511  -1.646  0.00  0.00    +0.000 OA
ATOM     30  C   UNL     1       3.602   3.721  -2.720  0.00  0.00    +0.000 A 
ATOM     31  H   UNL     1       1.839   6.461  -3.146  0.00  0.00    +0.000 HD
ENDBRANCH  20  21
ENDBRANCH  17  20
ENDBRANCH   1  17
TORSDOF 8
