REMARK  Name = 
REMARK  9 active torsions:
REMARK  status: ('A' for Active; 'I' for Inactive)
REMARK    1  A    between atoms: C_1  and  O_2
REMARK    2  A    between atoms: O_2  and  C_3
REMARK    3  A    between atoms: C_5  and  C_6
REMARK    4  A    between atoms: C_6  and  N_7
REMARK    5  A    between atoms: C_8  and  C_10
REMARK    6  A    between atoms: C_22  and  C_23
REMARK    7  A    between atoms: C_23  and  N_24
REMARK    8  A    between atoms: N_24  and  C_25
REMARK    9  A    between atoms: C_25  and  C_26
REMARK                            x       y       z     vdW  Elec       q    Type
REMARK                         _______ _______ _______ _____ _____    ______ ____
ROOT
ATOM      1  C   UNL     1       3.066  -0.766  -0.901  0.00  0.00    +0.000 A 
ATOM      2  C   UNL     1       2.724  -0.604  -2.260  0.00  0.00    +0.000 A 
ATOM      3  C   UNL     1       3.441  -1.268  -3.281  0.00  0.00    +0.000 A 
ATOM      4  C   UNL     1       4.505  -2.092  -2.893  0.00  0.00    +0.000 A 
ATOM      5  C   UNL     1       4.814  -2.281  -1.557  0.00  0.00    +0.000 A 
ATOM      6  C   UNL     1       4.078  -1.679  -0.529  0.00  0.00    +0.000 A 
ENDROOT
BRANCH   1   8
ATOM      7  C   UNL     1       3.090   0.417   1.144  0.00  0.00    +0.000 C 
ATOM      8  O   UNL     1       2.357   0.013  -0.013  0.00  0.00    +0.000 OA
ENDBRANCH   1   8
BRANCH   3   9
ATOM      9  C   UNL     1       3.107  -1.068  -4.741  0.00  0.00    +0.000 C 
BRANCH   9  10
ATOM     10  N   UNL     1       2.137  -2.025  -5.227  0.00  0.00    +0.000 N 
ATOM     11  C   UNL     1       1.706  -2.043  -6.536  0.00  0.00    +0.000 C 
ATOM     12  O   UNL     1       2.123  -1.272  -7.385  0.00  0.00    +0.000 OA
ATOM     13  H   UNL     1       1.494  -2.387  -4.534  0.00  0.00    +0.000 HD
BRANCH  11  14
ATOM     14  C   UNL     1       0.752  -3.119  -6.856  0.00  0.00    +0.000 A 
ATOM     15  C   UNL     1       0.697  -3.642  -8.141  0.00  0.00    +0.000 A 
ATOM     16  S   UNL     1      -0.442  -4.901  -8.320  0.00  0.00    +0.000 S 
ATOM     17  C   UNL     1      -0.926  -4.771  -6.692  0.00  0.00    +0.000 A 
ATOM     18  N   UNL     1      -1.919  -5.559  -6.173  0.00  0.00    +0.000 NA
ATOM     19  C   UNL     1      -2.186  -5.336  -4.944  0.00  0.00    +0.000 A 
ATOM     20  N   UNL     1      -1.565  -4.405  -4.155  0.00  0.00    +0.000 N 
ATOM     21  C   UNL     1      -0.532  -3.608  -4.610  0.00  0.00    +0.000 A 
ATOM     22  O   UNL     1       0.045  -2.838  -3.872  0.00  0.00    +0.000 OA
ATOM     23  C   UNL     1      -0.210  -3.801  -6.005  0.00  0.00    +0.000 A 
ATOM     24  H   UNL     1      -1.815  -4.296  -3.171  0.00  0.00    +0.000 HD
ENDBRANCH  11  14
ENDBRANCH   9  10
ENDBRANCH   3   9
BRANCH   6  25
ATOM     25  C   UNL     1       4.405  -2.044   0.895  0.00  0.00    +0.000 C 
BRANCH  25  26
ATOM     26  N   UNL     1       3.303  -2.610   1.688  0.00  0.00    +0.000 NA
ATOM     27  H   UNL     1       2.510  -1.972   1.753  0.00  0.00    +0.000 HD
BRANCH  26  28
ATOM     28  C   UNL     1       2.738  -3.835   1.132  0.00  0.00    +0.000 C 
BRANCH  28  29
ATOM     29  C   UNL     1       1.573  -4.304   1.987  0.00  0.00    +0.000 A 
ATOM     30  C   UNL     1       1.761  -4.556   3.348  0.00  0.00    +0.000 A 
ATOM     31  C   UNL     1       0.678  -4.978   4.114  0.00  0.00    +0.000 A 
ATOM     32  C   UNL     1      -0.557  -5.149   3.504  0.00  0.00    +0.000 A 
ATOM     33  C   UNL     1      -0.659  -4.883   2.149  0.00  0.00    +0.000 A 
ATOM     34  N   UNL     1       0.368  -4.455   1.382  0.00  0.00    +0.000 NA
ENDBRANCH  28  29
ENDBRANCH  26  28
ENDBRANCH  25  26
ENDBRANCH   6  25
TORSDOF 8
