REMARK  Name = 
REMARK  6 active torsions:
REMARK  status: ('A' for Active; 'I' for Inactive)
REMARK    1  A    between atoms: N_1  and  C_2
REMARK    2  A    between atoms: C_2  and  C_3
REMARK    3  A    between atoms: C_6  and  O_7
REMARK    4  A    between atoms: O_7  and  C_8
REMARK    5  A    between atoms: C_8  and  C_9
REMARK    6  A    between atoms: C_9  and  C_12
REMARK                            x       y       z     vdW  Elec       q    Type
REMARK                         _______ _______ _______ _____ _____    ______ ____
ROOT
ATOM      1  O   UNL     1       3.945   2.136  -5.014  0.00  0.00    +0.000 OA
ENDROOT
BRANCH   1   5
ATOM      2  C   UNL     1       2.952   0.594  -1.324  0.00  0.00    +0.000 A 
ATOM      3  C   UNL     1       2.781   1.964  -1.508  0.00  0.00    +0.000 A 
ATOM      4  C   UNL     1       3.106   2.535  -2.738  0.00  0.00    +0.000 A 
ATOM      5  C   UNL     1       3.597   1.729  -3.759  0.00  0.00    +0.000 A 
ATOM      6  C   UNL     1       3.748   0.375  -3.483  0.00  0.00    +0.000 A 
ATOM      7  N   UNL     1       3.435  -0.212  -2.301  0.00  0.00    +0.000 NA
BRANCH   2   8
ATOM      8  C   UNL     1       2.552  -0.050  -0.014  0.00  0.00    +0.000 C 
BRANCH   8   9
ATOM      9  N   UNL     1       1.116   0.085   0.252  0.00  0.00    +0.000 NA
ATOM     10  H   UNL     1       0.889  -0.483   1.067  0.00  0.00    +0.000 HD
ATOM     11  H   UNL     1       0.618  -0.341  -0.531  0.00  0.00    +0.000 HD
ENDBRANCH   8   9
ENDBRANCH   2   8
ENDBRANCH   1   5
BRANCH   1  12
ATOM     12  C   UNL     1       3.725   3.521  -5.322  0.00  0.00    +0.000 C 
BRANCH  12  13
ATOM     13  C   UNL     1       4.119   3.819  -6.778  0.00  0.00    +0.000 C 
ATOM     14  F   UNL     1       5.433   3.488  -6.951  0.00  0.00    +0.000 F 
ATOM     15  F   UNL     1       3.420   2.982  -7.601  0.00  0.00    +0.000 F 
BRANCH  13  16
ATOM     16  C   UNL     1       3.858   5.278  -7.104  0.00  0.00    +0.000 A 
ATOM     17  C   UNL     1       4.838   6.252  -6.853  0.00  0.00    +0.000 A 
ATOM     18  C   UNL     1       4.597   7.593  -7.156  0.00  0.00    +0.000 A 
ATOM     19  C   UNL     1       3.376   7.975  -7.709  0.00  0.00    +0.000 A 
ATOM     20  C   UNL     1       2.391   7.020  -7.953  0.00  0.00    +0.000 A 
ATOM     21  C   UNL     1       2.629   5.678  -7.650  0.00  0.00    +0.000 A 
ENDBRANCH  13  16
ENDBRANCH  12  13
ENDBRANCH   1  12
TORSDOF 6
