REMARK  Name = 
REMARK  4 active torsions:
REMARK  status: ('A' for Active; 'I' for Inactive)
REMARK    1  A    between atoms: C_2  and  C_4
REMARK    2  A    between atoms: C_7  and  N_8
REMARK    3  A    between atoms: N_8  and  C_9
REMARK    4  A    between atoms: C_9  and  C_10
REMARK                            x       y       z     vdW  Elec       q    Type
REMARK                         _______ _______ _______ _____ _____    ______ ____
ROOT
ATOM      1  C   UNL     1       3.055  -0.951   0.858  0.00  0.00    +0.000 A 
ATOM      2  C   UNL     1       2.631  -1.690   1.966  0.00  0.00    +0.000 A 
ATOM      3  C   UNL     1       3.545  -2.487   2.673  0.00  0.00    +0.000 A 
ATOM      4  C   UNL     1       4.887  -2.570   2.282  0.00  0.00    +0.000 A 
ATOM      5  C   UNL     1       5.312  -1.760   1.223  0.00  0.00    +0.000 A 
ATOM      6  C   UNL     1       4.404  -0.979   0.498  0.00  0.00    +0.000 A 
ENDROOT
BRANCH   1   8
ATOM      7  N   UNL     1       0.967   0.288   0.591  0.00  0.00    +0.000 N 
ATOM      8  C   UNL     1       2.109  -0.185   0.004  0.00  0.00    +0.000 C 
ATOM      9  O   UNL     1       2.342   0.038  -1.178  0.00  0.00    +0.000 OA
ATOM     10  H   UNL     1       0.383   0.878   0.019  0.00  0.00    +0.000 HD
ATOM     11  H   UNL     1       0.860   0.342   1.593  0.00  0.00    +0.000 HD
ENDBRANCH   1   8
BRANCH   4  12
ATOM     12  N   UNL     1       5.821  -3.427   2.866  0.00  0.00    +0.000 N 
ATOM     13  H   UNL     1       6.538  -2.940   3.400  0.00  0.00    +0.000 HD
BRANCH  12  14
ATOM     14  C   UNL     1       5.368  -4.673   3.472  0.00  0.00    +0.000 C 
BRANCH  14  15
ATOM     15  C   UNL     1       6.442  -5.736   3.387  0.00  0.00    +0.000 A 
ATOM     16  C   UNL     1       6.941  -6.368   4.536  0.00  0.00    +0.000 A 
ATOM     17  C   UNL     1       7.860  -7.419   4.430  0.00  0.00    +0.000 A 
ATOM     18  C   UNL     1       8.285  -7.856   3.176  0.00  0.00    +0.000 A 
ATOM     19  C   UNL     1       7.800  -7.236   2.027  0.00  0.00    +0.000 A 
ATOM     20  C   UNL     1       6.891  -6.180   2.132  0.00  0.00    +0.000 A 
ENDBRANCH  14  15
ENDBRANCH  12  14
ENDBRANCH   4  12
TORSDOF 4
