REMARK  Name = 
REMARK  7 active torsions:
REMARK  status: ('A' for Active; 'I' for Inactive)
REMARK    1  A    between atoms: C_2  and  C_19
REMARK    2  A    between atoms: N_3  and  C_4
REMARK    3  A    between atoms: C_4  and  C_5
REMARK    4  A    between atoms: C_8  and  C_9
REMARK    5  A    between atoms: C_9  and  N_10
REMARK    6  A    between atoms: N_10  and  C_11
REMARK    7  A    between atoms: C_11  and  C_12
REMARK                            x       y       z     vdW  Elec       q    Type
REMARK                         _______ _______ _______ _____ _____    ______ ____
ROOT
ATOM      1  C   UNL     1       2.349  -0.574   2.508  0.00  0.00    +0.000 C 
ENDROOT
BRANCH   1   2
ATOM      2  C   UNL     1       3.326  -0.794   3.637  0.00  0.00    +0.000 A 
ATOM      3  C   UNL     1       3.975   0.289   4.217  0.00  0.00    +0.000 A 
ATOM      4  C   UNL     1       4.877   0.061   5.251  0.00  0.00    +0.000 A 
ATOM      5  C   UNL     1       5.118  -1.244   5.688  0.00  0.00    +0.000 A 
ATOM      6  C   UNL     1       4.441  -2.267   5.035  0.00  0.00    +0.000 A 
ATOM      7  N   UNL     1       3.559  -2.078   4.025  0.00  0.00    +0.000 NA
BRANCH   5   8
ATOM      8  C   UNL     1       6.066  -1.526   6.821  0.00  0.00    +0.000 C 
BRANCH   8   9
ATOM      9  N   UNL     1       5.597  -0.879   8.046  0.00  0.00    +0.000 NA
ATOM     10  H   UNL     1       4.681  -1.266   8.279  0.00  0.00    +0.000 HD
BRANCH   9  11
ATOM     11  C   UNL     1       6.500  -1.134   9.164  0.00  0.00    +0.000 C 
BRANCH  11  12
ATOM     12  C   UNL     1       5.996  -0.425  10.364  0.00  0.00    +0.000 A 
ATOM     13  C   UNL     1       6.071  -0.700  11.712  0.00  0.00    +0.000 A 
ATOM     14  N   UNL     1       5.435   0.268  12.447  0.00  0.00    +0.000 NA
ATOM     15  C   UNL     1       4.980   1.130  11.567  0.00  0.00    +0.000 A 
ATOM     16  N   UNL     1       5.307   0.763  10.296  0.00  0.00    +0.000 N 
ATOM     17  H   UNL     1       5.062   1.241   9.439  0.00  0.00    +0.000 HD
ENDBRANCH  11  12
ENDBRANCH   9  11
ENDBRANCH   8   9
ENDBRANCH   5   8
ENDBRANCH   1   2
BRANCH   1  20
ATOM     18  O   UNL     1       3.495   1.637   1.167  0.00  0.00    +0.000 OA
ATOM     19  C   UNL     1       3.503   0.536   0.623  0.00  0.00    +0.000 C 
ATOM     20  N   UNL     1       3.000  -0.585   1.221  0.00  0.00    +0.000 N 
ATOM     21  H   UNL     1       3.012  -1.475   0.739  0.00  0.00    +0.000 HD
BRANCH  19  22
ATOM     22  C   UNL     1       4.104   0.333  -0.699  0.00  0.00    +0.000 A 
ATOM     23  C   UNL     1       5.093   1.190  -1.160  0.00  0.00    +0.000 A 
ATOM     24  S   UNL     1       5.698   0.762  -2.698  0.00  0.00    +0.000 S 
ATOM     25  C   UNL     1       4.629  -0.557  -2.815  0.00  0.00    +0.000 A 
ATOM     26  N   UNL     1       4.625  -1.364  -3.911  0.00  0.00    +0.000 NA
ATOM     27  C   UNL     1       3.744  -2.307  -3.876  0.00  0.00    +0.000 A 
ATOM     28  N   UNL     1       2.861  -2.514  -2.849  0.00  0.00    +0.000 N 
ATOM     29  C   UNL     1       2.838  -1.738  -1.715  0.00  0.00    +0.000 A 
ATOM     30  O   UNL     1       2.057  -1.979  -0.801  0.00  0.00    +0.000 OA
ATOM     31  C   UNL     1       3.819  -0.668  -1.699  0.00  0.00    +0.000 A 
ATOM     32  H   UNL     1       2.198  -3.274  -2.878  0.00  0.00    +0.000 HD
ENDBRANCH  19  22
ENDBRANCH   1  20
TORSDOF 7
