REMARK  Name = 
REMARK  4 active torsions:
REMARK  status: ('A' for Active; 'I' for Inactive)
REMARK    1  A    between atoms: C_2  and  C_4
REMARK    2  A    between atoms: N_8  and  C_9
REMARK    3  A    between atoms: C_9  and  C_10
REMARK    4  A    between atoms: C_15  and  N_16
REMARK                            x       y       z     vdW  Elec       q    Type
REMARK                         _______ _______ _______ _____ _____    ______ ____
ROOT
ATOM      1  C   UNL     1       5.539  -5.573   1.891  0.00  0.00    +0.000 C 
ENDROOT
BRANCH   1   6
ATOM      2  C   UNL     1       7.888  -1.890  -0.821  0.00  0.00    +0.000 A 
ATOM      3  C   UNL     1       7.236  -3.028  -1.280  0.00  0.00    +0.000 A 
ATOM      4  C   UNL     1       6.528  -3.821  -0.374  0.00  0.00    +0.000 A 
ATOM      5  C   UNL     1       6.495  -3.472   0.972  0.00  0.00    +0.000 A 
ATOM      6  N   UNL     1       5.762  -4.145   1.921  0.00  0.00    +0.000 N 
ATOM      7  N   UNL     1       7.136  -2.378   1.429  0.00  0.00    +0.000 NA
ATOM      8  C   UNL     1       7.824  -1.618   0.536  0.00  0.00    +0.000 A 
ATOM      9  H   UNL     1       5.949  -3.745   2.836  0.00  0.00    +0.000 HD
BRANCH   2  11
ATOM     10  N   UNL     1       8.264  -0.927  -3.020  0.00  0.00    +0.000 N 
ATOM     11  C   UNL     1       8.637  -0.974  -1.704  0.00  0.00    +0.000 C 
ATOM     12  O   UNL     1       9.534  -0.258  -1.275  0.00  0.00    +0.000 OA
ATOM     13  H   UNL     1       8.713  -0.219  -3.586  0.00  0.00    +0.000 HD
ATOM     14  H   UNL     1       7.380  -1.292  -3.347  0.00  0.00    +0.000 HD
ENDBRANCH   2  11
ENDBRANCH   1   6
BRANCH   1  15
ATOM     15  C   UNL     1       6.630  -6.416   2.514  0.00  0.00    +0.000 A 
ATOM     16  C   UNL     1       7.777  -5.903   3.124  0.00  0.00    +0.000 A 
ATOM     17  C   UNL     1       8.694  -6.771   3.708  0.00  0.00    +0.000 A 
ATOM     18  F   UNL     1       9.778  -6.269   4.315  0.00  0.00    +0.000 F 
ATOM     19  C   UNL     1       8.491  -8.148   3.707  0.00  0.00    +0.000 A 
ATOM     20  C   UNL     1       7.346  -8.703   3.126  0.00  0.00    +0.000 A 
ATOM     21  C   UNL     1       6.441  -7.816   2.521  0.00  0.00    +0.000 A 
BRANCH  20  22
ATOM     22  N   UNL     1       7.109 -10.074   3.238  0.00  0.00    +0.000 N 
ATOM     23  C   UNL     1       5.722 -10.549   3.212  0.00  0.00    +0.000 C 
ATOM     24  C   UNL     1       5.654 -11.899   3.920  0.00  0.00    +0.000 C 
ATOM     25  C   UNL     1       6.613 -12.903   3.284  0.00  0.00    +0.000 C 
ATOM     26  C   UNL     1       8.031 -12.339   3.197  0.00  0.00    +0.000 C 
ATOM     27  C   UNL     1       8.062 -10.953   2.545  0.00  0.00    +0.000 C 
ENDBRANCH  20  22
ENDBRANCH   1  15
TORSDOF 4
