REMARK  Name = 
REMARK  5 active torsions:
REMARK  status: ('A' for Active; 'I' for Inactive)
REMARK    1  A    between atoms: C_2  and  C_4
REMARK    2  A    between atoms: N_8  and  C_9
REMARK    3  A    between atoms: C_9  and  C_10
REMARK    4  A    between atoms: C_10  and  C_13
REMARK    5  A    between atoms: C_17  and  C_18
REMARK                            x       y       z     vdW  Elec       q    Type
REMARK                         _______ _______ _______ _____ _____    ______ ____
ROOT
ATOM      1  C   UNL     1       6.189   1.576   6.929  0.00  0.00    +0.000 C 
ATOM      2  F   UNL     1       7.421   1.171   6.495  0.00  0.00    +0.000 F 
ATOM      3  F   UNL     1       6.240   2.940   6.947  0.00  0.00    +0.000 F 
ENDROOT
BRANCH   1   4
ATOM      4  C   UNL     1       5.847   1.003   8.293  0.00  0.00    +0.000 A 
ATOM      5  C   UNL     1       5.056   1.722   9.198  0.00  0.00    +0.000 A 
ATOM      6  C   UNL     1       4.697   1.157  10.419  0.00  0.00    +0.000 A 
ATOM      7  C   UNL     1       5.102  -0.141  10.734  0.00  0.00    +0.000 A 
ATOM      8  C   UNL     1       5.872  -0.906   9.839  0.00  0.00    +0.000 A 
ATOM      9  C   UNL     1       6.259  -0.295   8.632  0.00  0.00    +0.000 A 
BRANCH   8  10
ATOM     10  C   UNL     1       6.223  -2.310  10.130  0.00  0.00    +0.000 A 
ATOM     11  C   UNL     1       7.418  -2.893   9.686  0.00  0.00    +0.000 A 
ATOM     12  C   UNL     1       7.702  -4.229   9.964  0.00  0.00    +0.000 A 
ATOM     13  C   UNL     1       6.780  -4.959  10.691  0.00  0.00    +0.000 A 
ATOM     14  N   UNL     1       5.612  -4.456  11.133  0.00  0.00    +0.000 NA
ATOM     15  C   UNL     1       5.363  -3.157  10.837  0.00  0.00    +0.000 A 
ENDBRANCH   8  10
ENDBRANCH   1   4
BRANCH   1  16
ATOM     16  C   UNL     1       5.131   1.119   5.889  0.00  0.00    +0.000 C 
BRANCH  16  21
ATOM     17  C   UNL     1       2.920   0.850   1.299  0.00  0.00    +0.000 A 
ATOM     18  C   UNL     1       2.353   0.784   2.565  0.00  0.00    +0.000 A 
ATOM     19  C   UNL     1       3.150   1.043   3.680  0.00  0.00    +0.000 A 
ATOM     20  C   UNL     1       4.496   1.359   3.516  0.00  0.00    +0.000 A 
ATOM     21  N   UNL     1       5.308   1.735   4.568  0.00  0.00    +0.000 N 
ATOM     22  N   UNL     1       5.062   1.393   2.294  0.00  0.00    +0.000 NA
ATOM     23  C   UNL     1       4.275   1.126   1.216  0.00  0.00    +0.000 A 
ATOM     24  H   UNL     1       6.269   1.826   4.242  0.00  0.00    +0.000 HD
BRANCH  17  26
ATOM     25  N   UNL     1       0.802   0.919   0.113  0.00  0.00    +0.000 N 
ATOM     26  C   UNL     1       2.140   0.624   0.065  0.00  0.00    +0.000 C 
ATOM     27  O   UNL     1       2.665   0.215  -0.957  0.00  0.00    +0.000 OA
ATOM     28  H   UNL     1       0.297   0.851  -0.761  0.00  0.00    +0.000 HD
ATOM     29  H   UNL     1       0.403   1.498   0.838  0.00  0.00    +0.000 HD
ENDBRANCH  17  26
ENDBRANCH  16  21
ENDBRANCH   1  16
TORSDOF 5
