REMARK  Name = 
REMARK  7 active torsions:
REMARK  status: ('A' for Active; 'I' for Inactive)
REMARK    1  A    between atoms: C_1  and  C_2
REMARK    2  A    between atoms: C_2  and  N_3
REMARK    3  A    between atoms: C_2  and  C_16
REMARK    4  A    between atoms: C_4  and  C_6
REMARK    5  A    between atoms: C_19  and  C_20
REMARK    6  A    between atoms: C_20  and  N_21
REMARK    7  A    between atoms: C_22  and  C_24
REMARK                            x       y       z     vdW  Elec       q    Type
REMARK                         _______ _______ _______ _____ _____    ______ ____
ROOT
ATOM      1  C   UNL     1       3.653  -0.754  -0.822  0.00  0.00    +0.000 C 
ATOM      2  C   UNL     1       2.473  -0.059  -0.135  0.00  0.00    +0.000 C 
ENDROOT
BRANCH   2   3
ATOM      3  C   UNL     1       2.881   0.449   1.246  0.00  0.00    +0.000 A 
ATOM      4  C   UNL     1       2.864   1.818   1.544  0.00  0.00    +0.000 A 
ATOM      5  C   UNL     1       3.201   2.276   2.826  0.00  0.00    +0.000 A 
ATOM      6  C   UNL     1       3.568   1.378   3.838  0.00  0.00    +0.000 A 
ATOM      7  C   UNL     1       3.575   0.009   3.546  0.00  0.00    +0.000 A 
ATOM      8  C   UNL     1       3.243  -0.448   2.266  0.00  0.00    +0.000 A 
BRANCH   6   9
ATOM      9  C   UNL     1       3.926   1.865   5.221  0.00  0.00    +0.000 C 
BRANCH   9  10
ATOM     10  N   UNL     1       2.765   1.957   6.072  0.00  0.00    +0.000 N 
ATOM     11  C   UNL     1       2.871   2.309   7.398  0.00  0.00    +0.000 C 
ATOM     12  O   UNL     1       3.949   2.537   7.935  0.00  0.00    +0.000 OA
ATOM     13  H   UNL     1       1.855   1.859   5.651  0.00  0.00    +0.000 HD
BRANCH  11  14
ATOM     14  C   UNL     1       1.613   2.400   8.113  0.00  0.00    +0.000 A 
ATOM     15  C   UNL     1       0.303   2.159   7.723  0.00  0.00    +0.000 A 
ATOM     16  C   UNL     1      -0.545   2.405   8.830  0.00  0.00    +0.000 A 
ATOM     17  C   UNL     1       0.256   2.789   9.879  0.00  0.00    +0.000 A 
ATOM     18  N   UNL     1       1.554   2.778   9.442  0.00  0.00    +0.000 N 
ATOM     19  H   UNL     1       2.369   3.011   9.997  0.00  0.00    +0.000 HD
ENDBRANCH  11  14
ENDBRANCH   9  10
ENDBRANCH   6   9
ENDBRANCH   2   3
BRANCH   2  20
ATOM     20  N   UNL     1       1.322  -0.935   0.016  0.00  0.00    +0.000 N 
ATOM     21  C   UNL     1       0.660  -1.534  -1.025  0.00  0.00    +0.000 C 
ATOM     22  O   UNL     1       1.005  -1.419  -2.196  0.00  0.00    +0.000 OA
ATOM     23  H   UNL     1       0.801  -0.802   0.877  0.00  0.00    +0.000 HD
BRANCH  21  24
ATOM     24  C   UNL     1      -0.457  -2.404  -0.639  0.00  0.00    +0.000 A 
ATOM     25  C   UNL     1      -0.799  -3.493  -1.429  0.00  0.00    +0.000 A 
ATOM     26  S   UNL     1      -2.073  -4.427  -0.784  0.00  0.00    +0.000 S 
ATOM     27  C   UNL     1      -2.246  -3.377   0.545  0.00  0.00    +0.000 A 
ATOM     28  N   UNL     1      -3.196  -3.594   1.494  0.00  0.00    +0.000 NA
ATOM     29  C   UNL     1      -3.236  -2.699   2.425  0.00  0.00    +0.000 A 
ATOM     30  N   UNL     1      -2.409  -1.608   2.494  0.00  0.00    +0.000 N 
ATOM     31  C   UNL     1      -1.417  -1.367   1.576  0.00  0.00    +0.000 A 
ATOM     32  O   UNL     1      -0.660  -0.409   1.694  0.00  0.00    +0.000 OA
ATOM     33  C   UNL     1      -1.336  -2.338   0.503  0.00  0.00    +0.000 A 
ATOM     34  H   UNL     1      -2.484  -0.945   3.252  0.00  0.00    +0.000 HD
ENDBRANCH  21  24
ENDBRANCH   2  20
TORSDOF 6
