REMARK  Name = 
REMARK  8 active torsions:
REMARK  status: ('A' for Active; 'I' for Inactive)
REMARK    1  A    between atoms: C_1  and  N_2
REMARK    2  A    between atoms: C_5  and  N_6
REMARK    3  A    between atoms: N_6  and  C_7
REMARK    4  A    between atoms: C_7  and  C_8
REMARK    5  A    between atoms: C_11  and  C_12
REMARK    6  A    between atoms: C_12  and  N_13
REMARK    7  A    between atoms: N_13  and  C_14
REMARK    8  A    between atoms: C_15  and  C_17
REMARK                            x       y       z     vdW  Elec       q    Type
REMARK                         _______ _______ _______ _____ _____    ______ ____
ROOT
ATOM      1  C   UNL     1       5.281   3.373  -6.340  0.00  0.00    +0.000 C 
ENDROOT
BRANCH   1   5
ATOM      2  C   UNL     1       4.090   1.420  -2.668  0.00  0.00    +0.000 A 
ATOM      3  C   UNL     1       4.177   2.817  -2.738  0.00  0.00    +0.000 A 
ATOM      4  C   UNL     1       4.627   3.443  -3.900  0.00  0.00    +0.000 A 
ATOM      5  C   UNL     1       5.014   2.689  -5.017  0.00  0.00    +0.000 A 
ATOM      6  C   UNL     1       5.039   1.293  -4.907  0.00  0.00    +0.000 A 
ATOM      7  C   UNL     1       4.576   0.665  -3.744  0.00  0.00    +0.000 A 
BRANCH   2   8
ATOM      8  C   UNL     1       3.484   0.754  -1.454  0.00  0.00    +0.000 C 
BRANCH   8   9
ATOM      9  N   UNL     1       2.090   1.165  -1.251  0.00  0.00    +0.000 NA
ATOM     10  H   UNL     1       2.050   2.181  -1.169  0.00  0.00    +0.000 HD
BRANCH   9  15
ATOM     11  C   UNL     1       1.499   2.386   3.194  0.00  0.00    +0.000 C 
ATOM     12  N   UNL     1       1.265   2.095   1.789  0.00  0.00    +0.000 NA
ATOM     13  C   UNL     1      -0.089   1.614   1.521  0.00  0.00    +0.000 C 
ATOM     14  C   UNL     1       0.026   1.070   0.102  0.00  0.00    +0.000 C 
ATOM     15  C   UNL     1       1.487   0.593  -0.037  0.00  0.00    +0.000 C 
ATOM     16  C   UNL     1       2.138   1.030   1.293  0.00  0.00    +0.000 C 
ENDBRANCH   9  15
ENDBRANCH   8   9
ENDBRANCH   2   8
ENDBRANCH   1   5
BRANCH   1  17
ATOM     17  N   UNL     1       6.660   3.769  -6.634  0.00  0.00    +0.000 N 
ATOM     18  C   UNL     1       7.516   4.175  -5.535  0.00  0.00    +0.000 C 
ATOM     19  C   UNL     1       6.955   3.998  -7.996  0.00  0.00    +0.000 C 
ATOM     20  O   UNL     1       6.109   3.817  -8.872  0.00  0.00    +0.000 OA
BRANCH  19  21
ATOM     21  C   UNL     1       8.319   4.411  -8.364  0.00  0.00    +0.000 A 
ATOM     22  C   UNL     1       9.471   3.925  -7.769  0.00  0.00    +0.000 A 
ATOM     23  S   UNL     1      10.912   4.570  -8.411  0.00  0.00    +0.000 S 
ATOM     24  C   UNL     1      10.052   5.406  -9.624  0.00  0.00    +0.000 A 
ATOM     25  N   UNL     1      10.713   6.088 -10.587  0.00  0.00    +0.000 NA
ATOM     26  C   UNL     1       9.941   6.633 -11.473  0.00  0.00    +0.000 A 
ATOM     27  N   UNL     1       8.572   6.577 -11.453  0.00  0.00    +0.000 N 
ATOM     28  C   UNL     1       7.856   6.001 -10.421  0.00  0.00    +0.000 A 
ATOM     29  O   UNL     1       6.644   6.175 -10.327  0.00  0.00    +0.000 OA
ATOM     30  C   UNL     1       8.681   5.276  -9.471  0.00  0.00    +0.000 A 
ATOM     31  H   UNL     1       8.027   7.080 -12.138  0.00  0.00    +0.000 HD
ENDBRANCH  19  21
ENDBRANCH   1  17
TORSDOF 6
