REMARK  Name = 
REMARK  7 active torsions:
REMARK  status: ('A' for Active; 'I' for Inactive)
REMARK    1  A    between atoms: C_1  and  C_2
REMARK    2  A    between atoms: C_2  and  N_3
REMARK    3  A    between atoms: C_2  and  C_17
REMARK    4  A    between atoms: C_4  and  C_6
REMARK    5  A    between atoms: N_12  and  C_13
REMARK    6  A    between atoms: C_20  and  O_21
REMARK    7  A    between atoms: O_21  and  C_22
REMARK                            x       y       z     vdW  Elec       q    Type
REMARK                         _______ _______ _______ _____ _____    ______ ____
ROOT
ATOM      1  C   UNL     1       3.137  -0.196  -1.525  0.00  0.00    +0.000 C 
ATOM      2  C   UNL     1       2.645   0.051  -0.098  0.00  0.00    +0.000 C 
ENDROOT
BRANCH   2   3
ATOM      3  C   UNL     1       3.151   1.355   0.507  0.00  0.00    +0.000 A 
ATOM      4  C   UNL     1       3.428   1.412   1.884  0.00  0.00    +0.000 A 
ATOM      5  C   UNL     1       3.741   2.627   2.504  0.00  0.00    +0.000 A 
ATOM      6  C   UNL     1       3.826   3.800   1.751  0.00  0.00    +0.000 A 
ATOM      7  C   UNL     1       3.553   3.755   0.384  0.00  0.00    +0.000 A 
ATOM      8  C   UNL     1       3.216   2.547  -0.231  0.00  0.00    +0.000 A 
BRANCH   6   9
ATOM      9  O   UNL     1       4.069   5.054   2.263  0.00  0.00    +0.000 OA
BRANCH   9  10
ATOM     10  C   UNL     1       4.888   5.208   3.350  0.00  0.00    +0.000 A 
ATOM     11  C   UNL     1       6.011   4.429   3.614  0.00  0.00    +0.000 A 
ATOM     12  C   UNL     1       6.759   4.675   4.761  0.00  0.00    +0.000 A 
ATOM     13  C   UNL     1       6.380   5.724   5.583  0.00  0.00    +0.000 A 
ATOM     14  N   UNL     1       5.329   6.535   5.331  0.00  0.00    +0.000 NA
ATOM     15  C   UNL     1       4.612   6.260   4.216  0.00  0.00    +0.000 A 
ENDBRANCH   9  10
ENDBRANCH   6   9
ENDBRANCH   2   3
BRANCH   2  16
ATOM     16  N   UNL     1       1.193   0.053  -0.040  0.00  0.00    +0.000 N 
ATOM     17  C   UNL     1       0.437  -1.089  -0.028  0.00  0.00    +0.000 C 
ATOM     18  O   UNL     1       0.925  -2.201  -0.206  0.00  0.00    +0.000 OA
ATOM     19  H   UNL     1       0.764   0.926   0.252  0.00  0.00    +0.000 HD
BRANCH  17  20
ATOM     20  C   UNL     1      -1.007  -0.912   0.188  0.00  0.00    +0.000 A 
ATOM     21  C   UNL     1      -1.901  -1.865  -0.280  0.00  0.00    +0.000 A 
ATOM     22  S   UNL     1      -3.529  -1.510   0.087  0.00  0.00    +0.000 S 
ATOM     23  C   UNL     1      -3.091  -0.096   0.927  0.00  0.00    +0.000 A 
ATOM     24  N   UNL     1      -4.025   0.664   1.554  0.00  0.00    +0.000 NA
ATOM     25  C   UNL     1      -3.546   1.677   2.202  0.00  0.00    +0.000 A 
ATOM     26  N   UNL     1      -2.214   2.028   2.265  0.00  0.00    +0.000 N 
ATOM     27  C   UNL     1      -1.779   3.181   3.024  0.00  0.00    +0.000 C 
ATOM     28  C   UNL     1      -1.243   1.311   1.577  0.00  0.00    +0.000 A 
ATOM     29  O   UNL     1      -0.070   1.665   1.530  0.00  0.00    +0.000 OA
ATOM     30  C   UNL     1      -1.729   0.127   0.889  0.00  0.00    +0.000 A 
ENDBRANCH  17  20
ENDBRANCH   2  16
TORSDOF 5
