REMARK  Name = 
REMARK  6 active torsions:
REMARK  status: ('A' for Active; 'I' for Inactive)
REMARK    1  A    between atoms: C_1  and  C_2
REMARK    2  A    between atoms: N_6  and  C_7
REMARK    3  A    between atoms: C_7  and  C_8
REMARK    4  A    between atoms: C_8  and  C_11
REMARK    5  A    between atoms: C_15  and  N_16
REMARK    6  A    between atoms: N_16  and  C_17
REMARK                            x       y       z     vdW  Elec       q    Type
REMARK                         _______ _______ _______ _____ _____    ______ ____
ROOT
ATOM      1  C   UNL     1       6.052  -2.417  -0.025  0.00  0.00    +0.000 A 
ATOM      2  C   UNL     1       7.441  -2.360   0.170  0.00  0.00    +0.000 A 
ATOM      3  C   UNL     1       8.199  -3.529   0.260  0.00  0.00    +0.000 A 
ATOM      4  C   UNL     1       7.585  -4.778   0.147  0.00  0.00    +0.000 A 
ATOM      5  C   UNL     1       6.208  -4.865  -0.048  0.00  0.00    +0.000 A 
ATOM      6  C   UNL     1       5.455  -3.683  -0.129  0.00  0.00    +0.000 A 
ENDROOT
BRANCH   1   7
ATOM      7  C   UNL     1       5.275  -1.109  -0.084  0.00  0.00    +0.000 C 
ATOM      8  F   UNL     1       5.746  -0.309  -1.094  0.00  0.00    +0.000 F 
ATOM      9  F   UNL     1       5.486  -0.386   1.061  0.00  0.00    +0.000 F 
BRANCH   7  10
ATOM     10  C   UNL     1       3.744  -1.251  -0.289  0.00  0.00    +0.000 C 
BRANCH  10  16
ATOM     11  C   UNL     1      -2.521  -0.013  -0.856  0.00  0.00    +0.000 C 
ATOM     12  C   UNL     1      -1.039  -0.041  -0.724  0.00  0.00    +0.000 A 
ATOM     13  C   UNL     1      -0.346  -1.126  -0.240  0.00  0.00    +0.000 A 
ATOM     14  N   UNL     1       0.992  -1.153  -0.083  0.00  0.00    +0.000 NA
ATOM     15  C   UNL     1       1.667  -0.042  -0.415  0.00  0.00    +0.000 A 
ATOM     16  N   UNL     1       3.033   0.027  -0.216  0.00  0.00    +0.000 N 
ATOM     17  N   UNL     1       1.093   1.053  -0.925  0.00  0.00    +0.000 NA
ATOM     18  C   UNL     1      -0.247   1.033  -1.065  0.00  0.00    +0.000 A 
ATOM     19  H   UNL     1       3.401   0.783  -0.784  0.00  0.00    +0.000 HD
ENDBRANCH  10  16
ENDBRANCH   7  10
ENDBRANCH   1   7
BRANCH   5  20
ATOM     20  N   UNL     1       5.505  -6.086  -0.142  0.00  0.00    +0.000 N 
ATOM     21  H   UNL     1       4.856  -6.145   0.643  0.00  0.00    +0.000 HD
BRANCH  20  22
ATOM     22  C   UNL     1       6.076  -7.370  -0.460  0.00  0.00    +0.000 C 
ATOM     23  C   UNL     1       6.530  -7.510  -1.929  0.00  0.00    +0.000 C 
ATOM     24  N   UNL     1       5.730  -8.721  -1.971  0.00  0.00    +0.000 N 
ATOM     25  C   UNL     1       5.882  -9.835  -2.724  0.00  0.00    +0.000 C 
ATOM     26  N   UNL     1       5.012 -10.838  -2.440  0.00  0.00    +0.000 N 
ATOM     27  O   UNL     1       6.729  -9.973  -3.595  0.00  0.00    +0.000 OA
ATOM     28  C   UNL     1       4.981  -8.418  -0.772  0.00  0.00    +0.000 C 
ATOM     29  H   UNL     1       4.083 -10.569  -2.154  0.00  0.00    +0.000 HD
ATOM     30  H   UNL     1       5.059 -11.608  -3.096  0.00  0.00    +0.000 HD
ENDBRANCH  20  22
ENDBRANCH   5  20
TORSDOF 5
