REMARK  Name = 
REMARK  5 active torsions:
REMARK  status: ('A' for Active; 'I' for Inactive)
REMARK    1  A    between atoms: C_2  and  C_3
REMARK    2  A    between atoms: C_6  and  N_7
REMARK    3  A    between atoms: N_7  and  C_8
REMARK    4  A    between atoms: C_8  and  C_9
REMARK    5  A    between atoms: C_13  and  C_14
REMARK                            x       y       z     vdW  Elec       q    Type
REMARK                         _______ _______ _______ _____ _____    ______ ____
ROOT
ATOM      1  C   UNL     1       8.673  -0.867  -0.539  0.00  0.00    +0.000 C 
ATOM      2  C   UNL     1       8.463  -1.650  -1.829  0.00  0.00    +0.000 C 
ATOM      3  C   UNL     1       9.064  -2.324  -0.642  0.00  0.00    +0.000 C 
ENDROOT
BRANCH   1   4
ATOM      4  C   UNL     1       9.744   0.219  -0.506  0.00  0.00    +0.000 A 
ATOM      5  C   UNL     1       9.765   1.233  -1.477  0.00  0.00    +0.000 A 
ATOM      6  C   UNL     1      10.550   2.370  -1.309  0.00  0.00    +0.000 A 
ATOM      7  C   UNL     1      11.353   2.502  -0.176  0.00  0.00    +0.000 A 
ATOM      8  C   UNL     1      11.421   1.487   0.788  0.00  0.00    +0.000 A 
ATOM      9  C   UNL     1      10.611   0.350   0.594  0.00  0.00    +0.000 A 
BRANCH   8  10
ATOM     10  C   UNL     1      12.283   1.616   1.991  0.00  0.00    +0.000 A 
ATOM     11  C   UNL     1      12.457   2.854   2.637  0.00  0.00    +0.000 A 
ATOM     12  C   UNL     1      13.285   2.982   3.761  0.00  0.00    +0.000 A 
ATOM     13  C   UNL     1      13.948   1.871   4.263  0.00  0.00    +0.000 A 
ATOM     14  C   UNL     1      13.782   0.635   3.649  0.00  0.00    +0.000 A 
ATOM     15 CL   UNL     1      14.588  -0.748   4.276  0.00  0.00    +0.000 Cl
ATOM     16  C   UNL     1      12.965   0.508   2.522  0.00  0.00    +0.000 A 
ENDBRANCH   8  10
ENDBRANCH   1   4
BRANCH   1  17
ATOM     17  N   UNL     1       7.425  -0.392   0.075  0.00  0.00    +0.000 N 
ATOM     18  H   UNL     1       7.139   0.548  -0.200  0.00  0.00    +0.000 HD
BRANCH  17  22
ATOM     19  C   UNL     1       5.988  -0.786   3.881  0.00  0.00    +0.000 A 
ATOM     20  C   UNL     1       5.734   0.328   3.100  0.00  0.00    +0.000 A 
ATOM     21  N   UNL     1       6.267   0.484   1.866  0.00  0.00    +0.000 NA
ATOM     22  C   UNL     1       7.071  -0.506   1.415  0.00  0.00    +0.000 A 
ATOM     23  C   UNL     1       7.361  -1.595   2.237  0.00  0.00    +0.000 A 
ATOM     24  N   UNL     1       6.828  -1.765   3.479  0.00  0.00    +0.000 NA
BRANCH  19  26
ATOM     25  N   UNL     1       4.714  -1.072   6.127  0.00  0.00    +0.000 NA
ATOM     26  C   UNL     1       5.308  -0.964   5.136  0.00  0.00    +0.000 C 
ENDBRANCH  19  26
ENDBRANCH  17  22
ENDBRANCH   1  17
TORSDOF 5
