REMARK  Name = 
REMARK  7 active torsions:
REMARK  status: ('A' for Active; 'I' for Inactive)
REMARK    1  A    between atoms: C_1  and  O_2
REMARK    2  A    between atoms: O_2  and  C_3
REMARK    3  A    between atoms: C_8  and  C_9
REMARK    4  A    between atoms: C_9  and  C_10
REMARK    5  A    between atoms: C_13  and  C_14
REMARK    6  A    between atoms: C_14  and  N_15
REMARK    7  A    between atoms: C_16  and  C_18
REMARK                            x       y       z     vdW  Elec       q    Type
REMARK                         _______ _______ _______ _____ _____    ______ ____
ROOT
ATOM      1  C   UNL     1       0.442  -3.178   3.144  0.00  0.00    +0.000 C 
ENDROOT
BRANCH   1   5
ATOM      2  C   UNL     1       3.417  -2.273   0.142  0.00  0.00    +0.000 A 
ATOM      3  C   UNL     1       2.103  -2.583  -0.230  0.00  0.00    +0.000 A 
ATOM      4  C   UNL     1       1.152  -2.931   0.734  0.00  0.00    +0.000 A 
ATOM      5  C   UNL     1       1.494  -2.958   2.092  0.00  0.00    +0.000 A 
ATOM      6  C   UNL     1       2.828  -2.734   2.456  0.00  0.00    +0.000 A 
ATOM      7  C   UNL     1       3.779  -2.389   1.491  0.00  0.00    +0.000 A 
BRANCH   2   8
ATOM      8  C   UNL     1       4.410  -1.793  -0.893  0.00  0.00    +0.000 C 
BRANCH   8  14
ATOM      9  C   UNL     1       3.774   0.450  -1.962  0.00  0.00    +0.000 A 
ATOM     10  C   UNL     1       3.965   1.835  -2.069  0.00  0.00    +0.000 A 
ATOM     11  C   UNL     1       4.887   2.494  -1.254  0.00  0.00    +0.000 A 
ATOM     12  C   UNL     1       5.611   1.780  -0.307  0.00  0.00    +0.000 A 
ATOM     13  C   UNL     1       5.425   0.403  -0.186  0.00  0.00    +0.000 A 
ATOM     14  C   UNL     1       4.520  -0.283  -1.018  0.00  0.00    +0.000 A 
BRANCH   9  16
ATOM     15  C   UNL     1       2.384   0.384  -3.893  0.00  0.00    +0.000 C 
ATOM     16  O   UNL     1       2.879  -0.259  -2.723  0.00  0.00    +0.000 OA
ENDBRANCH   9  16
ENDBRANCH   8  14
ENDBRANCH   2   8
ENDBRANCH   1   5
BRANCH   1  17
ATOM     17  N   UNL     1       0.282  -4.566   3.483  0.00  0.00    +0.000 N 
ATOM     18  C   UNL     1      -0.708  -4.957   4.350  0.00  0.00    +0.000 C 
ATOM     19  O   UNL     1      -1.525  -4.160   4.806  0.00  0.00    +0.000 OA
ATOM     20  H   UNL     1       1.068  -5.183   3.304  0.00  0.00    +0.000 HD
BRANCH  18  21
ATOM     21  C   UNL     1      -0.788  -6.389   4.662  0.00  0.00    +0.000 A 
ATOM     22  C   UNL     1      -1.984  -6.923   5.123  0.00  0.00    +0.000 A 
ATOM     23  S   UNL     1      -1.927  -8.607   5.383  0.00  0.00    +0.000 S 
ATOM     24  C   UNL     1      -0.284  -8.673   4.944  0.00  0.00    +0.000 A 
ATOM     25  N   UNL     1       0.399  -9.848   4.971  0.00  0.00    +0.000 NA
ATOM     26  C   UNL     1       1.646  -9.747   4.650  0.00  0.00    +0.000 A 
ATOM     27  N   UNL     1       2.270  -8.581   4.299  0.00  0.00    +0.000 N 
ATOM     28  C   UNL     1       1.611  -7.376   4.229  0.00  0.00    +0.000 A 
ATOM     29  O   UNL     1       2.191  -6.354   3.881  0.00  0.00    +0.000 OA
ATOM     30  C   UNL     1       0.209  -7.432   4.589  0.00  0.00    +0.000 A 
ATOM     31  H   UNL     1       3.249  -8.566   4.053  0.00  0.00    +0.000 HD
ENDBRANCH  18  21
ENDBRANCH   1  17
TORSDOF 6
