REMARK  Name = 
REMARK  10 active torsions:
REMARK  status: ('A' for Active; 'I' for Inactive)
REMARK    1  A    between atoms: C_1  and  O_2
REMARK    2  A    between atoms: O_2  and  C_3
REMARK    3  A    between atoms: C_5  and  O_6
REMARK    4  A    between atoms: O_6  and  C_7
REMARK    5  A    between atoms: C_7  and  C_8
REMARK    6  A    between atoms: C_8  and  C_9
REMARK    7  A    between atoms: C_8  and  C_10
REMARK    8  A    between atoms: C_8  and  C_11
REMARK    9  A    between atoms: C_15  and  C_16
REMARK   10  A    between atoms: C_25  and  C_26
REMARK                            x       y       z     vdW  Elec       q    Type
REMARK                         _______ _______ _______ _____ _____    ______ ____
ROOT
ATOM      1  C   UNL     1       2.057  -4.212  -2.424  0.00  0.00    +0.000 C 
ENDROOT
BRANCH   1   2
ATOM      2  C   UNL     1       1.864  -5.467  -3.312  0.00  0.00    +0.000 C 
ATOM      3  C   UNL     1       3.110  -5.677  -4.199  0.00  0.00    +0.000 C 
ATOM      4  C   UNL     1       1.752  -6.695  -2.376  0.00  0.00    +0.000 C 
BRANCH   2   5
ATOM      5  C   UNL     1       0.641  -5.275  -4.234  0.00  0.00    +0.000 A 
ATOM      6  C   UNL     1       0.556  -4.162  -5.089  0.00  0.00    +0.000 A 
ATOM      7  C   UNL     1      -0.504  -4.016  -5.983  0.00  0.00    +0.000 A 
ATOM      8  C   UNL     1      -1.488  -4.998  -6.064  0.00  0.00    +0.000 A 
ATOM      9  C   UNL     1      -1.435  -6.143  -5.256  0.00  0.00    +0.000 A 
ATOM     10  C   UNL     1      -0.384  -6.236  -4.322  0.00  0.00    +0.000 A 
BRANCH   9  11
ATOM     11  C   UNL     1      -2.375  -7.269  -5.446  0.00  0.00    +0.000 A 
ATOM     12  C   UNL     1      -2.765  -7.663  -6.734  0.00  0.00    +0.000 A 
ATOM     13  C   UNL     1      -3.580  -8.772  -6.891  0.00  0.00    +0.000 A 
ATOM     14  N   UNL     1      -4.031  -9.522  -5.867  0.00  0.00    +0.000 NA
ATOM     15  C   UNL     1      -3.653  -9.139  -4.631  0.00  0.00    +0.000 A 
ATOM     16  C   UNL     1      -2.849  -8.037  -4.373  0.00  0.00    +0.000 A 
ENDBRANCH   9  11
ENDBRANCH   2   5
ENDBRANCH   1   2
BRANCH   1  17
ATOM     17  O   UNL     1       3.208  -4.349  -1.579  0.00  0.00    +0.000 OA
BRANCH  17  20
ATOM     18  C   UNL     1       3.061  -1.093   0.216  0.00  0.00    +0.000 A 
ATOM     19  C   UNL     1       2.719  -2.124  -0.668  0.00  0.00    +0.000 A 
ATOM     20  C   UNL     1       3.479  -3.295  -0.748  0.00  0.00    +0.000 A 
ATOM     21  C   UNL     1       4.606  -3.438   0.056  0.00  0.00    +0.000 A 
ATOM     22  C   UNL     1       4.959  -2.421   0.945  0.00  0.00    +0.000 A 
ATOM     23  C   UNL     1       4.188  -1.247   1.044  0.00  0.00    +0.000 A 
BRANCH  23  24
ATOM     24  C   UNL     1       4.619  -0.251   2.076  0.00  0.00    +0.000 C 
ATOM     25  N   UNL     1       3.845   0.853   2.267  0.00  0.00    +0.000 N 
ATOM     26  O   UNL     1       5.624  -0.425   2.755  0.00  0.00    +0.000 OA
ATOM     27  H   UNL     1       3.035   1.042   1.687  0.00  0.00    +0.000 HD
ATOM     28  H   UNL     1       4.121   1.522   2.971  0.00  0.00    +0.000 HD
ENDBRANCH  23  24
BRANCH  18  30
ATOM     29  C   UNL     1       1.022   0.085  -0.218  0.00  0.00    +0.000 C 
ATOM     30  O   UNL     1       2.363   0.091   0.264  0.00  0.00    +0.000 OA
ENDBRANCH  18  30
ENDBRANCH  17  20
ENDBRANCH   1  17
TORSDOF 7
