REMARK  Name = 
REMARK  6 active torsions:
REMARK  status: ('A' for Active; 'I' for Inactive)
REMARK    1  A    between atoms: N_1  and  C_2
REMARK    2  A    between atoms: C_2  and  C_3
REMARK    3  A    between atoms: C_3  and  C_4
REMARK    4  A    between atoms: C_7  and  C_8
REMARK    5  A    between atoms: C_8  and  N_9
REMARK    6  A    between atoms: C_14  and  C_15
REMARK                            x       y       z     vdW  Elec       q    Type
REMARK                         _______ _______ _______ _____ _____    ______ ____
ROOT
ATOM      1  N   UNL     1       9.643  -2.085   0.410  0.00  0.00    +0.000 N 
ATOM      2  N   UNL     1      10.043  -3.289  -0.069  0.00  0.00    +0.000 NA
ATOM      3  C   UNL     1      10.209  -4.012   1.042  0.00  0.00    +0.000 A 
ATOM      4  C   UNL     1       9.997  -3.257   2.217  0.00  0.00    +0.000 A 
ATOM      5  C   UNL     1       9.906  -3.520   3.593  0.00  0.00    +0.000 A 
ATOM      6  C   UNL     1       9.731  -2.445   4.485  0.00  0.00    +0.000 A 
ATOM      7  C   UNL     1       9.778  -1.127   4.009  0.00  0.00    +0.000 A 
ATOM      8  C   UNL     1       9.818  -0.853   2.635  0.00  0.00    +0.000 A 
ATOM      9  C   UNL     1       9.848  -1.950   1.767  0.00  0.00    +0.000 A 
ENDROOT
BRANCH   6  10
ATOM     10  C   UNL     1       9.419  -2.786   5.904  0.00  0.00    +0.000 C 
ATOM     11  N   UNL     1       9.273  -1.775   6.812  0.00  0.00    +0.000 N 
ATOM     12  O   UNL     1       9.249  -3.947   6.259  0.00  0.00    +0.000 OA
ATOM     13  H   UNL     1       9.376  -0.793   6.620  0.00  0.00    +0.000 HD
ATOM     14  H   UNL     1       8.993  -2.048   7.745  0.00  0.00    +0.000 HD
ENDBRANCH   6  10
BRANCH   1  15
ATOM     15  C   UNL     1       8.842  -1.202  -0.435  0.00  0.00    +0.000 C 
BRANCH  15  19
ATOM     16  C   UNL     1       4.622  -2.056   0.236  0.00  0.00    +0.000 A 
ATOM     17  C   UNL     1       5.251  -0.983   0.894  0.00  0.00    +0.000 A 
ATOM     18  C   UNL     1       6.598  -0.690   0.658  0.00  0.00    +0.000 A 
ATOM     19  C   UNL     1       7.357  -1.456  -0.241  0.00  0.00    +0.000 A 
ATOM     20  C   UNL     1       6.719  -2.510  -0.911  0.00  0.00    +0.000 A 
ATOM     21  C   UNL     1       5.370  -2.800  -0.679  0.00  0.00    +0.000 A 
BRANCH  16  22
ATOM     22  C   UNL     1       3.183  -2.412   0.536  0.00  0.00    +0.000 C 
BRANCH  22  23
ATOM     23  C   UNL     1       2.177  -1.696  -0.371  0.00  0.00    +0.000 C 
BRANCH  23  24
ATOM     24  N   UNL     1       0.802  -2.095  -0.052  0.00  0.00    +0.000 NA
ATOM     25  H   UNL     1       0.154  -1.601  -0.665  0.00  0.00    +0.000 HD
ATOM     26  H   UNL     1       0.570  -1.809   0.898  0.00  0.00    +0.000 HD
ENDBRANCH  23  24
ENDBRANCH  22  23
ENDBRANCH  16  22
ENDBRANCH  15  19
ENDBRANCH   1  15
TORSDOF 6
