REMARK  Name = 
REMARK  4 active torsions:
REMARK  status: ('A' for Active; 'I' for Inactive)
REMARK    1  A    between atoms: C_2  and  C_4
REMARK    2  A    between atoms: C_7  and  N_8
REMARK    3  A    between atoms: N_8  and  C_9
REMARK    4  A    between atoms: C_9  and  C_10
REMARK                            x       y       z     vdW  Elec       q    Type
REMARK                         _______ _______ _______ _____ _____    ______ ____
ROOT
ATOM      1  N   UNL     1       3.798   3.478  -3.615  0.00  0.00    +0.000 N 
ATOM      2  H   UNL     1       3.609   3.008  -4.502  0.00  0.00    +0.000 HD
ENDROOT
BRANCH   1   6
ATOM      3  C   UNL     1       4.643   0.211  -1.207  0.00  0.00    +0.000 A 
ATOM      4  C   UNL     1       3.325   0.472  -1.544  0.00  0.00    +0.000 A 
ATOM      5  C   UNL     1       3.062   1.627  -2.278  0.00  0.00    +0.000 A 
ATOM      6  C   UNL     1       4.098   2.490  -2.655  0.00  0.00    +0.000 A 
ATOM      7  C   UNL     1       5.370   2.173  -2.187  0.00  0.00    +0.000 A 
ATOM      8  N   UNL     1       5.677   1.056  -1.474  0.00  0.00    +0.000 NA
BRANCH   3  10
ATOM      9  N   UNL     1       6.324  -1.303  -0.334  0.00  0.00    +0.000 N 
ATOM     10  C   UNL     1       5.000  -1.122  -0.621  0.00  0.00    +0.000 C 
ATOM     11  O   UNL     1       4.175  -2.015  -0.453  0.00  0.00    +0.000 OA
ATOM     12  H   UNL     1       6.651  -2.224  -0.085  0.00  0.00    +0.000 HD
ATOM     13  H   UNL     1       6.984  -0.577  -0.593  0.00  0.00    +0.000 HD
ENDBRANCH   3  10
ENDBRANCH   1   6
BRANCH   1  14
ATOM     14  C   UNL     1       4.525   4.751  -3.780  0.00  0.00    +0.000 C 
ATOM     15  C   UNL     1       4.397   5.867  -2.762  0.00  0.00    +0.000 C 
ATOM     16  C   UNL     1       3.598   5.947  -4.018  0.00  0.00    +0.000 C 
BRANCH  14  17
ATOM     17  C   UNL     1       5.785   4.736  -4.649  0.00  0.00    +0.000 A 
ATOM     18  C   UNL     1       5.704   4.744  -6.053  0.00  0.00    +0.000 A 
ATOM     19  C   UNL     1       6.823   5.026  -6.844  0.00  0.00    +0.000 A 
ATOM     20  C   UNL     1       8.060   5.273  -6.246  0.00  0.00    +0.000 A 
ATOM     21 CL   UNL     1       9.364   5.769  -7.263  0.00  0.00    +0.000 Cl
ATOM     22  C   UNL     1       8.189   5.166  -4.861  0.00  0.00    +0.000 A 
ATOM     23 CL   UNL     1       9.687   5.430  -4.042  0.00  0.00    +0.000 Cl
ATOM     24  C   UNL     1       7.062   4.891  -4.078  0.00  0.00    +0.000 A 
ENDBRANCH  14  17
ENDBRANCH   1  14
TORSDOF 4
