REMARK  Name = 
REMARK  10 active torsions:
REMARK  status: ('A' for Active; 'I' for Inactive)
REMARK    1  A    between atoms: N_1  and  C_2
REMARK    2  A    between atoms: C_2  and  C_3
REMARK    3  A    between atoms: C_3  and  N_4
REMARK    4  A    between atoms: N_4  and  C_5
REMARK    5  A    between atoms: C_5  and  C_6
REMARK    6  A    between atoms: C_9  and  C_10
REMARK    7  A    between atoms: C_10  and  C_11
REMARK    8  A    between atoms: C_14  and  C_15
REMARK    9  A    between atoms: C_15  and  N_16
REMARK   10  A    between atoms: C_17  and  C_19
REMARK                            x       y       z     vdW  Elec       q    Type
REMARK                         _______ _______ _______ _____ _____    ______ ____
ROOT
ATOM      1  C   UNL     1      11.453   3.113   0.447  0.00  0.00    +0.000 A 
ATOM      2  C   UNL     1      11.193   2.312   1.567  0.00  0.00    +0.000 A 
ATOM      3  C   UNL     1      11.773   2.604   2.806  0.00  0.00    +0.000 A 
ATOM      4  C   UNL     1      12.623   3.708   2.952  0.00  0.00    +0.000 A 
ATOM      5  C   UNL     1      12.922   4.479   1.821  0.00  0.00    +0.000 A 
ATOM      6  C   UNL     1      12.336   4.192   0.585  0.00  0.00    +0.000 A 
ENDROOT
BRANCH   1   7
ATOM      7  C   UNL     1      10.780   2.825  -0.875  0.00  0.00    +0.000 C 
BRANCH   7  11
ATOM      8  C   UNL     1       7.106   4.882  -1.563  0.00  0.00    +0.000 A 
ATOM      9  C   UNL     1       7.062   3.639  -0.940  0.00  0.00    +0.000 A 
ATOM     10  C   UNL     1       8.255   2.965  -0.689  0.00  0.00    +0.000 A 
ATOM     11  C   UNL     1       9.468   3.538  -1.076  0.00  0.00    +0.000 A 
ATOM     12  C   UNL     1       9.416   4.794  -1.671  0.00  0.00    +0.000 A 
ATOM     13  N   UNL     1       8.273   5.475  -1.923  0.00  0.00    +0.000 NA
BRANCH   8  14
ATOM     14  C   UNL     1       5.821   5.661  -1.784  0.00  0.00    +0.000 C 
BRANCH  14  15
ATOM     15  N   UNL     1       5.093   5.980  -0.537  0.00  0.00    +0.000 NA
ATOM     16  H   UNL     1       4.309   6.581  -0.806  0.00  0.00    +0.000 HD
BRANCH  15  17
ATOM     17  C   UNL     1       5.920   6.783   0.384  0.00  0.00    +0.000 C 
BRANCH  17  18
ATOM     18  C   UNL     1       6.298   8.169  -0.174  0.00  0.00    +0.000 C 
BRANCH  18  19
ATOM     19  N   UNL     1       5.098   8.926  -0.554  0.00  0.00    +0.000 NA
ATOM     20  H   UNL     1       5.386   9.836  -0.910  0.00  0.00    +0.000 HD
ATOM     21  H   UNL     1       4.549   9.109   0.286  0.00  0.00    +0.000 HD
ENDBRANCH  18  19
ENDBRANCH  17  18
ENDBRANCH  15  17
ENDBRANCH  14  15
ENDBRANCH   8  14
ENDBRANCH   7  11
ENDBRANCH   1   7
BRANCH   4  22
ATOM     22  C   UNL     1      13.222   4.058   4.291  0.00  0.00    +0.000 C 
BRANCH  22  23
ATOM     23  N   UNL     1      14.499   3.419   4.479  0.00  0.00    +0.000 N 
ATOM     24  C   UNL     1      15.191   3.544   5.659  0.00  0.00    +0.000 C 
ATOM     25  O   UNL     1      14.738   4.155   6.621  0.00  0.00    +0.000 OA
ATOM     26  H   UNL     1      14.995   3.133   3.643  0.00  0.00    +0.000 HD
BRANCH  24  27
ATOM     27  C   UNL     1      16.483   2.849   5.729  0.00  0.00    +0.000 A 
ATOM     28  C   UNL     1      16.995   2.471   6.963  0.00  0.00    +0.000 A 
ATOM     29  S   UNL     1      18.481   1.642   6.863  0.00  0.00    +0.000 S 
ATOM     30  C   UNL     1      18.518   1.805   5.169  0.00  0.00    +0.000 A 
ATOM     31  N   UNL     1      19.568   1.326   4.443  0.00  0.00    +0.000 NA
ATOM     32  C   UNL     1      19.471   1.529   3.171  0.00  0.00    +0.000 A 
ATOM     33  N   UNL     1      18.424   2.160   2.558  0.00  0.00    +0.000 N 
ATOM     34  C   UNL     1      17.336   2.645   3.250  0.00  0.00    +0.000 A 
ATOM     35  O   UNL     1      16.397   3.177   2.662  0.00  0.00    +0.000 OA
ATOM     36  C   UNL     1      17.397   2.454   4.685  0.00  0.00    +0.000 A 
ATOM     37  H   UNL     1      18.402   2.282   1.556  0.00  0.00    +0.000 HD
ENDBRANCH  24  27
ENDBRANCH  22  23
ENDBRANCH   4  22
TORSDOF 10
