REMARK  Name = 
REMARK  6 active torsions:
REMARK  status: ('A' for Active; 'I' for Inactive)
REMARK    1  A    between atoms: N_1  and  C_2
REMARK    2  A    between atoms: C_2  and  C_3
REMARK    3  A    between atoms: C_6  and  O_7
REMARK    4  A    between atoms: O_7  and  C_8
REMARK    5  A    between atoms: C_8  and  C_9
REMARK    6  A    between atoms: C_9  and  C_12
REMARK                            x       y       z     vdW  Elec       q    Type
REMARK                         _______ _______ _______ _____ _____    ______ ____
ROOT
ATOM      1  C   UNL     1       2.886   0.808  -1.103  0.00  0.00    +0.000 A 
ATOM      2  C   UNL     1       2.837   2.206  -1.181  0.00  0.00    +0.000 A 
ATOM      3  C   UNL     1       3.198   2.868  -2.361  0.00  0.00    +0.000 A 
ATOM      4  C   UNL     1       3.617   2.148  -3.484  0.00  0.00    +0.000 A 
ATOM      5  C   UNL     1       3.678   0.754  -3.396  0.00  0.00    +0.000 A 
ATOM      6  F   UNL     1       4.082  -0.001  -4.427  0.00  0.00    +0.000 F 
ATOM      7  C   UNL     1       3.317   0.091  -2.225  0.00  0.00    +0.000 A 
ENDROOT
BRANCH   1   8
ATOM      8  C   UNL     1       2.469   0.081   0.148  0.00  0.00    +0.000 C 
BRANCH   8   9
ATOM      9  N   UNL     1       3.568  -0.701   0.700  0.00  0.00    +0.000 NA
ATOM     10  H   UNL     1       3.281  -1.095   1.594  0.00  0.00    +0.000 HD
ATOM     11  H   UNL     1       4.350  -0.077   0.898  0.00  0.00    +0.000 HD
ENDBRANCH   8   9
ENDBRANCH   1   8
BRANCH   4  12
ATOM     12  O   UNL     1       3.926   2.923  -4.573  0.00  0.00    +0.000 OA
BRANCH  12  13
ATOM     13  C   UNL     1       4.329   2.215  -5.758  0.00  0.00    +0.000 C 
BRANCH  13  14
ATOM     14  C   UNL     1       4.619   3.183  -6.914  0.00  0.00    +0.000 C 
ATOM     15  F   UNL     1       3.486   3.895  -7.198  0.00  0.00    +0.000 F 
ATOM     16  F   UNL     1       5.528   4.114  -6.482  0.00  0.00    +0.000 F 
BRANCH  14  17
ATOM     17  C   UNL     1       5.125   2.425  -8.140  0.00  0.00    +0.000 A 
ATOM     18  C   UNL     1       6.006   3.056  -9.019  0.00  0.00    +0.000 A 
ATOM     19  C   UNL     1       6.449   2.367 -10.146  0.00  0.00    +0.000 A 
ATOM     20  C   UNL     1       6.002   1.073 -10.377  0.00  0.00    +0.000 A 
ATOM     21  C   UNL     1       5.124   0.514  -9.466  0.00  0.00    +0.000 A 
ATOM     22  N   UNL     1       4.677   1.157  -8.366  0.00  0.00    +0.000 NA
ENDBRANCH  14  17
ENDBRANCH  13  14
ENDBRANCH  12  13
ENDBRANCH   4  12
TORSDOF 6
