REMARK  Name = 
REMARK  5 active torsions:
REMARK  status: ('A' for Active; 'I' for Inactive)
REMARK    1  A    between atoms: N_1  and  C_2
REMARK    2  A    between atoms: C_2  and  C_3
REMARK    3  A    between atoms: C_6  and  C_7
REMARK    4  A    between atoms: C_7  and  N_8
REMARK    5  A    between atoms: C_14  and  O_15
REMARK                            x       y       z     vdW  Elec       q    Type
REMARK                         _______ _______ _______ _____ _____    ______ ____
ROOT
ATOM      1  C   UNL     1       1.127   4.449   1.537  0.00  0.00    +0.000 C 
ENDROOT
BRANCH   1   2
ATOM      2  N   UNL     1       0.808   4.888   2.890  0.00  0.00    +0.000 N 
ATOM      3  C   UNL     1       0.453   4.039   3.910  0.00  0.00    +0.000 A 
ATOM      4  C   UNL     1       0.154   4.800   5.015  0.00  0.00    +0.000 A 
ATOM      5  C   UNL     1       0.334   6.164   4.659  0.00  0.00    +0.000 A 
ATOM      6  C   UNL     1       0.176   7.376   5.360  0.00  0.00    +0.000 A 
ATOM      7  C   UNL     1       0.447   8.587   4.715  0.00  0.00    +0.000 A 
ATOM      8  C   UNL     1       0.867   8.589   3.391  0.00  0.00    +0.000 A 
ATOM      9  C   UNL     1       1.026   7.407   2.667  0.00  0.00    +0.000 A 
ATOM     10  C   UNL     1       0.751   6.197   3.326  0.00  0.00    +0.000 A 
BRANCH   8  11
ATOM     11  O   UNL     1       1.144   9.761   2.744  0.00  0.00    +0.000 OA
ATOM     12  H   UNL     1       1.017  10.492   3.369  0.00  0.00    +0.000 HD
ENDBRANCH   8  11
ENDBRANCH   1   2
BRANCH   1  16
ATOM     13  C   UNL     1       3.101   1.397   0.363  0.00  0.00    +0.000 C 
ATOM     14  C   UNL     1       2.788   1.757   1.823  0.00  0.00    +0.000 C 
ATOM     15  C   UNL     1       3.263   3.167   2.180  0.00  0.00    +0.000 C 
ATOM     16  C   UNL     1       2.634   4.241   1.276  0.00  0.00    +0.000 C 
ATOM     17  C   UNL     1       2.890   3.894  -0.205  0.00  0.00    +0.000 C 
ATOM     18  C   UNL     1       2.500   2.459  -0.576  0.00  0.00    +0.000 C 
BRANCH  13  19
ATOM     19  C   UNL     1       4.612   1.208   0.110  0.00  0.00    +0.000 C 
BRANCH  19  20
ATOM     20  N   UNL     1       5.166   0.156   0.956  0.00  0.00    +0.000 NA
ATOM     21  H   UNL     1       6.152   0.022   0.740  0.00  0.00    +0.000 HD
ATOM     22  H   UNL     1       4.701  -0.729   0.759  0.00  0.00    +0.000 HD
ENDBRANCH  19  20
ENDBRANCH  13  19
ENDBRANCH   1  16
TORSDOF 5
