REMARK  Name = 
REMARK  5 active torsions:
REMARK  status: ('A' for Active; 'I' for Inactive)
REMARK    1  A    between atoms: N_1  and  C_2
REMARK    2  A    between atoms: C_2  and  C_3
REMARK    3  A    between atoms: C_3  and  C_4
REMARK    4  A    between atoms: C_9  and  C_10
REMARK    5  A    between atoms: C_10  and  N_11
REMARK                            x       y       z     vdW  Elec       q    Type
REMARK                         _______ _______ _______ _____ _____    ______ ____
ROOT
ATOM      1  C   UNL     1       4.612  -0.554   1.523  0.00  0.00    +0.000 A 
ATOM      2  C   UNL     1       5.534   0.508   1.593  0.00  0.00    +0.000 A 
ATOM      3  C   UNL     1       6.895   0.281   1.448  0.00  0.00    +0.000 A 
ATOM      4  C   UNL     1       7.311  -1.017   1.255  0.00  0.00    +0.000 A 
ATOM      5  N   UNL     1       6.469  -2.069   1.193  0.00  0.00    +0.000 NA
ATOM      6  C   UNL     1       5.129  -1.849   1.335  0.00  0.00    +0.000 A 
ENDROOT
BRANCH   1   7
ATOM      7  C   UNL     1       3.144  -0.209   1.656  0.00  0.00    +0.000 C 
BRANCH   7   8
ATOM      8  C   UNL     1       2.642   0.731   0.544  0.00  0.00    +0.000 C 
BRANCH   8   9
ATOM      9  N   UNL     1       1.255   1.134   0.761  0.00  0.00    +0.000 NA
ATOM     10  H   UNL     1       0.870   1.515  -0.103  0.00  0.00    +0.000 HD
ATOM     11  H   UNL     1       0.677   0.336   1.011  0.00  0.00    +0.000 HD
ENDBRANCH   8   9
ENDBRANCH   7   8
ENDBRANCH   1   7
BRANCH   6  12
ATOM     12  C   UNL     1       4.286  -3.092   1.178  0.00  0.00    +0.000 C 
BRANCH  12  13
ATOM     13  N   UNL     1       4.072  -3.841   2.416  0.00  0.00    +0.000 N 
ATOM     14  C   UNL     1       2.922  -3.757   3.169  0.00  0.00    +0.000 A 
ATOM     15  C   UNL     1       2.925  -4.785   4.081  0.00  0.00    +0.000 A 
ATOM     16  C   UNL     1       4.117  -5.531   3.889  0.00  0.00    +0.000 A 
ATOM     17  C   UNL     1       4.637  -6.698   4.487  0.00  0.00    +0.000 A 
ATOM     18  C   UNL     1       5.871  -7.200   4.064  0.00  0.00    +0.000 A 
ATOM     19  C   UNL     1       6.594  -6.547   3.070  0.00  0.00    +0.000 A 
ATOM     20  C   UNL     1       6.093  -5.390   2.455  0.00  0.00    +0.000 A 
ATOM     21  C   UNL     1       4.841  -4.905   2.868  0.00  0.00    +0.000 A 
ENDBRANCH  12  13
ENDBRANCH   6  12
TORSDOF 5
