REMARK  Name = 
REMARK  8 active torsions:
REMARK  status: ('A' for Active; 'I' for Inactive)
REMARK    1  A    between atoms: C_1  and  O_2
REMARK    2  A    between atoms: O_2  and  C_3
REMARK    3  A    between atoms: C_10  and  C_11
REMARK    4  A    between atoms: N_13  and  C_14
REMARK    5  A    between atoms: C_14  and  C_15
REMARK    6  A    between atoms: C_18  and  N_19
REMARK    7  A    between atoms: N_19  and  C_20
REMARK    8  A    between atoms: C_20  and  C_21
REMARK                            x       y       z     vdW  Elec       q    Type
REMARK                         _______ _______ _______ _____ _____    ______ ____
ROOT
ATOM      1  C   UNL     1       2.977  -1.166   3.224  0.00  0.00    +0.000 C 
ENDROOT
BRANCH   1   2
ATOM      2  C   UNL     1       1.829  -0.215   3.469  0.00  0.00    +0.000 A 
ATOM      3  C   UNL     1       0.554  -0.688   3.810  0.00  0.00    +0.000 A 
ATOM      4  C   UNL     1      -0.495   0.205   4.086  0.00  0.00    +0.000 A 
ATOM      5  C   UNL     1      -0.295   1.588   4.036  0.00  0.00    +0.000 A 
ATOM      6  C   UNL     1       0.952   2.049   3.598  0.00  0.00    +0.000 A 
ATOM      7  C   UNL     1       2.006   1.165   3.333  0.00  0.00    +0.000 A 
BRANCH   5   8
ATOM      8  N   UNL     1      -1.276   2.541   4.326  0.00  0.00    +0.000 N 
ATOM      9  H   UNL     1      -1.679   2.926   3.474  0.00  0.00    +0.000 HD
BRANCH   8  10
ATOM     10  C   UNL     1      -2.295   2.230   5.325  0.00  0.00    +0.000 C 
BRANCH  10  11
ATOM     11  C   UNL     1      -2.726   3.498   6.028  0.00  0.00    +0.000 A 
ATOM     12  C   UNL     1      -4.065   3.902   6.071  0.00  0.00    +0.000 A 
ATOM     13  C   UNL     1      -4.397   5.039   6.798  0.00  0.00    +0.000 A 
ATOM     14  N   UNL     1      -3.503   5.792   7.473  0.00  0.00    +0.000 NA
ATOM     15  C   UNL     1      -2.216   5.392   7.417  0.00  0.00    +0.000 A 
ATOM     16  C   UNL     1      -1.786   4.272   6.722  0.00  0.00    +0.000 A 
ENDBRANCH  10  11
ENDBRANCH   8  10
ENDBRANCH   5   8
ENDBRANCH   1   2
BRANCH   1  19
ATOM     17  C   UNL     1       3.982  -2.438   1.366  0.00  0.00    +0.000 C 
ATOM     18  O   UNL     1       4.817  -2.947   2.113  0.00  0.00    +0.000 OA
ATOM     19  N   UNL     1       3.048  -1.559   1.841  0.00  0.00    +0.000 N 
ATOM     20  H   UNL     1       2.426  -1.092   1.197  0.00  0.00    +0.000 HD
BRANCH  17  28
ATOM     21  C   UNL     1       1.896  -1.492  -1.200  0.00  0.00    +0.000 A 
ATOM     22  N   UNL     1       1.237  -1.301  -2.359  0.00  0.00    +0.000 NA
ATOM     23  C   UNL     1       1.680  -1.938  -3.445  0.00  0.00    +0.000 A 
ATOM     24  N   UNL     1       2.724  -2.759  -3.522  0.00  0.00    +0.000 NA
ATOM     25  C   UNL     1       3.356  -2.917  -2.346  0.00  0.00    +0.000 A 
ATOM     26  S   UNL     1       4.716  -3.929  -2.255  0.00  0.00    +0.000 S 
ATOM     27  C   UNL     1       4.899  -3.619  -0.594  0.00  0.00    +0.000 A 
ATOM     28  C   UNL     1       3.942  -2.755  -0.073  0.00  0.00    +0.000 A 
ATOM     29  C   UNL     1       3.024  -2.329  -1.130  0.00  0.00    +0.000 A 
BRANCH  21  31
ATOM     30  C   UNL     1       0.084  -0.446  -0.155  0.00  0.00    +0.000 C 
ATOM     31  O   UNL     1       1.463  -0.799  -0.089  0.00  0.00    +0.000 OA
ENDBRANCH  21  31
ENDBRANCH  17  28
ENDBRANCH   1  19
TORSDOF 7
