REMARK  Name = 
REMARK  8 active torsions:
REMARK  status: ('A' for Active; 'I' for Inactive)
REMARK    1  A    between atoms: C_1  and  C_2
REMARK    2  A    between atoms: C_2  and  N_3
REMARK    3  A    between atoms: C_2  and  C_16
REMARK    4  A    between atoms: C_4  and  C_6
REMARK    5  A    between atoms: C_19  and  C_20
REMARK    6  A    between atoms: C_20  and  N_21
REMARK    7  A    between atoms: N_21  and  C_22
REMARK    8  A    between atoms: C_22  and  C_23
REMARK                            x       y       z     vdW  Elec       q    Type
REMARK                         _______ _______ _______ _____ _____    ______ ____
ROOT
ATOM      1  C   UNL     1       1.960  -1.042  -1.034  0.00  0.00    +0.000 C 
ATOM      2  C   UNL     1       2.407  -0.049   0.042  0.00  0.00    +0.000 C 
ENDROOT
BRANCH   2   3
ATOM      3  C   UNL     1       2.931   1.241  -0.568  0.00  0.00    +0.000 A 
ATOM      4  C   UNL     1       2.293   2.452  -0.264  0.00  0.00    +0.000 A 
ATOM      5  C   UNL     1       2.701   3.648  -0.860  0.00  0.00    +0.000 A 
ATOM      6  C   UNL     1       3.770   3.672  -1.766  0.00  0.00    +0.000 A 
ATOM      7  C   UNL     1       4.438   2.472  -2.042  0.00  0.00    +0.000 A 
ATOM      8  C   UNL     1       4.025   1.271  -1.448  0.00  0.00    +0.000 A 
BRANCH   6   9
ATOM      9  C   UNL     1       4.163   4.965  -2.446  0.00  0.00    +0.000 C 
BRANCH   9  10
ATOM     10  N   UNL     1       4.537   5.980  -1.465  0.00  0.00    +0.000 NA
ATOM     11  H   UNL     1       5.338   5.638  -0.933  0.00  0.00    +0.000 HD
BRANCH  10  12
ATOM     12  C   UNL     1       4.913   7.242  -2.112  0.00  0.00    +0.000 C 
BRANCH  12  13
ATOM     13  C   UNL     1       5.316   8.291  -1.093  0.00  0.00    +0.000 A 
ATOM     14  C   UNL     1       4.418   8.697  -0.121  0.00  0.00    +0.000 A 
ATOM     15  C   UNL     1       4.877   9.624   0.787  0.00  0.00    +0.000 A 
ATOM     16  N   UNL     1       6.118  10.140   0.757  0.00  0.00    +0.000 NA
ATOM     17  C   UNL     1       6.909   9.687  -0.226  0.00  0.00    +0.000 A 
ATOM     18  N   UNL     1       6.575   8.780  -1.160  0.00  0.00    +0.000 NA
ENDBRANCH  12  13
ENDBRANCH  10  12
ENDBRANCH   9  10
ENDBRANCH   6   9
ENDBRANCH   2   3
BRANCH   2  19
ATOM     19  N   UNL     1       3.387  -0.650   0.924  0.00  0.00    +0.000 N 
ATOM     20  C   UNL     1       3.028  -1.453   1.977  0.00  0.00    +0.000 C 
ATOM     21  O   UNL     1       1.855  -1.679   2.256  0.00  0.00    +0.000 OA
ATOM     22  H   UNL     1       4.363  -0.425   0.764  0.00  0.00    +0.000 HD
BRANCH  20  23
ATOM     23  C   UNL     1       4.122  -2.081   2.729  0.00  0.00    +0.000 A 
ATOM     24  C   UNL     1       3.871  -3.220   3.483  0.00  0.00    +0.000 A 
ATOM     25  S   UNL     1       5.250  -3.833   4.276  0.00  0.00    +0.000 S 
ATOM     26  C   UNL     1       6.220  -2.566   3.685  0.00  0.00    +0.000 A 
ATOM     27  N   UNL     1       7.533  -2.472   4.028  0.00  0.00    +0.000 NA
ATOM     28  C   UNL     1       8.135  -1.436   3.549  0.00  0.00    +0.000 A 
ATOM     29  N   UNL     1       7.547  -0.491   2.748  0.00  0.00    +0.000 N 
ATOM     30  C   UNL     1       6.252  -0.594   2.303  0.00  0.00    +0.000 A 
ATOM     31  O   UNL     1       5.806   0.186   1.469  0.00  0.00    +0.000 OA
ATOM     32  C   UNL     1       5.510  -1.708   2.863  0.00  0.00    +0.000 A 
ATOM     33  H   UNL     1       8.082   0.283   2.379  0.00  0.00    +0.000 HD
ENDBRANCH  20  23
ENDBRANCH   2  19
TORSDOF 7
