REMARK  Name = 
REMARK  6 active torsions:
REMARK  status: ('A' for Active; 'I' for Inactive)
REMARK    1  A    between atoms: N_1  and  C_2
REMARK    2  A    between atoms: C_2  and  C_3
REMARK    3  A    between atoms: C_3  and  C_4
REMARK    4  A    between atoms: C_7  and  C_8
REMARK    5  A    between atoms: C_8  and  N_9
REMARK    6  A    between atoms: C_14  and  C_15
REMARK                            x       y       z     vdW  Elec       q    Type
REMARK                         _______ _______ _______ _____ _____    ______ ____
ROOT
ATOM      1  N   UNL     1       9.882  -0.439   1.768  0.00  0.00    +0.000 N 
ATOM      2  C   UNL     1      10.019   0.871   2.173  0.00  0.00    +0.000 A 
ATOM      3  C   UNL     1      11.013   0.912   3.120  0.00  0.00    +0.000 A 
ATOM      4  C   UNL     1      11.797  -0.245   2.886  0.00  0.00    +0.000 A 
ATOM      5  C   UNL     1      13.138  -0.575   3.139  0.00  0.00    +0.000 A 
ATOM      6  C   UNL     1      13.631  -1.813   2.698  0.00  0.00    +0.000 A 
ATOM      7  C   UNL     1      12.730  -2.788   2.244  0.00  0.00    +0.000 A 
ATOM      8  C   UNL     1      11.385  -2.484   2.004  0.00  0.00    +0.000 A 
ATOM      9  C   UNL     1      10.983  -1.156   2.206  0.00  0.00    +0.000 A 
ENDROOT
BRANCH   6  10
ATOM     10  C   UNL     1      15.114  -2.072   2.614  0.00  0.00    +0.000 C 
ATOM     11  F   UNL     1      15.879  -0.966   2.831  0.00  0.00    +0.000 F 
ATOM     12  F   UNL     1      15.543  -3.010   3.503  0.00  0.00    +0.000 F 
ATOM     13  F   UNL     1      15.483  -2.532   1.382  0.00  0.00    +0.000 F 
ENDBRANCH   6  10
BRANCH   1  14
ATOM     14  C   UNL     1       8.912  -0.882   0.768  0.00  0.00    +0.000 C 
BRANCH  14  18
ATOM     15  C   UNL     1       4.785  -0.452   2.056  0.00  0.00    +0.000 A 
ATOM     16  C   UNL     1       5.428   0.578   1.350  0.00  0.00    +0.000 A 
ATOM     17  C   UNL     1       6.757   0.447   0.955  0.00  0.00    +0.000 A 
ATOM     18  C   UNL     1       7.479  -0.728   1.220  0.00  0.00    +0.000 A 
ATOM     19  C   UNL     1       6.827  -1.767   1.905  0.00  0.00    +0.000 A 
ATOM     20  C   UNL     1       5.496  -1.632   2.311  0.00  0.00    +0.000 A 
BRANCH  15  21
ATOM     21  C   UNL     1       3.359  -0.300   2.524  0.00  0.00    +0.000 C 
BRANCH  21  22
ATOM     22  C   UNL     1       2.319  -0.786   1.508  0.00  0.00    +0.000 C 
BRANCH  22  23
ATOM     23  N   UNL     1       0.961  -0.629   2.037  0.00  0.00    +0.000 NA
ATOM     24  H   UNL     1       0.286  -0.957   1.348  0.00  0.00    +0.000 HD
ATOM     25  H   UNL     1       0.758   0.359   2.189  0.00  0.00    +0.000 HD
ENDBRANCH  22  23
ENDBRANCH  21  22
ENDBRANCH  15  21
ENDBRANCH  14  18
ENDBRANCH   1  14
TORSDOF 6
