REMARK  Name = 
REMARK  4 active torsions:
REMARK  status: ('A' for Active; 'I' for Inactive)
REMARK    1  A    between atoms: C_2  and  C_3
REMARK    2  A    between atoms: C_10  and  C_11
REMARK    3  A    between atoms: C_15  and  N_16
REMARK    4  A    between atoms: C_19  and  O_20
REMARK                            x       y       z     vdW  Elec       q    Type
REMARK                         _______ _______ _______ _____ _____    ______ ____
ROOT
ATOM      1  C   UNL     1       0.475  -0.016   0.051  0.00  0.00    +0.000 A 
ATOM      2  C   UNL     1      -0.143   1.145  -0.392  0.00  0.00    +0.000 A 
ATOM      3  C   UNL     1      -1.535   1.196  -0.432  0.00  0.00    +0.000 A 
ATOM      4  C   UNL     1      -2.290   0.094  -0.027  0.00  0.00    +0.000 A 
ATOM      5  N   UNL     1      -3.662   0.107  -0.119  0.00  0.00    +0.000 N 
ATOM      6  C   UNL     1      -4.454  -0.609   0.877  0.00  0.00    +0.000 C 
ATOM      7  C   UNL     1      -5.437  -1.569   0.214  0.00  0.00    +0.000 C 
ATOM      8  C   UNL     1      -6.243  -0.923  -0.922  0.00  0.00    +0.000 C 
ATOM      9  C   UNL     1      -5.288  -0.261  -1.920  0.00  0.00    +0.000 C 
ATOM     10  C   UNL     1      -4.321   0.719  -1.265  0.00  0.00    +0.000 C 
ATOM     11  N   UNL     1      -1.684  -1.020   0.438  0.00  0.00    +0.000 NA
ATOM     12  C   UNL     1      -0.332  -1.063   0.458  0.00  0.00    +0.000 A 
ENDROOT
BRANCH   8  13
ATOM     13  C   UNL     1      -7.357   0.004  -0.439  0.00  0.00    +0.000 A 
ATOM     14  C   UNL     1      -8.675  -0.275  -0.791  0.00  0.00    +0.000 A 
ATOM     15  C   UNL     1      -9.685   0.544  -0.310  0.00  0.00    +0.000 A 
ATOM     16  C   UNL     1      -9.351   1.607   0.512  0.00  0.00    +0.000 A 
ATOM     17  C   UNL     1      -8.021   1.860   0.835  0.00  0.00    +0.000 A 
ATOM     18  N   UNL     1      -7.034   1.072   0.338  0.00  0.00    +0.000 NA
BRANCH  17  19
ATOM     19  N   UNL     1      -7.709   2.926   1.657  0.00  0.00    +0.000 N 
ATOM     20  C   UNL     1      -6.432   3.611   1.523  0.00  0.00    +0.000 C 
ATOM     21  C   UNL     1      -5.639   3.525   2.822  0.00  0.00    +0.000 C 
ATOM     22  C   UNL     1      -6.478   3.924   4.037  0.00  0.00    +0.000 C 
ATOM     23  C   UNL     1      -7.805   3.172   4.086  0.00  0.00    +0.000 C 
ATOM     24  C   UNL     1      -8.571   3.293   2.774  0.00  0.00    +0.000 C 
BRANCH  22  25
ATOM     25  O   UNL     1      -6.707   5.335   4.059  0.00  0.00    +0.000 OA
ATOM     26  H   UNL     1      -7.207   5.587   3.264  0.00  0.00    +0.000 HD
ENDBRANCH  22  25
ENDBRANCH  17  19
ENDBRANCH   8  13
BRANCH   1  28
ATOM     27  N   UNL     1       3.053  -0.230   0.093  0.00  0.00    +0.000 NA
ATOM     28  C   UNL     1       1.892  -0.136   0.078  0.00  0.00    +0.000 C 
ENDBRANCH   1  28
TORSDOF 4
