REMARK  Name = 
REMARK  7 active torsions:
REMARK  status: ('A' for Active; 'I' for Inactive)
REMARK    1  A    between atoms: C_1  and  C_2
REMARK    2  A    between atoms: C_2  and  N_3
REMARK    3  A    between atoms: C_2  and  C_16
REMARK    4  A    between atoms: C_4  and  C_6
REMARK    5  A    between atoms: C_19  and  C_20
REMARK    6  A    between atoms: C_20  and  N_21
REMARK    7  A    between atoms: C_22  and  C_24
REMARK                            x       y       z     vdW  Elec       q    Type
REMARK                         _______ _______ _______ _____ _____    ______ ____
ROOT
ATOM      1  C   UNL     1       3.598  -0.595  -0.875  0.00  0.00    +0.000 C 
ATOM      2  C   UNL     1       2.530   0.043   0.020  0.00  0.00    +0.000 C 
ENDROOT
BRANCH   2   3
ATOM      3  C   UNL     1       2.992   0.049   1.476  0.00  0.00    +0.000 A 
ATOM      4  C   UNL     1       3.182   1.252   2.168  0.00  0.00    +0.000 A 
ATOM      5  C   UNL     1       3.597   1.251   3.508  0.00  0.00    +0.000 A 
ATOM      6  C   UNL     1       3.837   0.047   4.187  0.00  0.00    +0.000 A 
ATOM      7  C   UNL     1       3.619  -1.156   3.506  0.00  0.00    +0.000 A 
ATOM      8  C   UNL     1       3.209  -1.155   2.169  0.00  0.00    +0.000 A 
BRANCH   6   9
ATOM      9  C   UNL     1       4.306   0.041   5.621  0.00  0.00    +0.000 C 
BRANCH   9  10
ATOM     10  N   UNL     1       3.200   0.047   6.546  0.00  0.00    +0.000 N 
ATOM     11  C   UNL     1       3.399  -0.042   7.906  0.00  0.00    +0.000 C 
ATOM     12  O   UNL     1       4.512  -0.162   8.408  0.00  0.00    +0.000 OA
ATOM     13  H   UNL     1       2.279   0.244   6.185  0.00  0.00    +0.000 HD
BRANCH  11  14
ATOM     14  C   UNL     1       2.199   0.020   8.699  0.00  0.00    +0.000 A 
ATOM     15  C   UNL     1       0.856   0.107   8.377  0.00  0.00    +0.000 A 
ATOM     16  C   UNL     1       0.178   0.137   9.608  0.00  0.00    +0.000 A 
ATOM     17  N   UNL     1       1.011   0.066  10.646  0.00  0.00    +0.000 NA
ATOM     18  N   UNL     1       2.227  -0.011  10.070  0.00  0.00    +0.000 N 
ATOM     19  H   UNL     1       3.047  -0.083  10.667  0.00  0.00    +0.000 HD
ENDBRANCH  11  14
ENDBRANCH   9  10
ENDBRANCH   6   9
ENDBRANCH   2   3
BRANCH   2  20
ATOM     20  N   UNL     1       1.252  -0.645  -0.059  0.00  0.00    +0.000 N 
ATOM     21  C   UNL     1       0.522  -0.800  -1.210  0.00  0.00    +0.000 C 
ATOM     22  O   UNL     1       0.903  -0.408  -2.307  0.00  0.00    +0.000 OA
ATOM     23  H   UNL     1       0.743  -0.687   0.817  0.00  0.00    +0.000 HD
BRANCH  21  24
ATOM     24  C   UNL     1      -0.733  -1.551  -1.059  0.00  0.00    +0.000 A 
ATOM     25  C   UNL     1      -1.238  -2.287  -2.122  0.00  0.00    +0.000 A 
ATOM     26  S   UNL     1      -2.667  -3.139  -1.741  0.00  0.00    +0.000 S 
ATOM     27  C   UNL     1      -2.688  -2.510  -0.159  0.00  0.00    +0.000 A 
ATOM     28  N   UNL     1      -3.684  -2.828   0.712  0.00  0.00    +0.000 NA
ATOM     29  C   UNL     1      -3.586  -2.256   1.866  0.00  0.00    +0.000 A 
ATOM     30  N   UNL     1      -2.581  -1.399   2.230  0.00  0.00    +0.000 N 
ATOM     31  C   UNL     1      -1.541  -1.074   1.396  0.00  0.00    +0.000 A 
ATOM     32  O   UNL     1      -0.629  -0.345   1.771  0.00  0.00    +0.000 OA
ATOM     33  C   UNL     1      -1.609  -1.680   0.080  0.00  0.00    +0.000 A 
ATOM     34  H   UNL     1      -2.555  -0.991   3.153  0.00  0.00    +0.000 HD
ENDBRANCH  21  24
ENDBRANCH   2  20
TORSDOF 6
