REMARK  Name = 
REMARK  10 active torsions:
REMARK  status: ('A' for Active; 'I' for Inactive)
REMARK    1  A    between atoms: C_1  and  C_2
REMARK    2  A    between atoms: C_2  and  C_3
REMARK    3  A    between atoms: C_2  and  C_4
REMARK    4  A    between atoms: C_2  and  C_5
REMARK    5  A    between atoms: N_8  and  C_9
REMARK    6  A    between atoms: C_9  and  C_10
REMARK    7  A    between atoms: C_10  and  C_11
REMARK    8  A    between atoms: C_15  and  C_16
REMARK    9  A    between atoms: C_19  and  C_20
REMARK   10  A    between atoms: C_29  and  C_30
REMARK                            x       y       z     vdW  Elec       q    Type
REMARK                         _______ _______ _______ _____ _____    ______ ____
ROOT
ATOM      1  C   UNL     1       2.538   6.011  -1.130  0.00  0.00    +0.000 C 
ENDROOT
BRANCH   1   5
ATOM      2  C   UNL     1       2.903   1.278  -1.076  0.00  0.00    +0.000 A 
ATOM      3  N   UNL     1       2.398   2.491  -0.653  0.00  0.00    +0.000 NA
ATOM      4  C   UNL     1       3.046   3.646  -0.871  0.00  0.00    +0.000 A 
ATOM      5  N   UNL     1       2.444   4.785  -0.346  0.00  0.00    +0.000 N 
ATOM      6  C   UNL     1       4.254   3.659  -1.534  0.00  0.00    +0.000 A 
ATOM      7  C   UNL     1       4.778   2.458  -2.003  0.00  0.00    +0.000 A 
ATOM      8  C   UNL     1       4.130   1.234  -1.767  0.00  0.00    +0.000 A 
ATOM      9  H   UNL     1       1.508   4.512  -0.058  0.00  0.00    +0.000 HD
BRANCH   8  10
ATOM     10  C   UNL     1       4.799   0.010  -2.306  0.00  0.00    +0.000 C 
ATOM     11  N   UNL     1       6.159   0.056  -2.511  0.00  0.00    +0.000 N 
ATOM     12  O   UNL     1       4.219  -1.018  -2.600  0.00  0.00    +0.000 OA
ATOM     13  H   UNL     1       6.771   0.788  -2.190  0.00  0.00    +0.000 HD
ATOM     14  H   UNL     1       6.582  -0.781  -2.891  0.00  0.00    +0.000 HD
ENDBRANCH   8  10
BRANCH   2  16
ATOM     15  C   UNL     1       0.763   0.598   0.126  0.00  0.00    +0.000 C 
ATOM     16  C   UNL     1       2.019   0.083  -0.649  0.00  0.00    +0.000 C 
ATOM     17  C   UNL     1       2.770  -0.840   0.330  0.00  0.00    +0.000 C 
ATOM     18  C   UNL     1       1.437  -0.726  -1.826  0.00  0.00    +0.000 C 
ENDBRANCH   2  16
ENDBRANCH   1   5
BRANCH   1  19
ATOM     19  C   UNL     1       1.805   7.188  -0.472  0.00  0.00    +0.000 C 
BRANCH  19  20
ATOM     20  C   UNL     1       1.973   8.505  -1.210  0.00  0.00    +0.000 A 
ATOM     21  C   UNL     1       3.162   8.835  -1.861  0.00  0.00    +0.000 A 
ATOM     22  C   UNL     1       3.270  10.058  -2.505  0.00  0.00    +0.000 A 
ATOM     23  C   UNL     1       2.201  10.939  -2.467  0.00  0.00    +0.000 A 
ATOM     24  C   UNL     1       1.036  10.573  -1.795  0.00  0.00    +0.000 A 
ATOM     25  N   UNL     1       0.925   9.371  -1.163  0.00  0.00    +0.000 NA
BRANCH  24  26
ATOM     26  C   UNL     1      -0.139  11.472  -1.735  0.00  0.00    +0.000 A 
ATOM     27  C   UNL     1      -0.445  12.352  -2.792  0.00  0.00    +0.000 A 
ATOM     28  C   UNL     1      -1.536  13.225  -2.732  0.00  0.00    +0.000 A 
ATOM     29  C   UNL     1      -2.370  13.243  -1.609  0.00  0.00    +0.000 A 
ATOM     30  C   UNL     1      -2.088  12.366  -0.552  0.00  0.00    +0.000 A 
ATOM     31  C   UNL     1      -0.992  11.494  -0.618  0.00  0.00    +0.000 A 
BRANCH  29  32
ATOM     32  C   UNL     1      -3.551  14.179  -1.535  0.00  0.00    +0.000 C 
ATOM     33  F   UNL     1      -3.685  14.973  -2.635  0.00  0.00    +0.000 F 
ATOM     34  F   UNL     1      -4.735  13.518  -1.408  0.00  0.00    +0.000 F 
ATOM     35  F   UNL     1      -3.480  15.028  -0.473  0.00  0.00    +0.000 F 
ENDBRANCH  29  32
ENDBRANCH  24  26
ENDBRANCH  19  20
ENDBRANCH   1  19
TORSDOF 7
