REMARK  Name = 
REMARK  6 active torsions:
REMARK  status: ('A' for Active; 'I' for Inactive)
REMARK    1  A    between atoms: C_2  and  C_18
REMARK    2  A    between atoms: N_3  and  C_4
REMARK    3  A    between atoms: C_4  and  C_5
REMARK    4  A    between atoms: C_8  and  C_9
REMARK    5  A    between atoms: C_9  and  N_10
REMARK    6  A    between atoms: N_10  and  C_11
REMARK                            x       y       z     vdW  Elec       q    Type
REMARK                         _______ _______ _______ _____ _____    ______ ____
ROOT
ATOM      1  C   UNL     1       2.242  -1.878   1.423  0.00  0.00    +0.000 C 
ENDROOT
BRANCH   1   2
ATOM      2  C   UNL     1       3.167  -2.803   2.170  0.00  0.00    +0.000 A 
ATOM      3  C   UNL     1       4.179  -2.292   2.993  0.00  0.00    +0.000 A 
ATOM      4  C   UNL     1       4.999  -3.150   3.735  0.00  0.00    +0.000 A 
ATOM      5  C   UNL     1       4.832  -4.540   3.660  0.00  0.00    +0.000 A 
ATOM      6  C   UNL     1       3.843  -5.048   2.805  0.00  0.00    +0.000 A 
ATOM      7  C   UNL     1       3.027  -4.192   2.061  0.00  0.00    +0.000 A 
BRANCH   5   8
ATOM      8  C   UNL     1       5.725  -5.489   4.430  0.00  0.00    +0.000 C 
BRANCH   8   9
ATOM      9  N   UNL     1       5.611  -5.330   5.876  0.00  0.00    +0.000 NA
ATOM     10  H   UNL     1       4.648  -5.483   6.164  0.00  0.00    +0.000 HD
BRANCH   9  11
ATOM     11  C   UNL     1       6.441  -6.260   6.599  0.00  0.00    +0.000 C 
ATOM     12  C   UNL     1       6.160  -7.744   6.400  0.00  0.00    +0.000 C 
ATOM     13  C   UNL     1       6.733  -8.354   7.666  0.00  0.00    +0.000 C 
ATOM     14  C   UNL     1       6.533  -7.272   8.719  0.00  0.00    +0.000 C 
ATOM     15  N   UNL     1       6.105  -6.074   7.996  0.00  0.00    +0.000 NA
ATOM     16  H   UNL     1       6.569  -5.239   8.345  0.00  0.00    +0.000 HD
ENDBRANCH   9  11
ENDBRANCH   8   9
ENDBRANCH   5   8
ENDBRANCH   1   2
BRANCH   1  19
ATOM     17  O   UNL     1       3.672   0.482   0.869  0.00  0.00    +0.000 OA
ATOM     18  C   UNL     1       3.502  -0.338  -0.029  0.00  0.00    +0.000 C 
ATOM     19  N   UNL     1       2.779  -1.489   0.147  0.00  0.00    +0.000 N 
ATOM     20  H   UNL     1       2.796  -2.205  -0.570  0.00  0.00    +0.000 HD
BRANCH  18  21
ATOM     21  C   UNL     1       4.031  -0.111  -1.377  0.00  0.00    +0.000 A 
ATOM     22  C   UNL     1       4.290   1.181  -1.814  0.00  0.00    +0.000 A 
ATOM     23  S   UNL     1       4.952   1.249  -3.384  0.00  0.00    +0.000 S 
ATOM     24  C   UNL     1       4.938  -0.447  -3.523  0.00  0.00    +0.000 A 
ATOM     25  N   UNL     1       5.430  -1.067  -4.630  0.00  0.00    +0.000 NA
ATOM     26  C   UNL     1       5.391  -2.354  -4.583  0.00  0.00    +0.000 A 
ATOM     27  N   UNL     1       4.886  -3.082  -3.535  0.00  0.00    +0.000 N 
ATOM     28  C   UNL     1       4.295  -2.500  -2.444  0.00  0.00    +0.000 A 
ATOM     29  O   UNL     1       3.692  -3.178  -1.615  0.00  0.00    +0.000 OA
ATOM     30  C   UNL     1       4.387  -1.053  -2.409  0.00  0.00    +0.000 A 
ATOM     31  H   UNL     1       4.834  -4.088  -3.583  0.00  0.00    +0.000 HD
ENDBRANCH  18  21
ENDBRANCH   1  19
TORSDOF 6
