REMARK  Name = 
REMARK  8 active torsions:
REMARK  status: ('A' for Active; 'I' for Inactive)
REMARK    1  A    between atoms: C_1  and  O_2
REMARK    2  A    between atoms: O_2  and  C_3
REMARK    3  A    between atoms: C_5  and  C_6
REMARK    4  A    between atoms: C_6  and  N_7
REMARK    5  A    between atoms: C_8  and  C_10
REMARK    6  A    between atoms: C_22  and  C_23
REMARK    7  A    between atoms: C_23  and  N_24
REMARK    8  A    between atoms: C_25  and  C_27
REMARK                            x       y       z     vdW  Elec       q    Type
REMARK                         _______ _______ _______ _____ _____    ______ ____
ROOT
ATOM      1  C   UNL     1       3.033   0.576  -1.106  0.00  0.00    +0.000 A 
ATOM      2  C   UNL     1       2.671   1.903  -1.368  0.00  0.00    +0.000 A 
ATOM      3  C   UNL     1       3.360   2.671  -2.317  0.00  0.00    +0.000 A 
ATOM      4  C   UNL     1       4.418   2.090  -3.021  0.00  0.00    +0.000 A 
ATOM      5  C   UNL     1       4.793   0.771  -2.760  0.00  0.00    +0.000 A 
ATOM      6  C   UNL     1       4.117   0.004  -1.794  0.00  0.00    +0.000 A 
ENDROOT
BRANCH   1   8
ATOM      7  C   UNL     1       1.092   0.189   0.209  0.00  0.00    +0.000 C 
ATOM      8  O   UNL     1       2.402  -0.216  -0.181  0.00  0.00    +0.000 OA
ENDBRANCH   1   8
BRANCH   3   9
ATOM      9  C   UNL     1       2.925   4.087  -2.592  0.00  0.00    +0.000 C 
BRANCH   9  10
ATOM     10  N   UNL     1       1.949   4.137  -3.652  0.00  0.00    +0.000 N 
ATOM     11  C   UNL     1       0.601   4.224  -3.421  0.00  0.00    +0.000 C 
ATOM     12  O   UNL     1       0.131   4.269  -2.287  0.00  0.00    +0.000 OA
ATOM     13  H   UNL     1       2.281   3.896  -4.580  0.00  0.00    +0.000 HD
BRANCH  11  14
ATOM     14  C   UNL     1      -0.259   4.333  -4.608  0.00  0.00    +0.000 A 
ATOM     15  C   UNL     1      -1.531   4.876  -4.484  0.00  0.00    +0.000 A 
ATOM     16  S   UNL     1      -2.386   4.970  -5.956  0.00  0.00    +0.000 S 
ATOM     17  C   UNL     1      -1.104   4.246  -6.808  0.00  0.00    +0.000 A 
ATOM     18  N   UNL     1      -1.202   4.007  -8.144  0.00  0.00    +0.000 NA
ATOM     19  C   UNL     1      -0.173   3.420  -8.658  0.00  0.00    +0.000 A 
ATOM     20  N   UNL     1       0.950   3.060  -7.959  0.00  0.00    +0.000 N 
ATOM     21  C   UNL     1       1.119   3.339  -6.623  0.00  0.00    +0.000 A 
ATOM     22  O   UNL     1       2.180   3.102  -6.054  0.00  0.00    +0.000 OA
ATOM     23  C   UNL     1      -0.028   3.960  -5.986  0.00  0.00    +0.000 A 
ATOM     24  H   UNL     1       1.732   2.626  -8.427  0.00  0.00    +0.000 HD
ENDBRANCH  11  14
ENDBRANCH   9  10
ENDBRANCH   3   9
BRANCH   6  25
ATOM     25  C   UNL     1       4.543  -1.429  -1.580  0.00  0.00    +0.000 C 
BRANCH  25  26
ATOM     26  N   UNL     1       3.839  -2.314  -2.480  0.00  0.00    +0.000 N 
ATOM     27  C   UNL     1       4.383  -3.483  -2.960  0.00  0.00    +0.000 C 
ATOM     28  O   UNL     1       5.534  -3.830  -2.717  0.00  0.00    +0.000 OA
ATOM     29  H   UNL     1       2.847  -2.168  -2.620  0.00  0.00    +0.000 HD
BRANCH  27  30
ATOM     30  C   UNL     1       3.471  -4.256  -3.786  0.00  0.00    +0.000 A 
ATOM     31  C   UNL     1       3.634  -5.465  -4.437  0.00  0.00    +0.000 A 
ATOM     32  C   UNL     1       2.417  -5.733  -5.115  0.00  0.00    +0.000 A 
ATOM     33  C   UNL     1       1.586  -4.675  -4.835  0.00  0.00    +0.000 A 
ATOM     34  O   UNL     1       2.209  -3.777  -4.028  0.00  0.00    +0.000 OA
ENDBRANCH  27  30
ENDBRANCH  25  26
ENDBRANCH   6  25
TORSDOF 7
