REMARK  Name = 
REMARK  9 active torsions:
REMARK  status: ('A' for Active; 'I' for Inactive)
REMARK    1  A    between atoms: C_1  and  O_2
REMARK    2  A    between atoms: O_2  and  C_3
REMARK    3  A    between atoms: C_10  and  C_11
REMARK    4  A    between atoms: N_13  and  C_14
REMARK    5  A    between atoms: C_14  and  C_15
REMARK    6  A    between atoms: C_18  and  N_19
REMARK    7  A    between atoms: N_19  and  C_20
REMARK    8  A    between atoms: N_19  and  C_21
REMARK    9  A    between atoms: C_21  and  C_22
REMARK                            x       y       z     vdW  Elec       q    Type
REMARK                         _______ _______ _______ _____ _____    ______ ____
ROOT
ATOM      1  C   UNL     1       2.660   3.247  -0.954  0.00  0.00    +0.000 C 
ENDROOT
BRANCH   1   2
ATOM      2  C   UNL     1       1.402   2.853  -1.687  0.00  0.00    +0.000 A 
ATOM      3  C   UNL     1       1.220   1.558  -2.171  0.00  0.00    +0.000 A 
ATOM      4  C   UNL     1       0.007   1.180  -2.778  0.00  0.00    +0.000 A 
ATOM      5  C   UNL     1      -1.066   2.075  -2.960  0.00  0.00    +0.000 A 
ATOM      6  C   UNL     1      -0.819   3.392  -2.540  0.00  0.00    +0.000 A 
ATOM      7  C   UNL     1       0.381   3.777  -1.912  0.00  0.00    +0.000 A 
BRANCH   5   8
ATOM      8  N   UNL     1      -2.275   1.694  -3.554  0.00  0.00    +0.000 N 
ATOM      9  C   UNL     1      -2.521   0.273  -3.818  0.00  0.00    +0.000 C 
BRANCH   8  10
ATOM     10  C   UNL     1      -3.489   2.528  -3.408  0.00  0.00    +0.000 C 
BRANCH  10  11
ATOM     11  C   UNL     1      -3.707   3.452  -4.632  0.00  0.00    +0.000 C 
ATOM     12  C   UNL     1      -4.935   4.363  -4.432  0.00  0.00    +0.000 C 
ATOM     13  C   UNL     1      -6.262   3.611  -4.578  0.00  0.00    +0.000 C 
ATOM     14  N   UNL     1      -6.353   2.874  -5.839  0.00  0.00    +0.000 NA
ATOM     15  C   UNL     1      -5.228   1.953  -6.006  0.00  0.00    +0.000 C 
ATOM     16  C   UNL     1      -3.891   2.691  -5.955  0.00  0.00    +0.000 C 
ATOM     17  H   UNL     1      -6.349   3.538  -6.613  0.00  0.00    +0.000 HD
ENDBRANCH  10  11
ENDBRANCH   8  10
ENDBRANCH   5   8
ENDBRANCH   1   2
BRANCH   1  20
ATOM     18  C   UNL     1       4.873   4.237  -1.396  0.00  0.00    +0.000 C 
ATOM     19  O   UNL     1       5.177   4.184  -0.209  0.00  0.00    +0.000 OA
ATOM     20  N   UNL     1       3.655   3.790  -1.841  0.00  0.00    +0.000 N 
ATOM     21  H   UNL     1       3.413   3.858  -2.821  0.00  0.00    +0.000 HD
BRANCH  18  29
ATOM     22  C   UNL     1       4.700   4.602  -4.814  0.00  0.00    +0.000 A 
ATOM     23  N   UNL     1       4.863   4.907  -6.115  0.00  0.00    +0.000 NA
ATOM     24  C   UNL     1       5.996   5.517  -6.478  0.00  0.00    +0.000 A 
ATOM     25  N   UNL     1       7.009   5.859  -5.686  0.00  0.00    +0.000 NA
ATOM     26  C   UNL     1       6.797   5.551  -4.396  0.00  0.00    +0.000 A 
ATOM     27  S   UNL     1       7.987   5.907  -3.240  0.00  0.00    +0.000 S 
ATOM     28  C   UNL     1       7.029   5.277  -1.986  0.00  0.00    +0.000 A 
ATOM     29  C   UNL     1       5.797   4.790  -2.405  0.00  0.00    +0.000 A 
ATOM     30  C   UNL     1       5.671   4.939  -3.856  0.00  0.00    +0.000 A 
BRANCH  22  32
ATOM     31  C   UNL     1       2.945   3.208  -5.487  0.00  0.00    +0.000 C 
ATOM     32  O   UNL     1       3.535   3.970  -4.438  0.00  0.00    +0.000 OA
ENDBRANCH  22  32
ENDBRANCH  18  29
ENDBRANCH   1  20
TORSDOF 7
