REMARK  Name = 
REMARK  7 active torsions:
REMARK  status: ('A' for Active; 'I' for Inactive)
REMARK    1  A    between atoms: N_1  and  C_2
REMARK    2  A    between atoms: C_2  and  C_3
REMARK    3  A    between atoms: C_3  and  C_4
REMARK    4  A    between atoms: C_7  and  C_8
REMARK    5  A    between atoms: C_8  and  O_9
REMARK    6  A    between atoms: O_9  and  C_10
REMARK    7  A    between atoms: C_16  and  N_17
REMARK                            x       y       z     vdW  Elec       q    Type
REMARK                         _______ _______ _______ _____ _____    ______ ____
ROOT
ATOM      1  C   UNL     1       8.656  -1.606   0.883  0.00  0.00    +0.000 C 
ENDROOT
BRANCH   1   5
ATOM      2  C   UNL     1       4.342  -1.247   0.809  0.00  0.00    +0.000 A 
ATOM      3  C   UNL     1       5.016  -1.470   2.016  0.00  0.00    +0.000 A 
ATOM      4  C   UNL     1       6.408  -1.598   2.039  0.00  0.00    +0.000 A 
ATOM      5  C   UNL     1       7.152  -1.487   0.858  0.00  0.00    +0.000 A 
ATOM      6  C   UNL     1       6.478  -1.258  -0.348  0.00  0.00    +0.000 A 
ATOM      7  C   UNL     1       5.086  -1.130  -0.371  0.00  0.00    +0.000 A 
BRANCH   2   8
ATOM      8  C   UNL     1       2.836  -1.149   0.778  0.00  0.00    +0.000 C 
BRANCH   8   9
ATOM      9  C   UNL     1       2.328   0.276   1.016  0.00  0.00    +0.000 C 
BRANCH   9  10
ATOM     10  N   UNL     1       0.865   0.316   0.993  0.00  0.00    +0.000 NA
ATOM     11  H   UNL     1       0.550   1.265   1.189  0.00  0.00    +0.000 HD
ATOM     12  H   UNL     1       0.494  -0.268   1.742  0.00  0.00    +0.000 HD
ENDBRANCH   9  10
ENDBRANCH   8   9
ENDBRANCH   2   8
ENDBRANCH   1   5
BRANCH   1  13
ATOM     13  O   UNL     1       9.039  -2.958   0.616  0.00  0.00    +0.000 OA
BRANCH  13  14
ATOM     14  C   UNL     1      10.406  -3.131   0.596  0.00  0.00    +0.000 A 
ATOM     15  N   UNL     1      11.194  -2.051   0.832  0.00  0.00    +0.000 NA
ATOM     16  C   UNL     1      12.538  -2.226   0.760  0.00  0.00    +0.000 A 
ATOM     17  C   UNL     1      13.144  -3.438   0.461  0.00  0.00    +0.000 A 
ATOM     18 CL   UNL     1      14.852  -3.566   0.377  0.00  0.00    +0.000 Cl
ATOM     19  C   UNL     1      12.337  -4.542   0.226  0.00  0.00    +0.000 A 
ATOM     20  C   UNL     1      10.949  -4.372   0.300  0.00  0.00    +0.000 A 
BRANCH  20  21
ATOM     21  N   UNL     1      10.096  -5.499   0.041  0.00  0.00    +0.000 N 
ATOM     22  O   UNL     1       9.370  -5.890   0.963  0.00  0.00    +0.000 OA
ATOM     23  O   UNL     1      10.217  -6.043  -1.065  0.00  0.00    +0.000 OA
ENDBRANCH  20  21
ENDBRANCH  13  14
ENDBRANCH   1  13
TORSDOF 7
