REMARK  Name = 
REMARK  7 active torsions:
REMARK  status: ('A' for Active; 'I' for Inactive)
REMARK    1  A    between atoms: C_1  and  O_2
REMARK    2  A    between atoms: O_2  and  C_3
REMARK    3  A    between atoms: C_5  and  C_6
REMARK    4  A    between atoms: C_11  and  N_12
REMARK    5  A    between atoms: N_12  and  C_13
REMARK    6  A    between atoms: C_13  and  C_14
REMARK    7  A    between atoms: C_18  and  C_19
REMARK                            x       y       z     vdW  Elec       q    Type
REMARK                         _______ _______ _______ _____ _____    ______ ____
ROOT
ATOM      1  N   UNL     1       4.606  -0.695  -1.752  0.00  0.00    +0.000 N 
ATOM      2  H   UNL     1       4.950  -0.691  -2.708  0.00  0.00    +0.000 HD
ENDROOT
BRANCH   1   8
ATOM      3  C   UNL     1       3.181   0.908  -0.429  0.00  0.00    +0.000 A 
ATOM      4  C   UNL     1       2.979   2.233  -0.008  0.00  0.00    +0.000 A 
ATOM      5  C   UNL     1       3.803   3.277  -0.445  0.00  0.00    +0.000 A 
ATOM      6  C   UNL     1       4.861   2.979  -1.303  0.00  0.00    +0.000 A 
ATOM      7  C   UNL     1       5.072   1.656  -1.724  0.00  0.00    +0.000 A 
ATOM      8  C   UNL     1       4.235   0.595  -1.320  0.00  0.00    +0.000 A 
BRANCH   5   9
ATOM      9  C   UNL     1       3.492   4.645   0.064  0.00  0.00    +0.000 C 
ATOM     10  N   UNL     1       4.286   5.689  -0.319  0.00  0.00    +0.000 N 
ATOM     11  O   UNL     1       2.542   4.851   0.810  0.00  0.00    +0.000 OA
ATOM     12  H   UNL     1       5.093   5.623  -0.916  0.00  0.00    +0.000 HD
ATOM     13  H   UNL     1       4.043   6.600   0.052  0.00  0.00    +0.000 HD
ENDBRANCH   5   9
BRANCH   3  15
ATOM     14  C   UNL     1       1.069   0.210   0.442  0.00  0.00    +0.000 C 
ATOM     15  O   UNL     1       2.393  -0.115   0.037  0.00  0.00    +0.000 OA
ENDBRANCH   3  15
ENDBRANCH   1   8
BRANCH   1  16
ATOM     16  C   UNL     1       3.760  -1.841  -1.454  0.00  0.00    +0.000 C 
BRANCH  16  17
ATOM     17  C   UNL     1       4.344  -3.117  -2.012  0.00  0.00    +0.000 A 
ATOM     18  C   UNL     1       5.253  -3.864  -1.263  0.00  0.00    +0.000 A 
ATOM     19  C   UNL     1       5.681  -5.079  -1.765  0.00  0.00    +0.000 A 
ATOM     20  N   UNL     1       5.291  -5.580  -2.957  0.00  0.00    +0.000 NA
ATOM     21  C   UNL     1       4.439  -4.840  -3.711  0.00  0.00    +0.000 A 
ATOM     22  C   UNL     1       3.945  -3.613  -3.260  0.00  0.00    +0.000 A 
BRANCH  21  23
ATOM     23  C   UNL     1       4.073  -5.422  -5.023  0.00  0.00    +0.000 A 
ATOM     24  C   UNL     1       4.046  -6.820  -5.214  0.00  0.00    +0.000 A 
ATOM     25  C   UNL     1       3.714  -7.382  -6.451  0.00  0.00    +0.000 A 
ATOM     26  C   UNL     1       3.406  -6.551  -7.517  0.00  0.00    +0.000 A 
ATOM     27  F   UNL     1       3.092  -7.084  -8.705  0.00  0.00    +0.000 F 
ATOM     28  C   UNL     1       3.426  -5.172  -7.371  0.00  0.00    +0.000 A 
ATOM     29  C   UNL     1       3.759  -4.613  -6.133  0.00  0.00    +0.000 A 
ENDBRANCH  21  23
ENDBRANCH  16  17
ENDBRANCH   1  16
TORSDOF 6
