REMARK  Name = 
REMARK  6 active torsions:
REMARK  status: ('A' for Active; 'I' for Inactive)
REMARK    1  A    between atoms: C_1  and  C_2
REMARK    2  A    between atoms: C_5  and  C_6
REMARK    3  A    between atoms: C_6  and  C_7
REMARK    4  A    between atoms: C_6  and  N_8
REMARK    5  A    between atoms: N_8  and  C_9
REMARK    6  A    between atoms: C_12  and  C_13
REMARK                            x       y       z     vdW  Elec       q    Type
REMARK                         _______ _______ _______ _____ _____    ______ ____
ROOT
ATOM      1  N   UNL     1      -3.773   1.575   0.129  0.00  0.00    +0.000 N 
ATOM      2  H   UNL     1      -3.081   2.233  -0.230  0.00  0.00    +0.000 HD
ENDROOT
BRANCH   1   3
ATOM      3  C   UNL     1      -5.039   1.891  -0.402  0.00  0.00    +0.000 A 
ATOM      4  C   UNL     1      -6.096   0.986  -0.491  0.00  0.00    +0.000 A 
ATOM      5  C   UNL     1      -7.354   1.385  -0.958  0.00  0.00    +0.000 A 
ATOM      6  C   UNL     1      -7.541   2.713  -1.302  0.00  0.00    +0.000 A 
ATOM      7  N   UNL     1      -6.568   3.655  -1.204  0.00  0.00    +0.000 NA
ATOM      8  C   UNL     1      -5.361   3.215  -0.744  0.00  0.00    +0.000 A 
BRANCH   6   9
ATOM      9  C   UNL     1      -8.897   3.156  -1.771  0.00  0.00    +0.000 C 
ATOM     10  N   UNL     1      -9.015   4.482  -2.086  0.00  0.00    +0.000 N 
ATOM     11  O   UNL     1      -9.849   2.391  -1.861  0.00  0.00    +0.000 OA
ATOM     12  H   UNL     1      -8.223   5.102  -1.971  0.00  0.00    +0.000 HD
ATOM     13  H   UNL     1      -9.920   4.847  -2.353  0.00  0.00    +0.000 HD
ENDBRANCH   6   9
ENDBRANCH   1   3
BRANCH   1  14
ATOM     14  C   UNL     1      -3.244   0.191   0.025  0.00  0.00    +0.000 C 
ATOM     15  C   UNL     1      -3.678  -0.690   1.203  0.00  0.00    +0.000 C 
BRANCH  14  20
ATOM     16  C   UNL     1       2.533  -0.144  -0.378  0.00  0.00    +0.000 C 
ATOM     17  C   UNL     1       1.053   0.013  -0.231  0.00  0.00    +0.000 A 
ATOM     18  C   UNL     1       0.471   0.528   0.926  0.00  0.00    +0.000 A 
ATOM     19  C   UNL     1      -0.919   0.622   1.024  0.00  0.00    +0.000 A 
ATOM     20  C   UNL     1      -1.709   0.197  -0.047  0.00  0.00    +0.000 A 
ATOM     21  N   UNL     1      -1.156  -0.289  -1.188  0.00  0.00    +0.000 NA
ATOM     22  C   UNL     1       0.193  -0.377  -1.251  0.00  0.00    +0.000 A 
ENDBRANCH  14  20
ENDBRANCH   1  14
TORSDOF 4
