REMARK  Name = 
REMARK  6 active torsions:
REMARK  status: ('A' for Active; 'I' for Inactive)
REMARK    1  A    between atoms: C_2  and  C_3
REMARK    2  A    between atoms: N_7  and  C_8
REMARK    3  A    between atoms: C_8  and  C_9
REMARK    4  A    between atoms: C_14  and  C_15
REMARK    5  A    between atoms: C_19  and  O_20
REMARK    6  A    between atoms: O_20  and  C_21
REMARK                            x       y       z     vdW  Elec       q    Type
REMARK                         _______ _______ _______ _____ _____    ______ ____
ROOT
ATOM      1  C   UNL     1      -5.363   0.041   0.249  0.00  0.00    +0.000 A 
ATOM      2  C   UNL     1      -5.651  -1.018  -0.624  0.00  0.00    +0.000 A 
ATOM      3  C   UNL     1      -6.266  -2.173  -0.159  0.00  0.00    +0.000 A 
ATOM      4  C   UNL     1      -6.629  -2.266   1.183  0.00  0.00    +0.000 A 
ATOM      5  F   UNL     1      -7.139  -3.434   1.602  0.00  0.00    +0.000 F 
ATOM      6  C   UNL     1      -6.453  -1.201   2.083  0.00  0.00    +0.000 A 
ATOM      7  C   UNL     1      -5.843  -0.041   1.573  0.00  0.00    +0.000 A 
ENDROOT
BRANCH   6   8
ATOM      8  C   UNL     1      -6.795  -1.308   3.519  0.00  0.00    +0.000 A 
ATOM      9  C   UNL     1      -6.578  -2.492   4.231  0.00  0.00    +0.000 A 
ATOM     10  N   UNL     1      -6.838  -2.669   5.548  0.00  0.00    +0.000 NA
ATOM     11  C   UNL     1      -7.341  -1.607   6.210  0.00  0.00    +0.000 A 
ATOM     12  C   UNL     1      -7.571  -0.368   5.631  0.00  0.00    +0.000 A 
ATOM     13  C   UNL     1      -7.314  -0.229   4.264  0.00  0.00    +0.000 A 
BRANCH  12  14
ATOM     14  O   UNL     1      -8.063   0.595   6.461  0.00  0.00    +0.000 OA
BRANCH  14  15
ATOM     15  C   UNL     1      -7.699   1.926   6.140  0.00  0.00    +0.000 C 
ATOM     16  F   UNL     1      -8.595   2.418   5.251  0.00  0.00    +0.000 F 
ATOM     17  F   UNL     1      -7.824   2.662   7.273  0.00  0.00    +0.000 F 
ENDBRANCH  14  15
ENDBRANCH  12  14
ENDBRANCH   6   8
BRANCH   1  18
ATOM     18  C   UNL     1      -4.445   1.168  -0.206  0.00  0.00    +0.000 C 
ATOM     19  C   UNL     1      -3.365   1.673   0.749  0.00  0.00    +0.000 C 
ATOM     20  C   UNL     1      -2.992   0.747  -0.354  0.00  0.00    +0.000 C 
BRANCH  18  25
ATOM     21  C   UNL     1      -4.769   4.020  -4.642  0.00  0.00    +0.000 A 
ATOM     22  C   UNL     1      -3.955   2.923  -4.379  0.00  0.00    +0.000 A 
ATOM     23  C   UNL     1      -4.068   2.256  -3.155  0.00  0.00    +0.000 A 
ATOM     24  C   UNL     1      -4.975   2.715  -2.209  0.00  0.00    +0.000 A 
ATOM     25  N   UNL     1      -5.150   2.204  -0.938  0.00  0.00    +0.000 N 
ATOM     26  N   UNL     1      -5.788   3.765  -2.473  0.00  0.00    +0.000 NA
ATOM     27  C   UNL     1      -5.676   4.391  -3.666  0.00  0.00    +0.000 A 
ATOM     28  H   UNL     1      -5.907   2.707  -0.484  0.00  0.00    +0.000 HD
BRANCH  21  30
ATOM     29  N   UNL     1      -4.604   5.356  -6.852  0.00  0.00    +0.000 NA
ATOM     30  C   UNL     1      -4.679   4.753  -5.863  0.00  0.00    +0.000 C 
ENDBRANCH  21  30
ENDBRANCH  18  25
ENDBRANCH   1  18
TORSDOF 6
