REMARK  Name = 
REMARK  5 active torsions:
REMARK  status: ('A' for Active; 'I' for Inactive)
REMARK    1  A    between atoms: C_2  and  C_3
REMARK    2  A    between atoms: C_6  and  C_7
REMARK    3  A    between atoms: C_7  and  N_8
REMARK    4  A    between atoms: N_8  and  C_9
REMARK    5  A    between atoms: C_12  and  C_13
REMARK                            x       y       z     vdW  Elec       q    Type
REMARK                         _______ _______ _______ _____ _____    ______ ____
ROOT
ATOM      1  N   UNL     1       4.099   1.224   0.997  0.00  0.00    +0.000 N 
ATOM      2  H   UNL     1       4.294   1.031   1.973  0.00  0.00    +0.000 HD
ENDROOT
BRANCH   1   3
ATOM      3  C   UNL     1       4.332   2.549   0.607  0.00  0.00    +0.000 A 
ATOM      4  C   UNL     1       4.341   3.001  -0.710  0.00  0.00    +0.000 A 
ATOM      5  C   UNL     1       4.587   4.351  -0.987  0.00  0.00    +0.000 A 
ATOM      6  C   UNL     1       4.795   5.221   0.076  0.00  0.00    +0.000 A 
ATOM      7  N   UNL     1       4.761   4.838   1.379  0.00  0.00    +0.000 NA
ATOM      8  C   UNL     1       4.525   3.524   1.596  0.00  0.00    +0.000 A 
BRANCH   6   9
ATOM      9  C   UNL     1       5.075   6.670  -0.176  0.00  0.00    +0.000 C 
ATOM     10  N   UNL     1       5.253   7.433   0.948  0.00  0.00    +0.000 N 
ATOM     11  O   UNL     1       5.143   7.148  -1.301  0.00  0.00    +0.000 OA
ATOM     12  H   UNL     1       5.190   6.994   1.861  0.00  0.00    +0.000 HD
ATOM     13  H   UNL     1       5.447   8.419   0.862  0.00  0.00    +0.000 HD
ENDBRANCH   6   9
ENDBRANCH   1   3
BRANCH   1  14
ATOM     14  C   UNL     1       3.763   0.078   0.150  0.00  0.00    +0.000 C 
ATOM     15  C   UNL     1       4.711  -0.537  -0.861  0.00  0.00    +0.000 C 
ATOM     16  C   UNL     1       4.585  -1.177   0.477  0.00  0.00    +0.000 C 
BRANCH  14  20
ATOM     17  C   UNL     1      -0.460  -0.681  -0.627  0.00  0.00    +0.000 A 
ATOM     18  C   UNL     1       0.243   0.212  -1.436  0.00  0.00    +0.000 A 
ATOM     19  C   UNL     1       1.593   0.488  -1.168  0.00  0.00    +0.000 A 
ATOM     20  C   UNL     1       2.259  -0.111  -0.084  0.00  0.00    +0.000 A 
ATOM     21  C   UNL     1       1.503  -0.932   0.760  0.00  0.00    +0.000 A 
ATOM     22  C   UNL     1       0.166  -1.238   0.487  0.00  0.00    +0.000 A 
BRANCH  17  24
ATOM     23  N   UNL     1      -2.904  -1.336  -1.202  0.00  0.00    +0.000 NA
ATOM     24  C   UNL     1      -1.811  -1.031  -0.941  0.00  0.00    +0.000 C 
ENDBRANCH  17  24
ENDBRANCH  14  20
ENDBRANCH   1  14
TORSDOF 5
