REMARK  Name = 
REMARK  13 active torsions:
REMARK  status: ('A' for Active; 'I' for Inactive)
REMARK    1  A    between atoms: C_1  and  N_2
REMARK    2  A    between atoms: N_2  and  C_3
REMARK    3  A    between atoms: N_2  and  C_4
REMARK    4  A    between atoms: C_4  and  C_5
REMARK    5  A    between atoms: C_5  and  O_6
REMARK    6  A    between atoms: O_6  and  C_7
REMARK    7  A    between atoms: C_10  and  C_11
REMARK    8  A    between atoms: C_11  and  C_12
REMARK    9  A    between atoms: C_11  and  C_13
REMARK   10  A    between atoms: C_11  and  C_14
REMARK   11  A    between atoms: C_14  and  O_15
REMARK   12  A    between atoms: O_15  and  C_16
REMARK   13  A    between atoms: C_19  and  C_20
REMARK                            x       y       z     vdW  Elec       q    Type
REMARK                         _______ _______ _______ _____ _____    ______ ____
ROOT
ATOM      1  C   UNL     1      10.577   2.534  -2.937  0.00  0.00    +0.000 C 
ATOM      2  C   UNL     1      10.807   3.243  -4.289  0.00  0.00    +0.000 C 
ATOM      3  C   UNL     1      11.158   3.409  -1.800  0.00  0.00    +0.000 C 
ENDROOT
BRANCH   1   7
ATOM      4  C   UNL     1       6.290   2.038  -2.168  0.00  0.00    +0.000 A 
ATOM      5  C   UNL     1       7.127   0.929  -2.252  0.00  0.00    +0.000 A 
ATOM      6  C   UNL     1       8.492   1.084  -2.504  0.00  0.00    +0.000 A 
ATOM      7  C   UNL     1       9.067   2.348  -2.689  0.00  0.00    +0.000 A 
ATOM      8  C   UNL     1       8.204   3.459  -2.617  0.00  0.00    +0.000 A 
ATOM      9  C   UNL     1       6.836   3.305  -2.356  0.00  0.00    +0.000 A 
BRANCH   4  10
ATOM     10  O   UNL     1       4.945   1.999  -1.906  0.00  0.00    +0.000 OA
BRANCH  10  11
ATOM     11  C   UNL     1       4.391   0.684  -1.781  0.00  0.00    +0.000 C 
BRANCH  11  12
ATOM     12  C   UNL     1       2.879   0.776  -1.543  0.00  0.00    +0.000 C 
BRANCH  12  14
ATOM     13  C   UNL     1       0.800  -0.342  -1.075  0.00  0.00    +0.000 C 
ATOM     14  N   UNL     1       2.225  -0.536  -1.355  0.00  0.00    +0.000 NA
ATOM     15  C   UNL     1       2.385  -1.412  -2.517  0.00  0.00    +0.000 C 
ENDBRANCH  12  14
ENDBRANCH  11  12
ENDBRANCH  10  11
ENDBRANCH   4  10
ENDBRANCH   1   7
BRANCH   1  16
ATOM     16  C   UNL     1      11.399   1.207  -2.933  0.00  0.00    +0.000 C 
BRANCH  16  17
ATOM     17  O   UNL     1      11.029   0.360  -4.029  0.00  0.00    +0.000 OA
BRANCH  17  18
ATOM     18  C   UNL     1      11.561  -0.901  -4.040  0.00  0.00    +0.000 A 
ATOM     19  C   UNL     1      12.581  -1.355  -3.202  0.00  0.00    +0.000 A 
ATOM     20  C   UNL     1      13.067  -2.657  -3.331  0.00  0.00    +0.000 A 
ATOM     21  C   UNL     1      12.534  -3.524  -4.291  0.00  0.00    +0.000 A 
ATOM     22  C   UNL     1      11.507  -3.076  -5.129  0.00  0.00    +0.000 A 
ATOM     23  C   UNL     1      11.026  -1.766  -5.000  0.00  0.00    +0.000 A 
BRANCH  21  24
ATOM     24  C   UNL     1      13.121  -4.885  -4.398  0.00  0.00    +0.000 C 
ATOM     25  N   UNL     1      12.342  -5.875  -4.925  0.00  0.00    +0.000 N 
ATOM     26  O   UNL     1      14.252  -5.129  -3.992  0.00  0.00    +0.000 OA
ATOM     27  H   UNL     1      11.345  -5.778  -5.049  0.00  0.00    +0.000 HD
ATOM     28  H   UNL     1      12.723  -6.811  -4.882  0.00  0.00    +0.000 HD
ENDBRANCH  21  24
ENDBRANCH  17  18
ENDBRANCH  16  17
ENDBRANCH   1  16
TORSDOF 9
