REMARK  Name = 
REMARK  6 active torsions:
REMARK  status: ('A' for Active; 'I' for Inactive)
REMARK    1  A    between atoms: C_2  and  C_4
REMARK    2  A    between atoms: C_7  and  N_8
REMARK    3  A    between atoms: N_8  and  C_9
REMARK    4  A    between atoms: C_9  and  C_10
REMARK    5  A    between atoms: C_10  and  C_13
REMARK    6  A    between atoms: C_17  and  C_18
REMARK                            x       y       z     vdW  Elec       q    Type
REMARK                         _______ _______ _______ _____ _____    ______ ____
ROOT
ATOM      1  C   UNL     1       5.978  -7.248   0.548  0.00  0.00    +0.000 C 
ATOM      2  F   UNL     1       7.259  -6.895   0.217  0.00  0.00    +0.000 F 
ATOM      3  F   UNL     1       5.979  -7.330   1.915  0.00  0.00    +0.000 F 
ENDROOT
BRANCH   1   4
ATOM      4  C   UNL     1       5.582  -8.557  -0.108  0.00  0.00    +0.000 A 
ATOM      5  C   UNL     1       6.042  -8.862  -1.397  0.00  0.00    +0.000 A 
ATOM      6  C   UNL     1       5.710 -10.071  -1.997  0.00  0.00    +0.000 A 
ATOM      7  C   UNL     1       4.934 -11.002  -1.302  0.00  0.00    +0.000 A 
ATOM      8  C   UNL     1       4.479 -10.753   0.007  0.00  0.00    +0.000 A 
ATOM      9  C   UNL     1       4.784  -9.499   0.571  0.00  0.00    +0.000 A 
BRANCH   8  10
ATOM     10  C   UNL     1       3.767 -11.792   0.785  0.00  0.00    +0.000 A 
ATOM     11  C   UNL     1       4.081 -13.148   0.661  0.00  0.00    +0.000 A 
ATOM     12  C   UNL     1       3.413 -14.085   1.445  0.00  0.00    +0.000 A 
ATOM     13  C   UNL     1       2.448 -13.651   2.340  0.00  0.00    +0.000 A 
ATOM     14  C   UNL     1       2.193 -12.292   2.412  0.00  0.00    +0.000 A 
ATOM     15  N   UNL     1       2.828 -11.359   1.664  0.00  0.00    +0.000 NA
ENDBRANCH   8  10
ENDBRANCH   1   4
BRANCH   1  16
ATOM     16  C   UNL     1       5.027  -6.094   0.140  0.00  0.00    +0.000 C 
BRANCH  16  17
ATOM     17  N   UNL     1       5.409  -4.797   0.731  0.00  0.00    +0.000 N 
ATOM     18  H   UNL     1       5.804  -4.861   1.668  0.00  0.00    +0.000 HD
BRANCH  17  22
ATOM     19  C   UNL     1       3.382  -1.192  -0.100  0.00  0.00    +0.000 A 
ATOM     20  C   UNL     1       2.934  -2.383  -0.672  0.00  0.00    +0.000 A 
ATOM     21  C   UNL     1       3.585  -3.589  -0.384  0.00  0.00    +0.000 A 
ATOM     22  C   UNL     1       4.672  -3.643   0.495  0.00  0.00    +0.000 A 
ATOM     23  C   UNL     1       5.120  -2.433   1.046  0.00  0.00    +0.000 A 
ATOM     24  C   UNL     1       4.488  -1.217   0.752  0.00  0.00    +0.000 A 
BRANCH  19  26
ATOM     25  N   UNL     1       1.420   0.090  -0.766  0.00  0.00    +0.000 N 
ATOM     26  C   UNL     1       2.743   0.111  -0.418  0.00  0.00    +0.000 C 
ATOM     27  O   UNL     1       3.358   1.167  -0.345  0.00  0.00    +0.000 OA
ATOM     28  H   UNL     1       0.973   0.990  -0.888  0.00  0.00    +0.000 HD
ATOM     29  H   UNL     1       0.828  -0.712  -0.604  0.00  0.00    +0.000 HD
ENDBRANCH  19  26
ENDBRANCH  17  22
ENDBRANCH  16  17
ENDBRANCH   1  16
TORSDOF 6
