REMARK  Name = 
REMARK  4 active torsions:
REMARK  status: ('A' for Active; 'I' for Inactive)
REMARK    1  A    between atoms: C_2  and  C_3
REMARK    2  A    between atoms: C_6  and  N_7
REMARK    3  A    between atoms: N_7  and  C_8
REMARK    4  A    between atoms: C_8  and  C_9
REMARK                            x       y       z     vdW  Elec       q    Type
REMARK                         _______ _______ _______ _____ _____    ______ ____
ROOT
ATOM      1  N   UNL     1       3.737  -0.041  -0.067  0.00  0.00    +0.000 N 
ATOM      2  H   UNL     1       4.037   0.734   0.523  0.00  0.00    +0.000 HD
ENDROOT
BRANCH   1   6
ATOM      3  C   UNL     1      -0.489  -0.170  -0.097  0.00  0.00    +0.000 A 
ATOM      4  C   UNL     1       0.216  -1.019   0.761  0.00  0.00    +0.000 A 
ATOM      5  C   UNL     1       1.618  -0.997   0.784  0.00  0.00    +0.000 A 
ATOM      6  C   UNL     1       2.339  -0.147  -0.060  0.00  0.00    +0.000 A 
ATOM      7  C   UNL     1       1.617   0.739  -0.871  0.00  0.00    +0.000 A 
ATOM      8  C   UNL     1       0.217   0.716  -0.909  0.00  0.00    +0.000 A 
BRANCH   3  10
ATOM      9  N   UNL     1      -3.084  -0.241  -0.170  0.00  0.00    +0.000 NA
ATOM     10  C   UNL     1      -1.922  -0.208  -0.137  0.00  0.00    +0.000 C 
ENDBRANCH   3  10
ENDBRANCH   1   6
BRANCH   1  11
ATOM     11  C   UNL     1       4.521  -1.243   0.207  0.00  0.00    +0.000 C 
BRANCH  11  12
ATOM     12  C   UNL     1       5.999  -0.961   0.045  0.00  0.00    +0.000 A 
ATOM     13  C   UNL     1       6.899  -1.214   1.092  0.00  0.00    +0.000 A 
ATOM     14  C   UNL     1       8.271  -1.021   0.916  0.00  0.00    +0.000 A 
ATOM     15  C   UNL     1       8.762  -0.572  -0.309  0.00  0.00    +0.000 A 
ATOM     16  C   UNL     1       7.881  -0.306  -1.354  0.00  0.00    +0.000 A 
ATOM     17  C   UNL     1       6.508  -0.500  -1.180  0.00  0.00    +0.000 A 
ENDBRANCH  11  12
ENDBRANCH   1  11
TORSDOF 4
