REMARK  Name = 
REMARK  11 active torsions:
REMARK  status: ('A' for Active; 'I' for Inactive)
REMARK    1  A    between atoms: C_1  and  N_2
REMARK    2  A    between atoms: N_2  and  C_3
REMARK    3  A    between atoms: C_3  and  C_4
REMARK    4  A    between atoms: C_4  and  C_5
REMARK    5  A    between atoms: C_5  and  N_6
REMARK    6  A    between atoms: N_6  and  C_7
REMARK    7  A    between atoms: C_7  and  C_8
REMARK    8  A    between atoms: C_11  and  C_12
REMARK    9  A    between atoms: C_12  and  N_13
REMARK   10  A    between atoms: CA_18  and  C_19
REMARK   11  A    between atoms: C_19  and  O_20
REMARK                            x       y       z     vdW  Elec       q    Type
REMARK                         _______ _______ _______ _____ _____    ______ ____
ROOT
ATOM      1  C   UNL     1       8.481   2.767  -3.190  0.00  0.00    +0.000 A 
ATOM      2  C   UNL     1       9.133   4.009  -3.101  0.00  0.00    +0.000 A 
ATOM      3  C   UNL     1      10.531   4.080  -3.059  0.00  0.00    +0.000 A 
ATOM      4  C   UNL     1      11.306   2.916  -3.095  0.00  0.00    +0.000 A 
ATOM      5  C   UNL     1      10.655   1.676  -3.154  0.00  0.00    +0.000 A 
ATOM      6  C   UNL     1       9.256   1.602  -3.213  0.00  0.00    +0.000 A 
ENDROOT
BRANCH   1   7
ATOM      7  C   UNL     1       6.975   2.704  -3.249  0.00  0.00    +0.000 C 
BRANCH   7   8
ATOM      8  N   UNL     1       6.469   3.415  -4.421  0.00  0.00    +0.000 NA
ATOM      9  H   UNL     1       6.779   4.384  -4.390  0.00  0.00    +0.000 HD
BRANCH   8  10
ATOM     10  C   UNL     1       5.013   3.368  -4.487  0.00  0.00    +0.000 C 
BRANCH  10  11
ATOM     11  C   UNL     1       4.541   4.125  -5.727  0.00  0.00    +0.000 C 
BRANCH  11  12
ATOM     12  C   UNL     1       3.018   4.085  -5.817  0.00  0.00    +0.000 C 
BRANCH  12  14
ATOM     13  C   UNL     1       1.110   4.774  -7.099  0.00  0.00    +0.000 C 
ATOM     14  N   UNL     1       2.562   4.807  -7.003  0.00  0.00    +0.000 NA
ATOM     15  H   UNL     1       2.881   5.775  -6.961  0.00  0.00    +0.000 HD
ENDBRANCH  12  14
ENDBRANCH  11  12
ENDBRANCH  10  11
ENDBRANCH   8  10
ENDBRANCH   7   8
ENDBRANCH   1   7
BRANCH   4  16
ATOM     16  C   UNL     1      12.824   2.968  -3.070  0.00  0.00    +0.000 C 
BRANCH  16  17
ATOM     17  N   UNL     1      13.309   2.903  -1.714  0.00  0.00    +0.000 N 
ATOM     18  C   UNL     1      14.680   2.965  -1.559  0.00  0.00    +0.000 A 
ATOM     19  N   UNL     1      15.156   2.298  -0.502  0.00  0.00    +0.000 NA
ATOM     20  C   UNL     1      16.482   2.359  -0.292  0.00  0.00    +0.000 A 
ATOM     21  C   UNL     1      17.349   3.050  -1.107  0.00  0.00    +0.000 A 
ATOM     22  CA  UNL     1      16.768   3.707  -2.179  0.00  0.00    +0.000 A 
ATOM     23  N   UNL     1      15.435   3.659  -2.414  0.00  0.00    +0.000 NA
ATOM     24  H   UNL     1      13.023   2.066  -1.208  0.00  0.00    +0.000 HD
BRANCH  22  25
ATOM     25  C   UNL     1      17.596   4.537  -3.125  0.00  0.00    +0.000 C 
BRANCH  25  26
ATOM     26  O   UNL     1      18.243   5.614  -2.455  0.00  0.00    +0.000 OA
ATOM     27  H   UNL     1      17.537   6.233  -2.189  0.00  0.00    +0.000 HD
ENDBRANCH  25  26
ENDBRANCH  22  25
ENDBRANCH  16  17
ENDBRANCH   4  16
TORSDOF 10
