REMARK  Name = 
REMARK  4 active torsions:
REMARK  status: ('A' for Active; 'I' for Inactive)
REMARK    1  A    between atoms: C_2  and  C_3
REMARK    2  A    between atoms: C_6  and  N_7
REMARK    3  A    between atoms: N_7  and  C_8
REMARK    4  A    between atoms: C_8  and  C_9
REMARK                            x       y       z     vdW  Elec       q    Type
REMARK                         _______ _______ _______ _____ _____    ______ ____
ROOT
ATOM      1  C   UNL     1       4.541  -1.173   0.230  0.00  0.00    +0.000 C 
ATOM      2  C   UNL     1       3.211  -1.616   0.820  0.00  0.00    +0.000 C 
ATOM      3  C   UNL     1       3.245  -0.428  -0.077  0.00  0.00    +0.000 C 
ENDROOT
BRANCH   1   4
ATOM      4  C   UNL     1       5.518  -0.338   1.044  0.00  0.00    +0.000 A 
ATOM      5  C   UNL     1       6.101   0.826   0.540  0.00  0.00    +0.000 A 
ATOM      6  C   UNL     1       6.824   1.633   1.398  0.00  0.00    +0.000 A 
ATOM      7  N   UNL     1       7.017   1.355   2.705  0.00  0.00    +0.000 NA
ATOM      8  C   UNL     1       6.524   0.198   3.192  0.00  0.00    +0.000 A 
ATOM      9  N   UNL     1       6.783  -0.118   4.502  0.00  0.00    +0.000 N 
ATOM     10  C   UNL     1       6.774   0.945   5.510  0.00  0.00    +0.000 C 
ATOM     11  C   UNL     1       7.865   0.649   6.549  0.00  0.00    +0.000 C 
ATOM     12  O   UNL     1       7.721  -0.670   7.114  0.00  0.00    +0.000 OA
ATOM     13  C   UNL     1       7.791  -1.666   6.080  0.00  0.00    +0.000 C 
ATOM     14  C   UNL     1       6.681  -1.473   5.038  0.00  0.00    +0.000 C 
ATOM     15  C   UNL     1       5.793  -0.656   2.376  0.00  0.00    +0.000 A 
ENDBRANCH   1   4
BRANCH   1  16
ATOM     16  N   UNL     1       5.163  -2.022  -0.790  0.00  0.00    +0.000 N 
ATOM     17  H   UNL     1       5.045  -1.771  -1.764  0.00  0.00    +0.000 HD
BRANCH  16  21
ATOM     18  C   UNL     1       6.703  -5.940  -0.245  0.00  0.00    +0.000 A 
ATOM     19  C   UNL     1       5.987  -5.333   0.788  0.00  0.00    +0.000 A 
ATOM     20  C   UNL     1       5.470  -4.037   0.625  0.00  0.00    +0.000 A 
ATOM     21  C   UNL     1       5.623  -3.340  -0.578  0.00  0.00    +0.000 A 
ATOM     22  C   UNL     1       6.365  -3.958  -1.598  0.00  0.00    +0.000 A 
ATOM     23  C   UNL     1       6.898  -5.242  -1.437  0.00  0.00    +0.000 A 
BRANCH  18  25
ATOM     24  N   UNL     1       7.676  -8.328   0.055  0.00  0.00    +0.000 NA
ATOM     25  C   UNL     1       7.252  -7.256  -0.080  0.00  0.00    +0.000 C 
ENDBRANCH  18  25
ENDBRANCH  16  21
ENDBRANCH   1  16
TORSDOF 4
