REMARK  Name = 
REMARK  8 active torsions:
REMARK  status: ('A' for Active; 'I' for Inactive)
REMARK    1  A    between atoms: N_1  and  C_2
REMARK    2  A    between atoms: C_2  and  C_3
REMARK    3  A    between atoms: C_6  and  C_7
REMARK    4  A    between atoms: N_9  and  C_10
REMARK    5  A    between atoms: C_10  and  C_11
REMARK    6  A    between atoms: C_14  and  C_15
REMARK    7  A    between atoms: C_15  and  N_16
REMARK    8  A    between atoms: C_17  and  C_19
REMARK                            x       y       z     vdW  Elec       q    Type
REMARK                         _______ _______ _______ _____ _____    ______ ____
ROOT
ATOM      1  C   UNL     1       6.184   7.530   1.835  0.00  0.00    +0.000 A 
ATOM      2  C   UNL     1       4.862   7.969   2.000  0.00  0.00    +0.000 A 
ATOM      3  C   UNL     1       4.542   9.337   1.964  0.00  0.00    +0.000 A 
ATOM      4  C   UNL     1       5.537  10.303   1.754  0.00  0.00    +0.000 A 
ATOM      5  C   UNL     1       6.862   9.865   1.621  0.00  0.00    +0.000 A 
ATOM      6  C   UNL     1       7.180   8.498   1.645  0.00  0.00    +0.000 A 
ENDROOT
BRANCH   1   7
ATOM      7  C   UNL     1       6.526   6.056   1.858  0.00  0.00    +0.000 C 
BRANCH   7  10
ATOM      8  C   UNL     1       6.659   4.102   0.348  0.00  0.00    +0.000 C 
ATOM      9  O   UNL     1       6.975   3.350   1.261  0.00  0.00    +0.000 OA
ATOM     10  N   UNL     1       6.420   5.448   0.551  0.00  0.00    +0.000 N 
ATOM     11  H   UNL     1       6.203   6.039  -0.235  0.00  0.00    +0.000 HD
BRANCH   8  15
ATOM     12  C   UNL     1       6.459   2.167  -2.747  0.00  0.00    +0.000 A 
ATOM     13  C   UNL     1       6.105   3.400  -3.253  0.00  0.00    +0.000 A 
ATOM     14  C   UNL     1       6.131   4.325  -2.180  0.00  0.00    +0.000 A 
ATOM     15  C   UNL     1       6.497   3.650  -1.024  0.00  0.00    +0.000 A 
ATOM     16  N   UNL     1       6.707   2.337  -1.404  0.00  0.00    +0.000 N 
ATOM     17  H   UNL     1       6.975   1.588  -0.775  0.00  0.00    +0.000 HD
BRANCH  12  18
ATOM     18  C   UNL     1       6.604   0.852  -3.430  0.00  0.00    +0.000 C 
BRANCH  18  19
ATOM     19  N   UNL     1       6.285  -0.236  -2.516  0.00  0.00    +0.000 NA
ATOM     20  H   UNL     1       6.341  -1.114  -3.029  0.00  0.00    +0.000 HD
ATOM     21  H   UNL     1       5.308  -0.144  -2.238  0.00  0.00    +0.000 HD
ENDBRANCH  18  19
ENDBRANCH  12  18
ENDBRANCH   8  15
ENDBRANCH   7  10
ENDBRANCH   1   7
BRANCH   4  22
ATOM     22  C   UNL     1       5.212  11.780   1.681  0.00  0.00    +0.000 C 
BRANCH  22  23
ATOM     23  N   UNL     1       5.285  12.415   2.973  0.00  0.00    +0.000 N 
ATOM     24  C   UNL     1       5.000  13.750   3.149  0.00  0.00    +0.000 C 
ATOM     25  O   UNL     1       4.647  14.475   2.226  0.00  0.00    +0.000 OA
ATOM     26  H   UNL     1       5.859  11.952   3.669  0.00  0.00    +0.000 HD
BRANCH  24  27
ATOM     27  C   UNL     1       5.083  14.245   4.532  0.00  0.00    +0.000 A 
ATOM     28  C   UNL     1       4.318  15.331   4.935  0.00  0.00    +0.000 A 
ATOM     29  S   UNL     1       4.513  15.728   6.585  0.00  0.00    +0.000 S 
ATOM     30  C   UNL     1       5.669  14.499   6.803  0.00  0.00    +0.000 A 
ATOM     31  N   UNL     1       6.277  14.308   8.005  0.00  0.00    +0.000 NA
ATOM     32  C   UNL     1       7.155  13.360   8.015  0.00  0.00    +0.000 A 
ATOM     33  N   UNL     1       7.473  12.579   6.935  0.00  0.00    +0.000 N 
ATOM     34  C   UNL     1       6.851  12.704   5.717  0.00  0.00    +0.000 A 
ATOM     35  O   UNL     1       7.106  11.939   4.794  0.00  0.00    +0.000 OA
ATOM     36  C   UNL     1       5.878  13.776   5.642  0.00  0.00    +0.000 A 
ATOM     37  H   UNL     1       8.154  11.838   7.012  0.00  0.00    +0.000 HD
ENDBRANCH  24  27
ENDBRANCH  22  23
ENDBRANCH   4  22
TORSDOF 8
