REMARK  Name = 
REMARK  8 active torsions:
REMARK  status: ('A' for Active; 'I' for Inactive)
REMARK    1  A    between atoms: C_1  and  C_2
REMARK    2  A    between atoms: N_4  and  C_5
REMARK    3  A    between atoms: C_7  and  C_8
REMARK    4  A    between atoms: C_8  and  C_9
REMARK    5  A    between atoms: C_9  and  N_10
REMARK    6  A    between atoms: C_14  and  C_15
REMARK    7  A    between atoms: C_21  and  C_22
REMARK    8  A    between atoms: C_28  and  C_29
REMARK                            x       y       z     vdW  Elec       q    Type
REMARK                         _______ _______ _______ _____ _____    ______ ____
ROOT
ATOM      1  C   UNL     1       1.917   1.373  -3.224  0.00  0.00    +0.000 A 
ATOM      2  C   UNL     1       2.319   2.647  -3.660  0.00  0.00    +0.000 A 
ATOM      3  C   UNL     1       1.565   3.411  -4.567  0.00  0.00    +0.000 A 
ATOM      4  C   UNL     1       0.369   2.887  -5.060  0.00  0.00    +0.000 A 
ATOM      5  C   UNL     1      -0.073   1.625  -4.647  0.00  0.00    +0.000 A 
ATOM      6  C   UNL     1       0.694   0.900  -3.714  0.00  0.00    +0.000 A 
ENDROOT
BRANCH   1  10
ATOM      7  C   UNL     1       1.974  -2.382  -3.057  0.00  0.00    +0.000 C 
ATOM      8  C   UNL     1       2.695  -1.800  -1.843  0.00  0.00    +0.000 C 
ATOM      9  C   UNL     1       2.197  -0.392  -1.451  0.00  0.00    +0.000 C 
ATOM     10  N   UNL     1       2.711   0.645  -2.359  0.00  0.00    +0.000 N 
ATOM     11  C   UNL     1       4.170   0.576  -2.569  0.00  0.00    +0.000 C 
ATOM     12  C   UNL     1       4.593  -0.856  -2.966  0.00  0.00    +0.000 C 
ATOM     13  C   UNL     1       6.111  -0.968  -3.027  0.00  0.00    +0.000 C 
ATOM     14  O   UNL     1       4.124  -1.833  -2.017  0.00  0.00    +0.000 OA
ENDBRANCH   1  10
BRANCH   5  15
ATOM     15  C   UNL     1      -1.324   1.011  -5.225  0.00  0.00    +0.000 C 
ATOM     16  F   UNL     1      -1.939   1.796  -6.153  0.00  0.00    +0.000 F 
ATOM     17  F   UNL     1      -1.077  -0.175  -5.849  0.00  0.00    +0.000 F 
ATOM     18  F   UNL     1      -2.265   0.745  -4.278  0.00  0.00    +0.000 F 
ENDBRANCH   5  15
BRANCH   3  19
ATOM     19  C   UNL     1       2.090   4.733  -5.079  0.00  0.00    +0.000 C 
BRANCH  19  20
ATOM     20  C   UNL     1       2.916   4.521  -6.351  0.00  0.00    +0.000 C 
BRANCH  20  21
ATOM     21  N   UNL     1       3.413   5.794  -6.888  0.00  0.00    +0.000 N 
ATOM     22  C   UNL     1       4.193   5.621  -8.052  0.00  0.00    +0.000 A 
ATOM     23  C   UNL     1       4.753   6.730  -8.699  0.00  0.00    +0.000 A 
ATOM     24  N   UNL     1       5.525   6.656  -9.821  0.00  0.00    +0.000 NA
ATOM     25  C   UNL     1       5.701   5.391 -10.296  0.00  0.00    +0.000 A 
ATOM     26  C   UNL     1       5.136   4.287  -9.684  0.00  0.00    +0.000 A 
ATOM     27  N   UNL     1       4.377   4.384  -8.562  0.00  0.00    +0.000 NA
ATOM     28  H   UNL     1       3.959   6.311  -6.201  0.00  0.00    +0.000 HD
BRANCH  25  29
ATOM     29  C   UNL     1       6.542   5.200 -11.507  0.00  0.00    +0.000 C 
ATOM     30  N   UNL     1       7.076   6.335 -12.055  0.00  0.00    +0.000 N 
ATOM     31  O   UNL     1       6.758   4.094 -11.987  0.00  0.00    +0.000 OA
ATOM     32  H   UNL     1       6.884   7.241 -11.642  0.00  0.00    +0.000 HD
ATOM     33  H   UNL     1       7.661   6.257 -12.873  0.00  0.00    +0.000 HD
ENDBRANCH  25  29
ENDBRANCH  20  21
ENDBRANCH  19  20
ENDBRANCH   3  19
TORSDOF 6
