REMARK  Name = 
REMARK  9 active torsions:
REMARK  status: ('A' for Active; 'I' for Inactive)
REMARK    1  A    between atoms: C_1  and  C_2
REMARK    2  A    between atoms: C_2  and  N_3
REMARK    3  A    between atoms: C_2  and  C_19
REMARK    4  A    between atoms: N_3  and  C_4
REMARK    5  A    between atoms: C_4  and  C_5
REMARK    6  A    between atoms: C_8  and  C_9
REMARK    7  A    between atoms: C_9  and  N_10
REMARK    8  A    between atoms: N_10  and  C_11
REMARK    9  A    between atoms: C_11  and  C_12
REMARK                            x       y       z     vdW  Elec       q    Type
REMARK                         _______ _______ _______ _____ _____    ______ ____
ROOT
ATOM      1  C   UNL     1       2.490  -2.001  -1.256  0.00  0.00    +0.000 C 
ENDROOT
BRANCH   1   2
ATOM      2  C   UNL     1       2.947  -2.669  -2.534  0.00  0.00    +0.000 A 
ATOM      3  C   UNL     1       3.649  -1.961  -3.519  0.00  0.00    +0.000 A 
ATOM      4  C   UNL     1       4.057  -2.597  -4.696  0.00  0.00    +0.000 A 
ATOM      5  C   UNL     1       3.786  -3.956  -4.909  0.00  0.00    +0.000 A 
ATOM      6  C   UNL     1       3.106  -4.669  -3.916  0.00  0.00    +0.000 A 
ATOM      7  C   UNL     1       2.690  -4.032  -2.744  0.00  0.00    +0.000 A 
BRANCH   5   8
ATOM      8  C   UNL     1       4.179  -4.635  -6.201  0.00  0.00    +0.000 C 
BRANCH   8   9
ATOM      9  N   UNL     1       5.622  -4.568  -6.421  0.00  0.00    +0.000 NA
ATOM     10  H   UNL     1       6.084  -5.056  -5.650  0.00  0.00    +0.000 HD
BRANCH   9  11
ATOM     11  C   UNL     1       5.983  -5.259  -7.663  0.00  0.00    +0.000 C 
BRANCH  11  12
ATOM     12  C   UNL     1       7.459  -5.191  -7.873  0.00  0.00    +0.000 A 
ATOM     13  N   UNL     1       8.302  -6.195  -7.985  0.00  0.00    +0.000 NA
ATOM     14  C   UNL     1       9.540  -5.625  -8.142  0.00  0.00    +0.000 A 
ATOM     15  C   UNL     1       9.448  -4.251  -8.127  0.00  0.00    +0.000 A 
ATOM     16  N   UNL     1       8.120  -3.990  -7.951  0.00  0.00    +0.000 N 
ATOM     17  H   UNL     1       7.677  -3.086  -7.849  0.00  0.00    +0.000 HD
ENDBRANCH  11  12
ENDBRANCH   9  11
ENDBRANCH   8   9
ENDBRANCH   5   8
ENDBRANCH   1   2
BRANCH   1  18
ATOM     18  N   UNL     1       1.510  -0.943  -1.511  0.00  0.00    +0.000 NA
ATOM     19  H   UNL     1       1.938  -0.242  -2.113  0.00  0.00    +0.000 HD
BRANCH  18  21
ATOM     20  C   UNL     1       0.298  -1.263   0.632  0.00  0.00    +0.000 C 
ATOM     21  C   UNL     1       1.043  -0.279  -0.282  0.00  0.00    +0.000 C 
BRANCH  21  22
ATOM     22  C   UNL     1       0.145   0.868  -0.729  0.00  0.00    +0.000 A 
ATOM     23  C   UNL     1      -1.042   0.682  -1.424  0.00  0.00    +0.000 A 
ATOM     24  S   UNL     1      -1.825   2.136  -1.847  0.00  0.00    +0.000 S 
ATOM     25  C   UNL     1      -0.606   3.073  -1.118  0.00  0.00    +0.000 A 
ATOM     26  N   UNL     1      -0.662   4.432  -1.148  0.00  0.00    +0.000 NA
ATOM     27  C   UNL     1       0.322   5.018  -0.555  0.00  0.00    +0.000 A 
ATOM     28  N   UNL     1       1.354   4.370   0.075  0.00  0.00    +0.000 N 
ATOM     29  C   UNL     1       1.456   2.994   0.135  0.00  0.00    +0.000 A 
ATOM     30  O   UNL     1       2.386   2.449   0.719  0.00  0.00    +0.000 OA
ATOM     31  C   UNL     1       0.376   2.287  -0.538  0.00  0.00    +0.000 A 
ATOM     32  H   UNL     1       2.084   4.893   0.533  0.00  0.00    +0.000 HD
ENDBRANCH  21  22
ENDBRANCH  18  21
ENDBRANCH   1  18
TORSDOF 8
