REMARK  Name = 
REMARK  5 active torsions:
REMARK  status: ('A' for Active; 'I' for Inactive)
REMARK    1  A    between atoms: N_1  and  C_2
REMARK    2  A    between atoms: C_2  and  C_3
REMARK    3  A    between atoms: C_6  and  O_7
REMARK    4  A    between atoms: O_7  and  C_8
REMARK    5  A    between atoms: C_8  and  C_9
REMARK                            x       y       z     vdW  Elec       q    Type
REMARK                         _______ _______ _______ _____ _____    ______ ____
ROOT
ATOM      1  C   UNL     1       2.904  -1.001  -1.048  0.00  0.00    +0.000 A 
ATOM      2  C   UNL     1       3.488  -0.558  -2.244  0.00  0.00    +0.000 A 
ATOM      3  C   UNL     1       3.855  -1.464  -3.242  0.00  0.00    +0.000 A 
ATOM      4  C   UNL     1       3.676  -2.833  -3.045  0.00  0.00    +0.000 A 
ATOM      5  C   UNL     1       3.076  -3.273  -1.864  0.00  0.00    +0.000 A 
ATOM      6  F   UNL     1       2.868  -4.583  -1.658  0.00  0.00    +0.000 F 
ATOM      7  C   UNL     1       2.695  -2.373  -0.869  0.00  0.00    +0.000 A 
ENDROOT
BRANCH   1   8
ATOM      8  C   UNL     1       2.498  -0.002   0.001  0.00  0.00    +0.000 C 
BRANCH   8   9
ATOM      9  N   UNL     1       1.503   0.923  -0.528  0.00  0.00    +0.000 NA
ATOM     10  H   UNL     1       1.155   1.511   0.226  0.00  0.00    +0.000 HD
ATOM     11  H   UNL     1       0.706   0.387  -0.870  0.00  0.00    +0.000 HD
ENDBRANCH   8   9
ENDBRANCH   1   8
BRANCH   4  12
ATOM     12  O   UNL     1       4.051  -3.799  -3.942  0.00  0.00    +0.000 OA
BRANCH  12  13
ATOM     13  C   UNL     1       5.059  -3.397  -4.871  0.00  0.00    +0.000 C 
BRANCH  13  14
ATOM     14  C   UNL     1       5.786  -4.574  -5.474  0.00  0.00    +0.000 A 
ATOM     15  C   UNL     1       5.399  -5.903  -5.257  0.00  0.00    +0.000 A 
ATOM     16  C   UNL     1       6.136  -6.947  -5.818  0.00  0.00    +0.000 A 
ATOM     17 CL   UNL     1       5.660  -8.578  -5.528  0.00  0.00    +0.000 Cl
ATOM     18  C   UNL     1       7.256  -6.689  -6.603  0.00  0.00    +0.000 A 
ATOM     19  C   UNL     1       7.637  -5.372  -6.832  0.00  0.00    +0.000 A 
ATOM     20 CL   UNL     1       9.023  -5.030  -7.792  0.00  0.00    +0.000 Cl
ATOM     21  C   UNL     1       6.909  -4.320  -6.280  0.00  0.00    +0.000 A 
ENDBRANCH  13  14
ENDBRANCH  12  13
ENDBRANCH   4  12
TORSDOF 5
