REMARK  Name = 
REMARK  4 active torsions:
REMARK  status: ('A' for Active; 'I' for Inactive)
REMARK    1  A    between atoms: C_2  and  C_4
REMARK    2  A    between atoms: N_8  and  C_9
REMARK    3  A    between atoms: C_9  and  C_10
REMARK    4  A    between atoms: C_14  and  N_15
REMARK                            x       y       z     vdW  Elec       q    Type
REMARK                         _______ _______ _______ _____ _____    ______ ____
ROOT
ATOM      1  C   UNL     1       0.310   1.555  -7.146  0.00  0.00    +0.000 A 
ATOM      2  C   UNL     1       1.241   2.464  -7.639  0.00  0.00    +0.000 A 
ATOM      3  C   UNL     1       2.526   2.481  -7.095  0.00  0.00    +0.000 A 
ATOM      4  C   UNL     1       2.859   1.597  -6.074  0.00  0.00    +0.000 A 
ATOM      5  N   UNL     1       4.129   1.481  -5.551  0.00  0.00    +0.000 N 
ATOM      6  N   UNL     1       1.954   0.731  -5.572  0.00  0.00    +0.000 NA
ATOM      7  C   UNL     1       0.703   0.733  -6.104  0.00  0.00    +0.000 A 
ATOM      8  H   UNL     1       4.110   0.847  -4.758  0.00  0.00    +0.000 HD
ENDROOT
BRANCH   1  10
ATOM      9  N   UNL     1      -1.230   1.772  -9.009  0.00  0.00    +0.000 N 
ATOM     10  C   UNL     1      -1.058   1.445  -7.691  0.00  0.00    +0.000 C 
ATOM     11  O   UNL     1      -1.991   1.042  -7.008  0.00  0.00    +0.000 OA
ATOM     12  H   UNL     1      -2.145   1.593  -9.400  0.00  0.00    +0.000 HD
ATOM     13  H   UNL     1      -0.453   1.847  -9.653  0.00  0.00    +0.000 HD
ENDBRANCH   1  10
BRANCH   5  14
ATOM     14  C   UNL     1       5.014   2.633  -5.442  0.00  0.00    +0.000 C 
BRANCH  14  15
ATOM     15  C   UNL     1       5.913   2.776  -6.650  0.00  0.00    +0.000 A 
ATOM     16  C   UNL     1       6.357   1.661  -7.351  0.00  0.00    +0.000 A 
ATOM     17  N   UNL     1       7.095   1.752  -8.475  0.00  0.00    +0.000 NA
ATOM     18  C   UNL     1       7.368   3.019  -8.869  0.00  0.00    +0.000 A 
ATOM     19  C   UNL     1       6.965   4.172  -8.189  0.00  0.00    +0.000 A 
ATOM     20  N   UNL     1       6.243   4.039  -7.049  0.00  0.00    +0.000 NA
BRANCH  19  21
ATOM     21  N   UNL     1       7.245   5.434  -8.641  0.00  0.00    +0.000 N 
ATOM     22  C   UNL     1       7.421   6.547  -7.706  0.00  0.00    +0.000 C 
ATOM     23  C   UNL     1       6.567   7.746  -8.140  0.00  0.00    +0.000 C 
ATOM     24  O   UNL     1       6.811   8.103  -9.513  0.00  0.00    +0.000 OA
ATOM     25  C   UNL     1       6.500   6.997 -10.376  0.00  0.00    +0.000 C 
ATOM     26  C   UNL     1       7.372   5.770 -10.060  0.00  0.00    +0.000 C 
ENDBRANCH  19  21
ENDBRANCH  14  15
ENDBRANCH   5  14
TORSDOF 4
