REMARK  Name = 
REMARK  5 active torsions:
REMARK  status: ('A' for Active; 'I' for Inactive)
REMARK    1  A    between atoms: C_2  and  C_3
REMARK    2  A    between atoms: C_6  and  C_7
REMARK    3  A    between atoms: C_9  and  C_10
REMARK    4  A    between atoms: C_10  and  N_11
REMARK    5  A    between atoms: C_15  and  C_16
REMARK                            x       y       z     vdW  Elec       q    Type
REMARK                         _______ _______ _______ _____ _____    ______ ____
ROOT
ATOM      1  C   UNL     1       6.876  -1.246  -1.650  0.00  0.00    +0.000 C 
ATOM      2  C   UNL     1       6.955  -0.873  -3.118  0.00  0.00    +0.000 C 
ATOM      3  C   UNL     1       6.345  -2.180  -2.739  0.00  0.00    +0.000 C 
ENDROOT
BRANCH   1   4
ATOM      4  N   UNL     1       8.046  -1.748  -0.919  0.00  0.00    +0.000 N 
ATOM      5  C   UNL     1       9.230  -1.074  -0.626  0.00  0.00    +0.000 A 
ATOM      6  C   UNL     1       9.359   0.307  -0.580  0.00  0.00    +0.000 A 
ATOM      7  C   UNL     1      10.577   0.892  -0.223  0.00  0.00    +0.000 A 
ATOM      8  C   UNL     1      11.659   0.073   0.071  0.00  0.00    +0.000 A 
ATOM      9  C   UNL     1      11.465  -1.295  -0.012  0.00  0.00    +0.000 A 
ATOM     10  N   UNL     1      10.279  -1.875  -0.339  0.00  0.00    +0.000 NA
ATOM     11  H   UNL     1       8.265  -2.739  -0.960  0.00  0.00    +0.000 HD
BRANCH   8  12
ATOM     12  C   UNL     1      12.995   0.601   0.413  0.00  0.00    +0.000 C 
ATOM     13  N   UNL     1      13.057   1.849   0.968  0.00  0.00    +0.000 N 
ATOM     14  O   UNL     1      14.007  -0.060   0.223  0.00  0.00    +0.000 OA
ATOM     15  H   UNL     1      12.250   2.337   1.332  0.00  0.00    +0.000 HD
ATOM     16  H   UNL     1      13.970   2.170   1.263  0.00  0.00    +0.000 HD
ENDBRANCH   8  12
ENDBRANCH   1   4
BRANCH   1  19
ATOM     17  C   UNL     1       4.882   1.463   0.217  0.00  0.00    +0.000 A 
ATOM     18  C   UNL     1       5.838   0.837  -0.580  0.00  0.00    +0.000 A 
ATOM     19  C   UNL     1       5.822  -0.550  -0.788  0.00  0.00    +0.000 A 
ATOM     20  C   UNL     1       4.775  -1.254  -0.186  0.00  0.00    +0.000 A 
ATOM     21  C   UNL     1       3.829  -0.567   0.554  0.00  0.00    +0.000 A 
ATOM     22  N   UNL     1       3.870   0.763   0.777  0.00  0.00    +0.000 NA
BRANCH  17  26
ATOM     23  C   UNL     1       4.971   5.671   1.153  0.00  0.00    +0.000 A 
ATOM     24  C   UNL     1       5.555   5.208  -0.024  0.00  0.00    +0.000 A 
ATOM     25  C   UNL     1       5.529   3.846  -0.336  0.00  0.00    +0.000 A 
ATOM     26  C   UNL     1       4.920   2.910   0.522  0.00  0.00    +0.000 A 
ATOM     27  C   UNL     1       4.343   3.402   1.708  0.00  0.00    +0.000 A 
ATOM     28  C   UNL     1       4.362   4.766   2.023  0.00  0.00    +0.000 A 
BRANCH  23  30
ATOM     29  N   UNL     1       5.002   8.201   1.709  0.00  0.00    +0.000 NA
ATOM     30  C   UNL     1       4.983   7.065   1.464  0.00  0.00    +0.000 C 
ENDBRANCH  23  30
ENDBRANCH  17  26
ENDBRANCH   1  19
TORSDOF 5
