REMARK  Name = 
REMARK  8 active torsions:
REMARK  status: ('A' for Active; 'I' for Inactive)
REMARK    1  A    between atoms: C_1  and  O_2
REMARK    2  A    between atoms: O_2  and  C_3
REMARK    3  A    between atoms: C_10  and  C_11
REMARK    4  A    between atoms: N_13  and  C_14
REMARK    5  A    between atoms: C_14  and  C_15
REMARK    6  A    between atoms: C_18  and  N_19
REMARK    7  A    between atoms: N_19  and  C_20
REMARK    8  A    between atoms: C_20  and  C_21
REMARK                            x       y       z     vdW  Elec       q    Type
REMARK                         _______ _______ _______ _____ _____    ______ ____
ROOT
ATOM      1  C   UNL     1       3.365  -3.308   0.079  0.00  0.00    +0.000 C 
ENDROOT
BRANCH   1   2
ATOM      2  C   UNL     1       2.337  -3.297   1.184  0.00  0.00    +0.000 A 
ATOM      3  C   UNL     1       1.634  -4.464   1.499  0.00  0.00    +0.000 A 
ATOM      4  C   UNL     1       0.590  -4.443   2.433  0.00  0.00    +0.000 A 
ATOM      5  C   UNL     1       0.217  -3.268   3.092  0.00  0.00    +0.000 A 
ATOM      6  C   UNL     1       0.951  -2.111   2.798  0.00  0.00    +0.000 A 
ATOM      7  C   UNL     1       1.996  -2.119   1.859  0.00  0.00    +0.000 A 
BRANCH   5   8
ATOM      8  N   UNL     1      -0.908  -3.166   3.910  0.00  0.00    +0.000 N 
ATOM      9  H   UNL     1      -0.762  -2.624   4.762  0.00  0.00    +0.000 HD
BRANCH   8  10
ATOM     10  C   UNL     1      -1.807  -4.304   4.103  0.00  0.00    +0.000 C 
BRANCH  10  11
ATOM     11  C   UNL     1      -3.007  -3.953   5.026  0.00  0.00    +0.000 C 
ATOM     12  C   UNL     1      -3.918  -2.877   4.407  0.00  0.00    +0.000 C 
ATOM     13  C   UNL     1      -5.070  -2.509   5.342  0.00  0.00    +0.000 C 
ATOM     14  C   UNL     1      -4.544  -2.159   6.730  0.00  0.00    +0.000 C 
ATOM     15  C   UNL     1      -3.652  -3.271   7.271  0.00  0.00    +0.000 C 
ATOM     16  N   UNL     1      -2.534  -3.541   6.365  0.00  0.00    +0.000 NA
ATOM     17  H   UNL     1      -1.961  -4.288   6.759  0.00  0.00    +0.000 HD
ENDBRANCH  10  11
ENDBRANCH   8  10
ENDBRANCH   5   8
ENDBRANCH   1   2
BRANCH   1  20
ATOM     18  C   UNL     1       3.463  -2.952  -2.367  0.00  0.00    +0.000 C 
ATOM     19  O   UNL     1       4.672  -3.165  -2.382  0.00  0.00    +0.000 OA
ATOM     20  N   UNL     1       2.751  -3.016  -1.198  0.00  0.00    +0.000 N 
ATOM     21  H   UNL     1       1.744  -2.933  -1.218  0.00  0.00    +0.000 HD
BRANCH  18  29
ATOM     22  C   UNL     1       0.153  -2.280  -3.043  0.00  0.00    +0.000 A 
ATOM     23  N   UNL     1      -1.028  -1.872  -3.551  0.00  0.00    +0.000 NA
ATOM     24  C   UNL     1      -1.070  -1.486  -4.830  0.00  0.00    +0.000 A 
ATOM     25  N   UNL     1      -0.055  -1.478  -5.690  0.00  0.00    +0.000 NA
ATOM     26  C   UNL     1       1.104  -1.884  -5.145  0.00  0.00    +0.000 A 
ATOM     27  S   UNL     1       2.502  -1.956  -6.104  0.00  0.00    +0.000 S 
ATOM     28  C   UNL     1       3.440  -2.475  -4.785  0.00  0.00    +0.000 A 
ATOM     29  C   UNL     1       2.729  -2.590  -3.595  0.00  0.00    +0.000 A 
ATOM     30  C   UNL     1       1.320  -2.281  -3.828  0.00  0.00    +0.000 A 
BRANCH  22  32
ATOM     31  C   UNL     1      -1.061  -2.629  -1.060  0.00  0.00    +0.000 C 
ATOM     32  O   UNL     1       0.188  -2.731  -1.742  0.00  0.00    +0.000 OA
ENDBRANCH  22  32
ENDBRANCH  18  29
ENDBRANCH   1  20
TORSDOF 7
