REMARK  Name = 
REMARK  9 active torsions:
REMARK  status: ('A' for Active; 'I' for Inactive)
REMARK    1  A    between atoms: C_1  and  C_2
REMARK    2  A    between atoms: C_2  and  C_3
REMARK    3  A    between atoms: C_2  and  C_4
REMARK    4  A    between atoms: C_2  and  C_5
REMARK    5  A    between atoms: N_8  and  C_9
REMARK    6  A    between atoms: C_9  and  C_10
REMARK    7  A    between atoms: C_13  and  C_14
REMARK    8  A    between atoms: C_14  and  N_15
REMARK    9  A    between atoms: C_20  and  C_21
REMARK                            x       y       z     vdW  Elec       q    Type
REMARK                         _______ _______ _______ _____ _____    ______ ____
ROOT
ATOM      1  C   UNL     1       2.942  -0.115   1.484  0.00  0.00    +0.000 A 
ATOM      2  N   UNL     1       2.788  -1.390   1.962  0.00  0.00    +0.000 NA
ATOM      3  C   UNL     1       3.123  -1.702   3.223  0.00  0.00    +0.000 A 
ATOM      4  N   UNL     1       2.824  -2.979   3.625  0.00  0.00    +0.000 N 
ATOM      5  N   UNL     1       3.649  -0.825   4.067  0.00  0.00    +0.000 NA
ATOM      6  C   UNL     1       3.817   0.426   3.593  0.00  0.00    +0.000 A 
ATOM      7  C   UNL     1       3.511   0.854   2.308  0.00  0.00    +0.000 A 
ATOM      8  H   UNL     1       2.751  -3.617   2.845  0.00  0.00    +0.000 HD
ENDROOT
BRANCH   7   9
ATOM      9  C   UNL     1       3.790   2.280   1.989  0.00  0.00    +0.000 C 
ATOM     10  N   UNL     1       4.835   2.885   2.635  0.00  0.00    +0.000 N 
ATOM     11  O   UNL     1       3.136   2.941   1.198  0.00  0.00    +0.000 OA
ATOM     12  H   UNL     1       5.549   2.402   3.160  0.00  0.00    +0.000 HD
ATOM     13  H   UNL     1       5.012   3.851   2.386  0.00  0.00    +0.000 HD
ENDBRANCH   7   9
BRANCH   1  15
ATOM     14  C   UNL     1       1.951  -1.294  -0.545  0.00  0.00    +0.000 C 
ATOM     15  C   UNL     1       2.471   0.064   0.026  0.00  0.00    +0.000 C 
ATOM     16  C   UNL     1       3.633   0.492  -0.888  0.00  0.00    +0.000 C 
ATOM     17  C   UNL     1       1.267   1.017  -0.122  0.00  0.00    +0.000 C 
ENDBRANCH   1  15
BRANCH   4  18
ATOM     18  C   UNL     1       3.345  -3.476   4.874  0.00  0.00    +0.000 C 
BRANCH  18  19
ATOM     19  C   UNL     1       2.482  -4.622   5.357  0.00  0.00    +0.000 A 
ATOM     20  C   UNL     1       3.036  -5.866   5.683  0.00  0.00    +0.000 A 
ATOM     21  C   UNL     1       2.224  -6.898   6.169  0.00  0.00    +0.000 A 
ATOM     22  C   UNL     1       0.844  -6.708   6.345  0.00  0.00    +0.000 A 
ATOM     23  C   UNL     1       0.294  -5.461   6.020  0.00  0.00    +0.000 A 
ATOM     24  C   UNL     1       1.103  -4.431   5.538  0.00  0.00    +0.000 A 
BRANCH  22  25
ATOM     25  C   UNL     1      -0.038  -7.825   6.840  0.00  0.00    +0.000 C 
BRANCH  25  26
ATOM     26  N   UNL     1      -0.735  -7.466   8.070  0.00  0.00    +0.000 NA
ATOM     27  H   UNL     1      -0.044  -7.236   8.783  0.00  0.00    +0.000 HD
ATOM     28  H   UNL     1      -1.246  -8.277   8.413  0.00  0.00    +0.000 HD
ENDBRANCH  25  26
ENDBRANCH  22  25
ENDBRANCH  18  19
ENDBRANCH   4  18
TORSDOF 6
