REMARK  Name = 
REMARK  8 active torsions:
REMARK  status: ('A' for Active; 'I' for Inactive)
REMARK    1  A    between atoms: C_2  and  C_3
REMARK    2  A    between atoms: C_6  and  N_7
REMARK    3  A    between atoms: N_7  and  C_8
REMARK    4  A    between atoms: C_8  and  C_9
REMARK    5  A    between atoms: C_9  and  C_10
REMARK    6  A    between atoms: C_9  and  C_12
REMARK    7  A    between atoms: C_16  and  N_17
REMARK    8  A    between atoms: N_17  and  C_18
REMARK                            x       y       z     vdW  Elec       q    Type
REMARK                         _______ _______ _______ _____ _____    ______ ____
ROOT
ATOM      1  C   UNL     1       5.935  -1.060   0.384  0.00  0.00    +0.000 C 
ENDROOT
BRANCH   1   2
ATOM      2  C   UNL     1       6.801  -2.317   0.417  0.00  0.00    +0.000 A 
ATOM      3  C   UNL     1       8.109  -2.265  -0.087  0.00  0.00    +0.000 A 
ATOM      4  C   UNL     1       8.969  -3.357   0.051  0.00  0.00    +0.000 A 
ATOM      5  C   UNL     1       8.532  -4.525   0.682  0.00  0.00    +0.000 A 
ATOM      6  C   UNL     1       7.234  -4.611   1.181  0.00  0.00    +0.000 A 
ATOM      7  C   UNL     1       6.383  -3.503   1.043  0.00  0.00    +0.000 A 
BRANCH   6   8
ATOM      8  N   UNL     1       6.733  -5.745   1.854  0.00  0.00    +0.000 N 
ATOM      9  H   UNL     1       6.484  -5.497   2.811  0.00  0.00    +0.000 HD
BRANCH   8  10
ATOM     10  C   UNL     1       7.193  -7.098   1.714  0.00  0.00    +0.000 C 
ATOM     11  C   UNL     1       6.442  -8.075   2.649  0.00  0.00    +0.000 C 
ATOM     12  N   UNL     1       7.734  -8.702   3.001  0.00  0.00    +0.000 NA
ATOM     13  C   UNL     1       8.437  -7.485   2.533  0.00  0.00    +0.000 C 
ATOM     14  H   UNL     1       7.939  -9.530   2.439  0.00  0.00    +0.000 HD
ENDBRANCH   8  10
ENDBRANCH   6   8
ENDBRANCH   1   2
BRANCH   1  15
ATOM     15  C   UNL     1       4.428  -1.290   0.213  0.00  0.00    +0.000 C 
ATOM     16  F   UNL     1       3.908  -1.942   1.287  0.00  0.00    +0.000 F 
ENDBRANCH   1  15
BRANCH   1  17
ATOM     17  C   UNL     1       6.238  -0.236   1.652  0.00  0.00    +0.000 C 
BRANCH  17  18
ATOM     18  N   UNL     1       5.461   1.001   1.734  0.00  0.00    +0.000 N 
ATOM     19  H   UNL     1       5.017   1.117   2.643  0.00  0.00    +0.000 HD
BRANCH  18  23
ATOM     20  C   UNL     1       6.466   4.680  -0.056  0.00  0.00    +0.000 A 
ATOM     21  C   UNL     1       7.061   3.507  -0.522  0.00  0.00    +0.000 A 
ATOM     22  C   UNL     1       6.776   2.281   0.095  0.00  0.00    +0.000 A 
ATOM     23  C   UNL     1       5.893   2.199   1.176  0.00  0.00    +0.000 A 
ATOM     24  C   UNL     1       5.301   3.390   1.622  0.00  0.00    +0.000 A 
ATOM     25  C   UNL     1       5.594   4.622   1.028  0.00  0.00    +0.000 A 
BRANCH  20  27
ATOM     26  N   UNL     1       6.960   6.938  -1.231  0.00  0.00    +0.000 NA
ATOM     27  C   UNL     1       6.743   5.932  -0.701  0.00  0.00    +0.000 C 
ENDBRANCH  20  27
ENDBRANCH  18  23
ENDBRANCH  17  18
ENDBRANCH   1  17
TORSDOF 8
