REMARK  Name = 
REMARK  4 active torsions:
REMARK  status: ('A' for Active; 'I' for Inactive)
REMARK    1  A    between atoms: C_2  and  C_4
REMARK    2  A    between atoms: N_8  and  C_9
REMARK    3  A    between atoms: C_9  and  C_10
REMARK    4  A    between atoms: C_14  and  N_15
REMARK                            x       y       z     vdW  Elec       q    Type
REMARK                         _______ _______ _______ _____ _____    ______ ____
ROOT
ATOM      1  C   UNL     1       7.597   1.177   1.076  0.00  0.00    +0.000 A 
ATOM      2  C   UNL     1       7.209   0.435   2.185  0.00  0.00    +0.000 A 
ATOM      3  C   UNL     1       6.398   1.030   3.151  0.00  0.00    +0.000 A 
ATOM      4  C   UNL     1       6.008   2.359   3.008  0.00  0.00    +0.000 A 
ATOM      5  N   UNL     1       5.147   2.989   3.879  0.00  0.00    +0.000 N 
ATOM      6  N   UNL     1       6.393   3.090   1.946  0.00  0.00    +0.000 NA
ATOM      7  C   UNL     1       7.180   2.497   1.009  0.00  0.00    +0.000 A 
ATOM      8  H   UNL     1       5.107   3.972   3.624  0.00  0.00    +0.000 HD
ENDROOT
BRANCH   1  10
ATOM      9  N   UNL     1       8.367  -0.735  -0.204  0.00  0.00    +0.000 N 
ATOM     10  C   UNL     1       8.432   0.617  -0.005  0.00  0.00    +0.000 C 
ATOM     11  O   UNL     1       9.128   1.331  -0.712  0.00  0.00    +0.000 OA
ATOM     12  H   UNL     1       8.870  -1.098  -1.004  0.00  0.00    +0.000 HD
ATOM     13  H   UNL     1       7.632  -1.310   0.183  0.00  0.00    +0.000 HD
ENDBRANCH   1  10
BRANCH   5  14
ATOM     14  C   UNL     1       5.118   2.698   5.297  0.00  0.00    +0.000 C 
BRANCH  14  15
ATOM     15  C   UNL     1       6.128   3.487   6.080  0.00  0.00    +0.000 A 
ATOM     16  C   UNL     1       7.164   2.863   6.758  0.00  0.00    +0.000 A 
ATOM     17  N   UNL     1       8.044   3.514   7.542  0.00  0.00    +0.000 NA
ATOM     18  C   UNL     1       7.877   4.858   7.653  0.00  0.00    +0.000 A 
ATOM     19  C   UNL     1       6.883   5.617   7.028  0.00  0.00    +0.000 A 
ATOM     20  C   UNL     1       6.014   4.879   6.215  0.00  0.00    +0.000 A 
BRANCH  19  21
ATOM     21  N   UNL     1       6.734   6.974   7.211  0.00  0.00    +0.000 N 
ATOM     22  C   UNL     1       7.853   7.872   7.536  0.00  0.00    +0.000 C 
ATOM     23  C   UNL     1       7.507   8.685   8.792  0.00  0.00    +0.000 C 
ATOM     24  O   UNL     1       6.280   9.414   8.619  0.00  0.00    +0.000 OA
ATOM     25  C   UNL     1       5.194   8.509   8.360  0.00  0.00    +0.000 C 
ATOM     26  C   UNL     1       5.437   7.660   7.099  0.00  0.00    +0.000 C 
ENDBRANCH  19  21
ENDBRANCH  14  15
ENDBRANCH   5  14
TORSDOF 4
