REMARK  Name = 
REMARK  6 active torsions:
REMARK  status: ('A' for Active; 'I' for Inactive)
REMARK    1  A    between atoms: C_2  and  C_18
REMARK    2  A    between atoms: N_3  and  C_4
REMARK    3  A    between atoms: C_4  and  C_5
REMARK    4  A    between atoms: C_8  and  C_9
REMARK    5  A    between atoms: C_9  and  C_10
REMARK    6  A    between atoms: C_13  and  O_14
REMARK                            x       y       z     vdW  Elec       q    Type
REMARK                         _______ _______ _______ _____ _____    ______ ____
ROOT
ATOM      1  O   UNL     1       9.755  -8.669  -3.393  0.00  0.00    +0.000 OA
ATOM      2  C   UNL     1       9.821  -9.219  -4.490  0.00  0.00    +0.000 C 
ATOM      3  N   UNL     1      10.566  -8.715  -5.524  0.00  0.00    +0.000 N 
ATOM      4  H   UNL     1      10.434  -9.095  -6.454  0.00  0.00    +0.000 HD
ENDROOT
BRANCH   2   5
ATOM      5  C   UNL     1       9.142 -10.495  -4.747  0.00  0.00    +0.000 A 
ATOM      6  C   UNL     1       8.793 -11.315  -3.683  0.00  0.00    +0.000 A 
ATOM      7  S   UNL     1       8.031 -12.765  -4.159  0.00  0.00    +0.000 S 
ATOM      8  C   UNL     1       8.095 -12.323  -5.801  0.00  0.00    +0.000 A 
ATOM      9  N   UNL     1       7.569 -13.128  -6.763  0.00  0.00    +0.000 NA
ATOM     10  C   UNL     1       7.642 -12.649  -7.960  0.00  0.00    +0.000 A 
ATOM     11  N   UNL     1       8.208 -11.445  -8.286  0.00  0.00    +0.000 N 
ATOM     12  C   UNL     1       8.824 -10.639  -7.359  0.00  0.00    +0.000 A 
ATOM     13  O   UNL     1       9.445  -9.642  -7.710  0.00  0.00    +0.000 OA
ATOM     14  C   UNL     1       8.719 -11.102  -5.988  0.00  0.00    +0.000 A 
ATOM     15  H   UNL     1       8.265 -11.142  -9.247  0.00  0.00    +0.000 HD
ENDBRANCH   2   5
BRANCH   3  16
ATOM     16  C   UNL     1      11.202  -7.425  -5.461  0.00  0.00    +0.000 C 
BRANCH  16  17
ATOM     17  C   UNL     1      10.305  -6.355  -6.025  0.00  0.00    +0.000 A 
ATOM     18  C   UNL     1       9.397  -5.688  -5.195  0.00  0.00    +0.000 A 
ATOM     19  C   UNL     1       8.558  -4.697  -5.709  0.00  0.00    +0.000 A 
ATOM     20  C   UNL     1       8.610  -4.356  -7.065  0.00  0.00    +0.000 A 
ATOM     21  C   UNL     1       9.492  -5.051  -7.904  0.00  0.00    +0.000 A 
ATOM     22  C   UNL     1      10.329  -6.044  -7.390  0.00  0.00    +0.000 A 
BRANCH  20  23
ATOM     23  C   UNL     1       7.712  -3.281  -7.629  0.00  0.00    +0.000 C 
BRANCH  23  24
ATOM     24  C   UNL     1       7.917  -1.884  -7.010  0.00  0.00    +0.000 C 
ATOM     25  C   UNL     1       9.348  -1.336  -7.179  0.00  0.00    +0.000 C 
ATOM     26  C   UNL     1       9.210   0.042  -7.826  0.00  0.00    +0.000 C 
ATOM     27  C   UNL     1       7.901  -0.034  -8.597  0.00  0.00    +0.000 C 
ATOM     28  C   UNL     1       6.998  -0.840  -7.674  0.00  0.00    +0.000 C 
BRANCH  27  29
ATOM     29  O   UNL     1       8.070  -0.701  -9.841  0.00  0.00    +0.000 OA
ATOM     30  H   UNL     1       8.698  -1.433  -9.725  0.00  0.00    +0.000 HD
ENDBRANCH  27  29
ENDBRANCH  23  24
ENDBRANCH  20  23
ENDBRANCH  16  17
ENDBRANCH   3  16
TORSDOF 6
