REMARK  Name = 
REMARK  5 active torsions:
REMARK  status: ('A' for Active; 'I' for Inactive)
REMARK    1  A    between atoms: C_2  and  C_4
REMARK    2  A    between atoms: N_8  and  C_9
REMARK    3  A    between atoms: C_9  and  C_10
REMARK    4  A    between atoms: C_10  and  C_13
REMARK    5  A    between atoms: C_17  and  C_18
REMARK                            x       y       z     vdW  Elec       q    Type
REMARK                         _______ _______ _______ _____ _____    ______ ____
ROOT
ATOM      1  C   UNL     1       6.010  -4.463  -5.354  0.00  0.00    +0.000 C 
ATOM      2  F   UNL     1       5.643  -5.506  -4.543  0.00  0.00    +0.000 F 
ATOM      3  F   UNL     1       5.364  -3.372  -4.846  0.00  0.00    +0.000 F 
ENDROOT
BRANCH   1   4
ATOM      4  C   UNL     1       5.647  -4.713  -6.800  0.00  0.00    +0.000 A 
ATOM      5  C   UNL     1       5.678  -6.017  -7.312  0.00  0.00    +0.000 A 
ATOM      6  C   UNL     1       5.345  -6.252  -8.635  0.00  0.00    +0.000 A 
ATOM      7  C   UNL     1       4.957  -5.192  -9.452  0.00  0.00    +0.000 A 
ATOM      8  C   UNL     1       4.873  -3.875  -8.970  0.00  0.00    +0.000 A 
ATOM      9  C   UNL     1       5.271  -3.648  -7.642  0.00  0.00    +0.000 A 
BRANCH   8  10
ATOM     10  C   UNL     1       4.330  -2.721  -9.824  0.00  0.00    +0.000 C 
ATOM     11  C   UNL     1       3.135  -2.002  -9.162  0.00  0.00    +0.000 C 
ATOM     12  C   UNL     1       1.897  -2.899  -9.139  0.00  0.00    +0.000 C 
ATOM     13  C   UNL     1       1.574  -3.497 -10.511  0.00  0.00    +0.000 C 
ATOM     14  N   UNL     1       2.726  -4.035 -11.229  0.00  0.00    +0.000 NA
ATOM     15  C   UNL     1       3.870  -3.116 -11.250  0.00  0.00    +0.000 C 
ATOM     16  H   UNL     1       2.461  -4.296 -12.176  0.00  0.00    +0.000 HD
ENDBRANCH   8  10
ENDBRANCH   1   4
BRANCH   1  17
ATOM     17  C   UNL     1       7.537  -4.262  -5.209  0.00  0.00    +0.000 C 
BRANCH  17  22
ATOM     18  C   UNL     1      11.828  -3.314  -2.619  0.00  0.00    +0.000 A 
ATOM     19  C   UNL     1      11.503  -3.013  -3.937  0.00  0.00    +0.000 A 
ATOM     20  C   UNL     1      10.205  -3.245  -4.384  0.00  0.00    +0.000 A 
ATOM     21  C   UNL     1       9.261  -3.779  -3.511  0.00  0.00    +0.000 A 
ATOM     22  N   UNL     1       7.930  -3.913  -3.842  0.00  0.00    +0.000 N 
ATOM     23  N   UNL     1       9.578  -4.120  -2.247  0.00  0.00    +0.000 NA
ATOM     24  C   UNL     1      10.851  -3.891  -1.826  0.00  0.00    +0.000 A 
ATOM     25  H   UNL     1       7.453  -4.426  -3.099  0.00  0.00    +0.000 HD
BRANCH  18  27
ATOM     26  N   UNL     1      13.842  -1.975  -2.574  0.00  0.00    +0.000 N 
ATOM     27  C   UNL     1      13.154  -3.029  -2.051  0.00  0.00    +0.000 C 
ATOM     28  O   UNL     1      13.606  -3.684  -1.116  0.00  0.00    +0.000 OA
ATOM     29  H   UNL     1      14.698  -1.708  -2.094  0.00  0.00    +0.000 HD
ATOM     30  H   UNL     1      13.396  -1.265  -3.143  0.00  0.00    +0.000 HD
ENDBRANCH  18  27
ENDBRANCH  17  22
ENDBRANCH   1  17
TORSDOF 5
