REMARK  Name = 
REMARK  7 active torsions:
REMARK  status: ('A' for Active; 'I' for Inactive)
REMARK    1  A    between atoms: N_1  and  C_2
REMARK    2  A    between atoms: C_2  and  N_3
REMARK    3  A    between atoms: C_2  and  C_16
REMARK    4  A    between atoms: C_4  and  C_6
REMARK    5  A    between atoms: C_19  and  C_20
REMARK    6  A    between atoms: C_20  and  N_21
REMARK    7  A    between atoms: C_22  and  C_24
REMARK                            x       y       z     vdW  Elec       q    Type
REMARK                         _______ _______ _______ _____ _____    ______ ____
ROOT
ATOM      1  C   UNL     1       2.382  -0.012  -0.032  0.00  0.00    +0.000 C 
ENDROOT
BRANCH   1   2
ATOM      2  C   UNL     1       2.917  -1.430  -0.003  0.00  0.00    +0.000 A 
ATOM      3  C   UNL     1       4.247  -1.665   0.377  0.00  0.00    +0.000 A 
ATOM      4  C   UNL     1       4.757  -2.966   0.452  0.00  0.00    +0.000 A 
ATOM      5  C   UNL     1       3.951  -4.067   0.135  0.00  0.00    +0.000 A 
ATOM      6  C   UNL     1       2.625  -3.841  -0.252  0.00  0.00    +0.000 A 
ATOM      7  C   UNL     1       2.116  -2.540  -0.326  0.00  0.00    +0.000 A 
BRANCH   5   8
ATOM      8  C   UNL     1       4.499  -5.467   0.212  0.00  0.00    +0.000 C 
BRANCH   8   9
ATOM      9  N   UNL     1       4.291  -6.064   1.514  0.00  0.00    +0.000 N 
ATOM     10  C   UNL     1       4.695  -7.363   1.741  0.00  0.00    +0.000 C 
ATOM     11  O   UNL     1       5.188  -8.057   0.856  0.00  0.00    +0.000 OA
ATOM     12  H   UNL     1       4.050  -5.457   2.286  0.00  0.00    +0.000 HD
BRANCH  10  13
ATOM     13  C   UNL     1       4.540  -7.846   3.180  0.00  0.00    +0.000 C 
ATOM     14  C   UNL     1       5.005  -9.278   3.360  0.00  0.00    +0.000 C 
ATOM     15  C   UNL     1       3.784 -10.069   2.938  0.00  0.00    +0.000 C 
ATOM     16  O   UNL     1       2.644  -9.286   3.318  0.00  0.00    +0.000 OA
ATOM     17  C   UNL     1       3.085  -7.947   3.598  0.00  0.00    +0.000 C 
ENDBRANCH  10  13
ENDBRANCH   8   9
ENDBRANCH   5   8
ENDBRANCH   1   2
BRANCH   1  18
ATOM     18  N   UNL     1       1.263   0.154   0.847  0.00  0.00    +0.000 N 
ATOM     19  C   UNL     1       0.950   1.365   1.407  0.00  0.00    +0.000 C 
ATOM     20  O   UNL     1       1.580   2.387   1.146  0.00  0.00    +0.000 OA
ATOM     21  H   UNL     1       0.875  -0.691   1.254  0.00  0.00    +0.000 HD
BRANCH  19  22
ATOM     22  C   UNL     1      -0.235   1.410   2.275  0.00  0.00    +0.000 A 
ATOM     23  C   UNL     1      -0.899   2.618   2.450  0.00  0.00    +0.000 A 
ATOM     24  S   UNL     1      -2.265   2.509   3.465  0.00  0.00    +0.000 S 
ATOM     25  C   UNL     1      -1.995   0.853   3.741  0.00  0.00    +0.000 A 
ATOM     26  N   UNL     1      -2.805   0.144   4.569  0.00  0.00    +0.000 NA
ATOM     27  C   UNL     1      -2.471  -1.096   4.712  0.00  0.00    +0.000 A 
ATOM     28  N   UNL     1      -1.404  -1.693   4.089  0.00  0.00    +0.000 N 
ATOM     29  C   UNL     1      -0.587  -1.024   3.207  0.00  0.00    +0.000 A 
ATOM     30  O   UNL     1       0.310  -1.602   2.597  0.00  0.00    +0.000 OA
ATOM     31  C   UNL     1      -0.897   0.381   3.040  0.00  0.00    +0.000 A 
ATOM     32  H   UNL     1      -1.212  -2.673   4.228  0.00  0.00    +0.000 HD
ENDBRANCH  19  22
ENDBRANCH   1  18
BRANCH   1  33
ATOM     33  N   UNL     1       1.888   0.350  -1.345  0.00  0.00    +0.000 NA
ATOM     34  H   UNL     1       1.606   1.328  -1.289  0.00  0.00    +0.000 HD
ATOM     35  H   UNL     1       1.037  -0.172  -1.519  0.00  0.00    +0.000 HD
ENDBRANCH   1  33
TORSDOF 7
