REMARK  Name = 
REMARK  10 active torsions:
REMARK  status: ('A' for Active; 'I' for Inactive)
REMARK    1  A    between atoms: C_1  and  C_2
REMARK    2  A    between atoms: C_2  and  N_3
REMARK    3  A    between atoms: N_3  and  C_4
REMARK    4  A    between atoms: N_3  and  C_25
REMARK    5  A    between atoms: C_4  and  C_5
REMARK    6  A    between atoms: C_8  and  C_9
REMARK    7  A    between atoms: C_9  and  N_10
REMARK    8  A    between atoms: C_11  and  C_13
REMARK    9  A    between atoms: C_25  and  C_26
REMARK   10  A    between atoms: C_25  and  C_27
REMARK                            x       y       z     vdW  Elec       q    Type
REMARK                         _______ _______ _______ _____ _____    ______ ____
ROOT
ATOM      1  C   UNL     1       0.897  -0.095   2.741  0.00  0.00    +0.000 A 
ATOM      2  C   UNL     1       0.235  -1.326   2.861  0.00  0.00    +0.000 A 
ATOM      3  C   UNL     1      -1.156  -1.391   2.856  0.00  0.00    +0.000 A 
ATOM      4  C   UNL     1      -1.910  -0.219   2.773  0.00  0.00    +0.000 A 
ATOM      5  C   UNL     1      -1.255   1.016   2.797  0.00  0.00    +0.000 A 
ATOM      6  C   UNL     1       0.136   1.075   2.784  0.00  0.00    +0.000 A 
ENDROOT
BRANCH   1   7
ATOM      7  C   UNL     1       2.389  -0.038   2.501  0.00  0.00    +0.000 C 
BRANCH   7   8
ATOM      8  N   UNL     1       2.831  -0.119   1.078  0.00  0.00    +0.000 NA
BRANCH   8  10
ATOM      9  C   UNL     1       2.869   2.408   0.806  0.00  0.00    +0.000 C 
ATOM     10  C   UNL     1       2.402   1.050   0.282  0.00  0.00    +0.000 C 
ENDBRANCH   8  10
BRANCH   8  11
ATOM     11  C   UNL     1       2.427  -1.411   0.419  0.00  0.00    +0.000 C 
ATOM     12  C   UNL     1       2.889  -1.562  -1.041  0.00  0.00    +0.000 C 
BRANCH  11  13
ATOM     13  C   UNL     1       2.884  -2.677   1.163  0.00  0.00    +0.000 A 
ATOM     14  C   UNL     1       4.110  -2.732   1.827  0.00  0.00    +0.000 A 
ATOM     15  C   UNL     1       4.385  -3.825   2.645  0.00  0.00    +0.000 A 
ATOM     16  C   UNL     1       3.461  -4.858   2.739  0.00  0.00    +0.000 A 
ATOM     17  C   UNL     1       2.303  -4.766   1.991  0.00  0.00    +0.000 A 
ATOM     18  N   UNL     1       1.997  -3.708   1.210  0.00  0.00    +0.000 NA
ENDBRANCH  11  13
ENDBRANCH   8  11
ENDBRANCH   7   8
ENDBRANCH   1   7
BRANCH   4  19
ATOM     19  C   UNL     1      -3.406  -0.271   2.708  0.00  0.00    +0.000 C 
BRANCH  19  20
ATOM     20  N   UNL     1      -3.963  -0.245   4.031  0.00  0.00    +0.000 N 
ATOM     21  C   UNL     1      -5.311  -0.347   4.226  0.00  0.00    +0.000 C 
ATOM     22  O   UNL     1      -6.096  -0.499   3.294  0.00  0.00    +0.000 OA
ATOM     23  H   UNL     1      -3.365   0.097   4.777  0.00  0.00    +0.000 HD
BRANCH  21  24
ATOM     24  C   UNL     1      -5.766  -0.333   5.618  0.00  0.00    +0.000 A 
ATOM     25  C   UNL     1      -6.987  -0.907   5.942  0.00  0.00    +0.000 A 
ATOM     26  S   UNL     1      -7.340  -0.863   7.608  0.00  0.00    +0.000 S 
ATOM     27  C   UNL     1      -5.896  -0.030   7.949  0.00  0.00    +0.000 A 
ATOM     28  N   UNL     1      -5.587   0.339   9.221  0.00  0.00    +0.000 NA
ATOM     29  C   UNL     1      -4.475   0.985   9.333  0.00  0.00    +0.000 A 
ATOM     30  N   UNL     1      -3.642   1.292   8.289  0.00  0.00    +0.000 N 
ATOM     31  C   UNL     1      -3.900   0.924   6.991  0.00  0.00    +0.000 A 
ATOM     32  O   UNL     1      -3.121   1.191   6.085  0.00  0.00    +0.000 OA
ATOM     33  C   UNL     1      -5.146   0.197   6.809  0.00  0.00    +0.000 A 
ATOM     34  H   UNL     1      -2.783   1.799   8.444  0.00  0.00    +0.000 HD
ENDBRANCH  21  24
ENDBRANCH  19  20
ENDBRANCH   4  19
TORSDOF 8
