REMARK  Name = 
REMARK  3 active torsions:
REMARK  status: ('A' for Active; 'I' for Inactive)
REMARK    1  A    between atoms: C_2  and  C_4
REMARK    2  A    between atoms: N_8  and  C_9
REMARK    3  A    between atoms: C_9  and  C_10
REMARK                            x       y       z     vdW  Elec       q    Type
REMARK                         _______ _______ _______ _____ _____    ______ ____
ROOT
ATOM      1  C   UNL     1       3.306   1.016   0.810  0.00  0.00    +0.000 A 
ATOM      2  C   UNL     1       3.782   2.000  -0.051  0.00  0.00    +0.000 A 
ATOM      3  C   UNL     1       4.470   3.089   0.484  0.00  0.00    +0.000 A 
ATOM      4  C   UNL     1       4.631   3.200   1.864  0.00  0.00    +0.000 A 
ATOM      5  N   UNL     1       5.243   4.359   2.338  0.00  0.00    +0.000 N 
ATOM      6  N   UNL     1       4.167   2.261   2.710  0.00  0.00    +0.000 NA
ATOM      7  C   UNL     1       3.519   1.191   2.170  0.00  0.00    +0.000 A 
ATOM      8  H   UNL     1       6.204   4.420   2.017  0.00  0.00    +0.000 HD
ENDROOT
BRANCH   1  10
ATOM      9  N   UNL     1       2.799  -0.581  -0.947  0.00  0.00    +0.000 N 
ATOM     10  C   UNL     1       2.562  -0.169   0.335  0.00  0.00    +0.000 C 
ATOM     11  O   UNL     1       1.788  -0.775   1.065  0.00  0.00    +0.000 OA
ATOM     12  H   UNL     1       2.349  -1.441  -1.238  0.00  0.00    +0.000 HD
ATOM     13  H   UNL     1       3.590  -0.263  -1.488  0.00  0.00    +0.000 HD
ENDBRANCH   1  10
BRANCH   5  14
ATOM     14  C   UNL     1       5.083   4.663   3.748  0.00  0.00    +0.000 C 
BRANCH  14  15
ATOM     15  C   UNL     1       5.412   6.123   3.929  0.00  0.00    +0.000 A 
ATOM     16  C   UNL     1       6.681   6.563   4.314  0.00  0.00    +0.000 A 
ATOM     17  C   UNL     1       6.942   7.929   4.391  0.00  0.00    +0.000 A 
ATOM     18  C   UNL     1       5.925   8.815   4.079  0.00  0.00    +0.000 A 
ATOM     19  N   UNL     1       4.686   8.434   3.702  0.00  0.00    +0.000 NA
ATOM     20  C   UNL     1       4.462   7.098   3.630  0.00  0.00    +0.000 A 
ENDBRANCH  14  15
ENDBRANCH   5  14
TORSDOF 3
