REMARK  Name = 
REMARK  6 active torsions:
REMARK  status: ('A' for Active; 'I' for Inactive)
REMARK    1  A    between atoms: C_1  and  C_2
REMARK    2  A    between atoms: C_2  and  C_4
REMARK    3  A    between atoms: C_7  and  N_8
REMARK    4  A    between atoms: N_8  and  C_9
REMARK    5  A    between atoms: C_9  and  C_10
REMARK    6  A    between atoms: C_14  and  N_15
REMARK                            x       y       z     vdW  Elec       q    Type
REMARK                         _______ _______ _______ _____ _____    ______ ____
ROOT
ATOM      1  C   UNL     1       5.046   4.300   4.206  0.00  0.00    +0.000 C 
ENDROOT
BRANCH   1   2
ATOM      2  C   UNL     1       5.977   5.330   4.787  0.00  0.00    +0.000 A 
ATOM      3  C   UNL     1       7.155   4.971   5.413  0.00  0.00    +0.000 A 
ATOM      4  N   UNL     1       7.992   5.882   5.953  0.00  0.00    +0.000 NA
ATOM      5  C   UNL     1       7.594   7.177   5.815  0.00  0.00    +0.000 A 
ATOM      6  C   UNL     1       6.411   7.582   5.189  0.00  0.00    +0.000 A 
ATOM      7  N   UNL     1       5.601   6.630   4.679  0.00  0.00    +0.000 NA
BRANCH   6   8
ATOM      8  N   UNL     1       6.071   8.904   4.966  0.00  0.00    +0.000 N 
ATOM      9  C   UNL     1       4.761   9.151   4.334  0.00  0.00    +0.000 C 
ATOM     10  C   UNL     1       4.792  10.521   3.641  0.00  0.00    +0.000 C 
ATOM     11  O   UNL     1       5.158  11.570   4.553  0.00  0.00    +0.000 OA
ATOM     12  C   UNL     1       6.451  11.306   5.124  0.00  0.00    +0.000 C 
ATOM     13  C   UNL     1       6.469   9.972   5.891  0.00  0.00    +0.000 C 
ENDBRANCH   6   8
ENDBRANCH   1   2
BRANCH   1  14
ATOM     14  N   UNL     1       5.690   3.517   3.152  0.00  0.00    +0.000 N 
ATOM     15  H   UNL     1       6.189   4.097   2.476  0.00  0.00    +0.000 HD
BRANCH  14  19
ATOM     16  C   UNL     1       3.635   0.322   1.297  0.00  0.00    +0.000 A 
ATOM     17  C   UNL     1       2.965   1.133   2.213  0.00  0.00    +0.000 A 
ATOM     18  C   UNL     1       3.629   2.202   2.823  0.00  0.00    +0.000 A 
ATOM     19  C   UNL     1       4.960   2.509   2.516  0.00  0.00    +0.000 A 
ATOM     20  C   UNL     1       5.617   1.697   1.583  0.00  0.00    +0.000 A 
ATOM     21  C   UNL     1       4.966   0.612   0.981  0.00  0.00    +0.000 A 
BRANCH  16  23
ATOM     22  C   UNL     1       1.552  -1.184   1.035  0.00  0.00    +0.000 C 
ATOM     23  C   UNL     1       2.974  -0.852   0.656  0.00  0.00    +0.000 C 
ATOM     24  O   UNL     1       3.587  -1.527  -0.166  0.00  0.00    +0.000 OA
ENDBRANCH  16  23
ENDBRANCH  14  19
ENDBRANCH   1  14
TORSDOF 5
