REMARK  Name = 
REMARK  11 active torsions:
REMARK  status: ('A' for Active; 'I' for Inactive)
REMARK    1  A    between atoms: C_1  and  O_2
REMARK    2  A    between atoms: O_2  and  C_3
REMARK    3  A    between atoms: C_6  and  C_7
REMARK    4  A    between atoms: C_7  and  N_8
REMARK    5  A    between atoms: N_8  and  C_9
REMARK    6  A    between atoms: C_12  and  C_13
REMARK    7  A    between atoms: C_21  and  C_22
REMARK    8  A    between atoms: C_26  and  O_27
REMARK    9  A    between atoms: O_27  and  C_28
REMARK   10  A    between atoms: C_28  and  C_29
REMARK   11  A    between atoms: C_28  and  C_30
REMARK                            x       y       z     vdW  Elec       q    Type
REMARK                         _______ _______ _______ _____ _____    ______ ____
ROOT
ATOM      1  C   UNL     1       3.069  -0.023   0.992  0.00  0.00    +0.000 A 
ATOM      2  C   UNL     1       2.733  -0.741   2.149  0.00  0.00    +0.000 A 
ATOM      3  C   UNL     1       3.495  -0.621   3.319  0.00  0.00    +0.000 A 
ATOM      4  C   UNL     1       4.658   0.153   3.354  0.00  0.00    +0.000 A 
ATOM      5  C   UNL     1       5.033   0.771   2.152  0.00  0.00    +0.000 A 
ATOM      6  C   UNL     1       4.215   0.800   0.998  0.00  0.00    +0.000 A 
ENDROOT
BRANCH   6   7
ATOM      7  C   UNL     1       4.526   1.819  -0.043  0.00  0.00    +0.000 A 
ATOM      8  C   UNL     1       4.968   3.100   0.360  0.00  0.00    +0.000 A 
ATOM      9  C   UNL     1       5.187   4.131  -0.550  0.00  0.00    +0.000 A 
ATOM     10  C   UNL     1       4.986   3.904  -1.903  0.00  0.00    +0.000 A 
ATOM     11  C   UNL     1       4.632   2.630  -2.346  0.00  0.00    +0.000 A 
ATOM     12  C   UNL     1       4.370   1.609  -1.421  0.00  0.00    +0.000 A 
BRANCH  11  13
ATOM     13  O   UNL     1       4.527   2.272  -3.664  0.00  0.00    +0.000 OA
BRANCH  13  14
ATOM     14  C   UNL     1       5.374   2.961  -4.597  0.00  0.00    +0.000 C 
ATOM     15  C   UNL     1       6.861   2.755  -4.294  0.00  0.00    +0.000 C 
ATOM     16  C   UNL     1       5.068   2.376  -5.974  0.00  0.00    +0.000 C 
ENDBRANCH  13  14
ENDBRANCH  11  13
ENDBRANCH   6   7
BRANCH   4  17
ATOM     17  C   UNL     1       5.436   0.422   4.642  0.00  0.00    +0.000 C 
ATOM     18  C   UNL     1       4.782   1.317   5.677  0.00  0.00    +0.000 C 
ATOM     19  C   UNL     1       5.918   1.861   4.882  0.00  0.00    +0.000 C 
BRANCH  17  20
ATOM     20  N   UNL     1       6.476  -0.561   4.955  0.00  0.00    +0.000 N 
ATOM     21  H   UNL     1       7.291  -0.528   4.351  0.00  0.00    +0.000 HD
BRANCH  20  22
ATOM     22  C   UNL     1       6.343  -1.769   5.651  0.00  0.00    +0.000 A 
ATOM     23  C   UNL     1       5.193  -2.195   6.315  0.00  0.00    +0.000 A 
ATOM     24  C   UNL     1       5.213  -3.382   7.055  0.00  0.00    +0.000 A 
ATOM     25  C   UNL     1       6.399  -4.099   7.140  0.00  0.00    +0.000 A 
ATOM     26  N   UNL     1       7.548  -3.722   6.520  0.00  0.00    +0.000 NA
ATOM     27  C   UNL     1       7.479  -2.574   5.809  0.00  0.00    +0.000 A 
BRANCH  25  28
ATOM     28  C   UNL     1       6.493  -5.347   7.968  0.00  0.00    +0.000 C 
ATOM     29  N   UNL     1       7.726  -5.940   7.977  0.00  0.00    +0.000 N 
ATOM     30  O   UNL     1       5.543  -5.800   8.599  0.00  0.00    +0.000 OA
ATOM     31  H   UNL     1       8.489  -5.519   7.456  0.00  0.00    +0.000 HD
ATOM     32  H   UNL     1       7.880  -6.774   8.524  0.00  0.00    +0.000 HD
ENDBRANCH  25  28
ENDBRANCH  20  22
ENDBRANCH  17  20
ENDBRANCH   4  17
BRANCH   1  34
ATOM     33  C   UNL     1       1.190  -0.913  -0.198  0.00  0.00    +0.000 C 
ATOM     34  O   UNL     1       2.307  -0.034  -0.148  0.00  0.00    +0.000 OA
ENDBRANCH   1  34
TORSDOF 8
