REMARK  Name = 
REMARK  3 active torsions:
REMARK  status: ('A' for Active; 'I' for Inactive)
REMARK    1  A    between atoms: C_2  and  C_4
REMARK    2  A    between atoms: C_8  and  C_9
REMARK    3  A    between atoms: C_9  and  C_10
REMARK                            x       y       z     vdW  Elec       q    Type
REMARK                         _______ _______ _______ _____ _____    ______ ____
ROOT
ATOM      1  C   UNL     1       4.735   1.470  -0.301  0.00  0.00    +0.000 A 
ATOM      2  C   UNL     1       3.760   1.033  -1.183  0.00  0.00    +0.000 A 
ATOM      3  N   UNL     1       2.619   1.717  -1.438  0.00  0.00    +0.000 NA
ATOM      4  C   UNL     1       2.477   2.907  -0.808  0.00  0.00    +0.000 A 
ATOM      5  C   UNL     1       3.402   3.469   0.078  0.00  0.00    +0.000 A 
ATOM      6  C   UNL     1       4.553   2.701   0.330  0.00  0.00    +0.000 A 
ENDROOT
BRANCH   1   8
ATOM      7  N   UNL     1       6.566   0.742   1.115  0.00  0.00    +0.000 N 
ATOM      8  C   UNL     1       5.928   0.628  -0.088  0.00  0.00    +0.000 C 
ATOM      9  O   UNL     1       6.309  -0.173  -0.933  0.00  0.00    +0.000 OA
ATOM     10  H   UNL     1       7.305   0.069   1.291  0.00  0.00    +0.000 HD
ATOM     11  H   UNL     1       6.138   1.180   1.917  0.00  0.00    +0.000 HD
ENDBRANCH   1   8
BRANCH   5  12
ATOM     12  C   UNL     1       3.228   4.872   0.647  0.00  0.00    +0.000 C 
ATOM     13  C   UNL     1       3.263   5.038   2.163  0.00  0.00    +0.000 C 
ATOM     14  C   UNL     1       1.965   5.189   1.438  0.00  0.00    +0.000 C 
BRANCH  12  15
ATOM     15  C   UNL     1       3.827   5.963  -0.233  0.00  0.00    +0.000 A 
ATOM     16  C   UNL     1       5.137   6.432  -0.057  0.00  0.00    +0.000 A 
ATOM     17  C   UNL     1       5.710   7.300  -0.985  0.00  0.00    +0.000 A 
ATOM     18  C   UNL     1       4.951   7.696  -2.071  0.00  0.00    +0.000 A 
ATOM     19  N   UNL     1       3.673   7.315  -2.264  0.00  0.00    +0.000 NA
ATOM     20  C   UNL     1       3.151   6.464  -1.349  0.00  0.00    +0.000 A 
ENDBRANCH  12  15
ENDBRANCH   5  12
TORSDOF 3
