REMARK  Name = 
REMARK  9 active torsions:
REMARK  status: ('A' for Active; 'I' for Inactive)
REMARK    1  A    between atoms: C_1  and  C_2
REMARK    2  A    between atoms: C_2  and  O_3
REMARK    3  A    between atoms: O_3  and  C_4
REMARK    4  A    between atoms: C_8  and  C_9
REMARK    5  A    between atoms: C_9  and  C_10
REMARK    6  A    between atoms: C_10  and  N_11
REMARK    7  A    between atoms: N_11  and  C_12
REMARK    8  A    between atoms: C_15  and  C_16
REMARK    9  A    between atoms: C_23  and  O_24
REMARK                            x       y       z     vdW  Elec       q    Type
REMARK                         _______ _______ _______ _____ _____    ______ ____
ROOT
ATOM      1  C   UNL     1       6.086   1.709  -4.597  0.00  0.00    +0.000 C 
ENDROOT
BRANCH   1   6
ATOM      2  C   UNL     1       4.073  -0.259  -1.966  0.00  0.00    +0.000 A 
ATOM      3  C   UNL     1       4.920  -1.340  -1.750  0.00  0.00    +0.000 A 
ATOM      4  C   UNL     1       6.160  -1.392  -2.393  0.00  0.00    +0.000 A 
ATOM      5  C   UNL     1       6.537  -0.385  -3.282  0.00  0.00    +0.000 A 
ATOM      6  C   UNL     1       5.673   0.683  -3.557  0.00  0.00    +0.000 A 
ATOM      7  C   UNL     1       4.448   0.736  -2.871  0.00  0.00    +0.000 A 
BRANCH   2   8
ATOM      8  O   UNL     1       2.855  -0.050  -1.366  0.00  0.00    +0.000 OA
BRANCH   8  10
ATOM      9  C   UNL     1       1.822  -2.152  -0.669  0.00  0.00    +0.000 C 
ATOM     10  C   UNL     1       2.441  -0.832  -0.215  0.00  0.00    +0.000 C 
ATOM     11  C   UNL     1       3.406  -0.863   1.008  0.00  0.00    +0.000 C 
ATOM     12  C   UNL     1       2.570   0.236   1.680  0.00  0.00    +0.000 C 
ATOM     13  C   UNL     1       1.431  -0.070   0.699  0.00  0.00    +0.000 C 
BRANCH  12  14
ATOM     14  O   UNL     1       3.104   1.573   1.637  0.00  0.00    +0.000 OA
ATOM     15  H   UNL     1       3.152   1.806   0.692  0.00  0.00    +0.000 HD
ENDBRANCH  12  14
ENDBRANCH   8  10
ENDBRANCH   2   8
ENDBRANCH   1   6
BRANCH   1  16
ATOM     16  C   UNL     1       5.040   2.795  -4.868  0.00  0.00    +0.000 C 
BRANCH  16  17
ATOM     17  N   UNL     1       5.398   3.648  -5.994  0.00  0.00    +0.000 N 
ATOM     18  H   UNL     1       6.385   3.871  -6.081  0.00  0.00    +0.000 HD
BRANCH  17  19
ATOM     19  C   UNL     1       4.559   4.725  -6.305  0.00  0.00    +0.000 A 
ATOM     20  C   UNL     1       3.311   4.936  -5.705  0.00  0.00    +0.000 A 
ATOM     21  C   UNL     1       2.462   5.968  -6.122  0.00  0.00    +0.000 A 
ATOM     22  C   UNL     1       2.836   6.799  -7.176  0.00  0.00    +0.000 A 
ATOM     23  C   UNL     1       4.063   6.588  -7.809  0.00  0.00    +0.000 A 
ATOM     24  C   UNL     1       4.911   5.560  -7.377  0.00  0.00    +0.000 A 
BRANCH  22  25
ATOM     25  C   UNL     1       1.873   7.851  -7.612  0.00  0.00    +0.000 C 
ATOM     26  N   UNL     1       2.381   8.918  -8.301  0.00  0.00    +0.000 N 
ATOM     27  O   UNL     1       0.684   7.789  -7.337  0.00  0.00    +0.000 OA
ATOM     28  H   UNL     1       3.365   9.131  -8.331  0.00  0.00    +0.000 HD
ATOM     29  H   UNL     1       1.728   9.667  -8.494  0.00  0.00    +0.000 HD
ENDBRANCH  22  25
ENDBRANCH  17  19
ENDBRANCH  16  17
ENDBRANCH   1  16
TORSDOF 8
