REMARK  Name = 
REMARK  4 active torsions:
REMARK  status: ('A' for Active; 'I' for Inactive)
REMARK    1  A    between atoms: C_2  and  C_4
REMARK    2  A    between atoms: C_7  and  C_8
REMARK    3  A    between atoms: C_8  and  N_9
REMARK    4  A    between atoms: C_14  and  C_15
REMARK                            x       y       z     vdW  Elec       q    Type
REMARK                         _______ _______ _______ _____ _____    ______ ____
ROOT
ATOM      1  N   UNL     1       5.191  -1.613  -6.275  0.00  0.00    +0.000 N 
ATOM      2  C   UNL     1       5.006  -2.951  -6.543  0.00  0.00    +0.000 A 
ATOM      3  N   UNL     1       5.134  -3.246  -7.812  0.00  0.00    +0.000 NA
ATOM      4  C   UNL     1       5.610  -2.101  -8.368  0.00  0.00    +0.000 A 
ATOM      5  C   UNL     1       6.257  -1.967  -9.598  0.00  0.00    +0.000 A 
ATOM      6  C   UNL     1       6.792  -0.730  -9.965  0.00  0.00    +0.000 A 
ATOM      7  C   UNL     1       6.533   0.396  -9.166  0.00  0.00    +0.000 A 
ATOM      8  C   UNL     1       5.880   0.280  -7.912  0.00  0.00    +0.000 A 
ATOM      9  C   UNL     1       5.517  -1.015  -7.494  0.00  0.00    +0.000 A 
ENDROOT
BRANCH   6  10
ATOM     10  C   UNL     1       7.693  -0.767 -11.158  0.00  0.00    +0.000 C 
ATOM     11  N   UNL     1       8.258   0.395 -11.597  0.00  0.00    +0.000 N 
ATOM     12  O   UNL     1       7.960  -1.809 -11.737  0.00  0.00    +0.000 OA
ATOM     13  H   UNL     1       7.956   1.311 -11.319  0.00  0.00    +0.000 HD
ATOM     14  H   UNL     1       8.785   0.306 -12.458  0.00  0.00    +0.000 HD
ENDBRANCH   6  10
BRANCH   1  15
ATOM     15  C   UNL     1       5.706  -1.213  -4.955  0.00  0.00    +0.000 C 
BRANCH  15  19
ATOM     16  C   UNL     1       3.151  -0.129  -1.583  0.00  0.00    +0.000 A 
ATOM     17  C   UNL     1       2.562  -0.653  -2.743  0.00  0.00    +0.000 A 
ATOM     18  C   UNL     1       3.353  -1.043  -3.849  0.00  0.00    +0.000 A 
ATOM     19  C   UNL     1       4.745  -0.899  -3.820  0.00  0.00    +0.000 A 
ATOM     20  C   UNL     1       5.318  -0.393  -2.631  0.00  0.00    +0.000 A 
ATOM     21  C   UNL     1       4.537   0.001  -1.536  0.00  0.00    +0.000 A 
BRANCH  16  23
ATOM     22  N   UNL     1       1.179  -0.280  -0.143  0.00  0.00    +0.000 N 
ATOM     23  C   UNL     1       2.374   0.336  -0.394  0.00  0.00    +0.000 C 
ATOM     24  O   UNL     1       2.822   1.193   0.346  0.00  0.00    +0.000 OA
ATOM     25  H   UNL     1       0.741  -0.050   0.740  0.00  0.00    +0.000 HD
ATOM     26  H   UNL     1       0.921  -1.154  -0.574  0.00  0.00    +0.000 HD
ENDBRANCH  16  23
ENDBRANCH  15  19
ENDBRANCH   1  15
TORSDOF 4
