REMARK  Name = 
REMARK  11 active torsions:
REMARK  status: ('A' for Active; 'I' for Inactive)
REMARK    1  A    between atoms: C_1  and  O_2
REMARK    2  A    between atoms: O_2  and  C_3
REMARK    3  A    between atoms: C_5  and  C_6
REMARK    4  A    between atoms: C_6  and  N_7
REMARK    5  A    between atoms: C_8  and  C_10
REMARK    6  A    between atoms: C_17  and  C_18
REMARK    7  A    between atoms: C_18  and  N_19
REMARK    8  A    between atoms: C_20  and  C_22
REMARK    9  A    between atoms: C_24  and  C_25
REMARK   10  A    between atoms: C_24  and  C_26
REMARK   11  A    between atoms: N_27  and  C_28
REMARK                            x       y       z     vdW  Elec       q    Type
REMARK                         _______ _______ _______ _____ _____    ______ ____
ROOT
ATOM      1  C   UNL     1       2.959  -0.199   1.088  0.00  0.00    +0.000 A 
ATOM      2  C   UNL     1       2.615  -1.137   2.062  0.00  0.00    +0.000 A 
ATOM      3  C   UNL     1       3.321  -1.167   3.258  0.00  0.00    +0.000 A 
ATOM      4  N   UNL     1       4.362  -0.335   3.504  0.00  0.00    +0.000 NA
ATOM      5  C   UNL     1       4.694   0.549   2.532  0.00  0.00    +0.000 A 
ATOM      6  C   UNL     1       4.043   0.654   1.305  0.00  0.00    +0.000 A 
ENDROOT
BRANCH   1   8
ATOM      7  C   UNL     1       0.980  -0.593  -0.153  0.00  0.00    +0.000 C 
ATOM      8  O   UNL     1       2.309  -0.079  -0.115  0.00  0.00    +0.000 OA
ENDBRANCH   1   8
BRANCH   3   9
ATOM      9  C   UNL     1       2.939  -2.162   4.329  0.00  0.00    +0.000 C 
BRANCH   9  10
ATOM     10  N   UNL     1       3.681  -3.396   4.226  0.00  0.00    +0.000 N 
ATOM     11  C   UNL     1       3.233  -4.509   3.550  0.00  0.00    +0.000 C 
ATOM     12  O   UNL     1       2.150  -4.519   2.966  0.00  0.00    +0.000 OA
ATOM     13  H   UNL     1       4.633  -3.398   4.567  0.00  0.00    +0.000 HD
BRANCH  11  14
ATOM     14  C   UNL     1       4.128  -5.663   3.587  0.00  0.00    +0.000 A 
ATOM     15  C   UNL     1       3.942  -6.890   2.973  0.00  0.00    +0.000 A 
ATOM     16  C   UNL     1       5.004  -7.805   3.242  0.00  0.00    +0.000 A 
ATOM     17  C   UNL     1       5.968  -7.252   4.053  0.00  0.00    +0.000 A 
ATOM     18  S   UNL     1       5.598  -5.640   4.477  0.00  0.00    +0.000 S 
ENDBRANCH  11  14
ENDBRANCH   9  10
ENDBRANCH   3   9
BRANCH   6  19
ATOM     19  C   UNL     1       4.517   1.655   0.289  0.00  0.00    +0.000 C 
BRANCH  19  20
ATOM     20  N   UNL     1       3.873   2.943   0.416  0.00  0.00    +0.000 N 
ATOM     21  C   UNL     1       4.419   3.957   1.171  0.00  0.00    +0.000 C 
ATOM     22  O   UNL     1       5.457   3.866   1.807  0.00  0.00    +0.000 OA
ATOM     23  H   UNL     1       2.944   3.081   0.032  0.00  0.00    +0.000 HD
BRANCH  21  24
ATOM     24  C   UNL     1       3.619   5.236   1.205  0.00  0.00    +0.000 C 
ATOM     25  N   UNL     1       2.331   5.248   0.952  0.00  0.00    +0.000 NA
ATOM     26  C   UNL     1       1.903   6.670   1.153  0.00  0.00    +0.000 C 
ATOM     27  C   UNL     1       0.711   6.688   2.112  0.00  0.00    +0.000 C 
ATOM     28  C   UNL     1       1.497   7.221  -0.219  0.00  0.00    +0.000 C 
ATOM     29  N   UNL     1       3.047   7.358   1.701  0.00  0.00    +0.000 N 
ATOM     30  C   UNL     1       3.076   8.740   2.120  0.00  0.00    +0.000 C 
ATOM     31  C   UNL     1       4.163   6.588   1.574  0.00  0.00    +0.000 C 
ATOM     32  O   UNL     1       5.328   6.884   1.700  0.00  0.00    +0.000 OA
ENDBRANCH  21  24
ENDBRANCH  19  20
ENDBRANCH   6  19
TORSDOF 7
