REMARK  Name = 
REMARK  5 active torsions:
REMARK  status: ('A' for Active; 'I' for Inactive)
REMARK    1  A    between atoms: C_2  and  C_4
REMARK    2  A    between atoms: C_7  and  N_8
REMARK    3  A    between atoms: N_8  and  C_9
REMARK    4  A    between atoms: C_9  and  C_10
REMARK    5  A    between atoms: C_14  and  C_15
REMARK                            x       y       z     vdW  Elec       q    Type
REMARK                         _______ _______ _______ _____ _____    ______ ____
ROOT
ATOM      1  C   UNL     1       5.021  -4.876  -3.650  0.00  0.00    +0.000 C 
ENDROOT
BRANCH   1   2
ATOM      2  C   UNL     1       5.935  -6.039  -3.934  0.00  0.00    +0.000 A 
ATOM      3  C   UNL     1       5.449  -7.346  -3.932  0.00  0.00    +0.000 A 
ATOM      4  C   UNL     1       6.318  -8.373  -4.248  0.00  0.00    +0.000 A 
ATOM      5  N   UNL     1       7.621  -8.189  -4.551  0.00  0.00    +0.000 NA
ATOM      6  C   UNL     1       8.108  -6.922  -4.540  0.00  0.00    +0.000 A 
ATOM      7  C   UNL     1       7.285  -5.832  -4.253  0.00  0.00    +0.000 A 
BRANCH   6   8
ATOM      8  C   UNL     1       9.552  -6.792  -4.833  0.00  0.00    +0.000 A 
ATOM      9  C   UNL     1      10.334  -5.756  -4.282  0.00  0.00    +0.000 A 
ATOM     10  C   UNL     1      11.705  -5.654  -4.545  0.00  0.00    +0.000 A 
ATOM     11  C   UNL     1      12.326  -6.591  -5.365  0.00  0.00    +0.000 A 
ATOM     12  C   UNL     1      11.571  -7.618  -5.914  0.00  0.00    +0.000 A 
ATOM     13  F   UNL     1      12.169  -8.522  -6.703  0.00  0.00    +0.000 F 
ATOM     14  C   UNL     1      10.207  -7.724  -5.657  0.00  0.00    +0.000 A 
ENDBRANCH   6   8
ENDBRANCH   1   2
BRANCH   1  15
ATOM     15  N   UNL     1       5.529  -4.085  -2.540  0.00  0.00    +0.000 N 
ATOM     16  H   UNL     1       5.900  -4.641  -1.772  0.00  0.00    +0.000 HD
BRANCH  15  20
ATOM     17  C   UNL     1       3.578  -0.582  -1.214  0.00  0.00    +0.000 A 
ATOM     18  C   UNL     1       3.034  -1.311  -2.272  0.00  0.00    +0.000 A 
ATOM     19  C   UNL     1       3.664  -2.481  -2.713  0.00  0.00    +0.000 A 
ATOM     20  C   UNL     1       4.823  -2.966  -2.094  0.00  0.00    +0.000 A 
ATOM     21  C   UNL     1       5.366  -2.208  -1.047  0.00  0.00    +0.000 A 
ATOM     22  C   UNL     1       4.757  -1.025  -0.612  0.00  0.00    +0.000 A 
BRANCH  17  24
ATOM     23  N   UNL     1       1.609   0.815  -0.900  0.00  0.00    +0.000 N 
ATOM     24  C   UNL     1       2.960   0.680  -0.738  0.00  0.00    +0.000 C 
ATOM     25  O   UNL     1       3.618   1.556  -0.192  0.00  0.00    +0.000 OA
ATOM     26  H   UNL     1       1.187   1.632  -0.479  0.00  0.00    +0.000 HD
ATOM     27  H   UNL     1       1.009   0.029  -1.104  0.00  0.00    +0.000 HD
ENDBRANCH  17  24
ENDBRANCH  15  20
ENDBRANCH   1  15
TORSDOF 5
