REMARK  Name = 
REMARK  6 active torsions:
REMARK  status: ('A' for Active; 'I' for Inactive)
REMARK    1  A    between atoms: C_1  and  C_2
REMARK    2  A    between atoms: C_7  and  C_8
REMARK    3  A    between atoms: C_8  and  N_9
REMARK    4  A    between atoms: N_9  and  C_10
REMARK    5  A    between atoms: C_13  and  C_14
REMARK    6  A    between atoms: C_25  and  C_26
REMARK                            x       y       z     vdW  Elec       q    Type
REMARK                         _______ _______ _______ _____ _____    ______ ____
ROOT
ATOM      1  C   UNL     1       1.761   4.786  -4.959  0.00  0.00    +0.000 C 
ATOM      2  C   UNL     1       1.699   5.862  -3.898  0.00  0.00    +0.000 C 
ATOM      3  C   UNL     1       0.625   5.810  -4.930  0.00  0.00    +0.000 C 
ENDROOT
BRANCH   1  10
ATOM      4  C   UNL     1       1.578  -2.366  -2.756  0.00  0.00    +0.000 C 
ATOM      5  C   UNL     1       2.664  -1.731  -1.894  0.00  0.00    +0.000 C 
ATOM      6  C   UNL     1       2.414  -0.255  -1.536  0.00  0.00    +0.000 C 
ATOM      7  N   UNL     1       2.952   0.698  -2.511  0.00  0.00    +0.000 N 
ATOM      8  C   UNL     1       2.069   1.380  -3.324  0.00  0.00    +0.000 A 
ATOM      9  C   UNL     1       2.387   2.660  -3.738  0.00  0.00    +0.000 A 
ATOM     10  C   UNL     1       1.468   3.358  -4.509  0.00  0.00    +0.000 A 
ATOM     11  N   UNL     1       0.314   2.775  -4.897  0.00  0.00    +0.000 NA
ATOM     12  C   UNL     1       0.085   1.540  -4.439  0.00  0.00    +0.000 A 
ATOM     13  N   UNL     1       0.898   0.823  -3.653  0.00  0.00    +0.000 NA
ATOM     14  C   UNL     1       4.286   0.388  -3.041  0.00  0.00    +0.000 C 
ATOM     15  C   UNL     1       4.437  -1.097  -3.428  0.00  0.00    +0.000 C 
ATOM     16  C   UNL     1       3.861  -1.443  -4.797  0.00  0.00    +0.000 C 
ATOM     17  O   UNL     1       3.980  -1.991  -2.404  0.00  0.00    +0.000 OA
ENDBRANCH   1  10
BRANCH   1  18
ATOM     18  N   UNL     1       2.509   4.856  -6.230  0.00  0.00    +0.000 N 
ATOM     19  H   UNL     1       2.022   4.327  -6.954  0.00  0.00    +0.000 HD
BRANCH  18  20
ATOM     20  C   UNL     1       3.901   4.714  -6.380  0.00  0.00    +0.000 A 
ATOM     21  C   UNL     1       4.839   4.934  -5.373  0.00  0.00    +0.000 A 
ATOM     22  C   UNL     1       6.215   4.862  -5.657  0.00  0.00    +0.000 A 
ATOM     23  C   UNL     1       6.658   4.585  -6.961  0.00  0.00    +0.000 A 
ATOM     24  C   UNL     1       5.725   4.404  -7.977  0.00  0.00    +0.000 A 
ATOM     25  C   UNL     1       4.361   4.484  -7.687  0.00  0.00    +0.000 A 
BRANCH  23  26
ATOM     26  C   UNL     1       8.116   4.545  -7.242  0.00  0.00    +0.000 C 
ATOM     27  N   UNL     1       8.532   3.812  -8.315  0.00  0.00    +0.000 N 
ATOM     28  O   UNL     1       8.920   5.139  -6.530  0.00  0.00    +0.000 OA
ATOM     29  H   UNL     1       7.932   3.200  -8.844  0.00  0.00    +0.000 HD
ATOM     30  H   UNL     1       9.530   3.758  -8.479  0.00  0.00    +0.000 HD
ENDBRANCH  23  26
ENDBRANCH  18  20
ENDBRANCH   1  18
TORSDOF 4
