REMARK  Name = 
REMARK  8 active torsions:
REMARK  status: ('A' for Active; 'I' for Inactive)
REMARK    1  A    between atoms: C_1  and  C_2
REMARK    2  A    between atoms: C_2  and  N_3
REMARK    3  A    between atoms: C_2  and  C_16
REMARK    4  A    between atoms: C_4  and  C_6
REMARK    5  A    between atoms: C_19  and  C_20
REMARK    6  A    between atoms: C_20  and  N_21
REMARK    7  A    between atoms: C_22  and  C_24
REMARK    8  A    between atoms: C_25  and  C_26
REMARK                            x       y       z     vdW  Elec       q    Type
REMARK                         _______ _______ _______ _____ _____    ______ ____
ROOT
ATOM      1  C   UNL     1       3.080   0.696  -1.268  0.00  0.00    +0.000 A 
ATOM      2  C   UNL     1       2.823   2.071  -1.389  0.00  0.00    +0.000 A 
ATOM      3  C   UNL     1       3.218   2.786  -2.527  0.00  0.00    +0.000 A 
ATOM      4  C   UNL     1       3.877   2.143  -3.583  0.00  0.00    +0.000 A 
ATOM      5  C   UNL     1       4.185   0.783  -3.445  0.00  0.00    +0.000 A 
ATOM      6  C   UNL     1       3.778   0.064  -2.310  0.00  0.00    +0.000 A 
ENDROOT
BRANCH   1   8
ATOM      7  C   UNL     1       1.104  -0.586  -0.456  0.00  0.00    +0.000 C 
ATOM      8  C   UNL     1       2.498  -0.067  -0.079  0.00  0.00    +0.000 C 
BRANCH   8   9
ATOM      9  N   UNL     1       3.373  -1.136   0.379  0.00  0.00    +0.000 N 
ATOM     10  C   UNL     1       3.092  -1.877   1.505  0.00  0.00    +0.000 C 
ATOM     11  O   UNL     1       2.073  -1.715   2.169  0.00  0.00    +0.000 OA
ATOM     12  H   UNL     1       4.346  -1.072   0.097  0.00  0.00    +0.000 HD
BRANCH  10  13
ATOM     13  C   UNL     1       4.051  -2.932   1.853  0.00  0.00    +0.000 A 
ATOM     14  C   UNL     1       3.619  -4.054   2.548  0.00  0.00    +0.000 A 
ATOM     15  S   UNL     1       4.858  -5.182   2.862  0.00  0.00    +0.000 S 
ATOM     16  C   UNL     1       6.023  -4.189   2.120  0.00  0.00    +0.000 A 
ATOM     17  N   UNL     1       7.332  -4.555   2.079  0.00  0.00    +0.000 NA
ATOM     18  C   UNL     1       8.109  -3.689   1.518  0.00  0.00    +0.000 A 
ATOM     19  N   UNL     1       7.694  -2.497   0.982  0.00  0.00    +0.000 N 
ATOM     20  C   UNL     1       6.377  -2.107   0.962  0.00  0.00    +0.000 A 
ATOM     21  O   UNL     1       6.025  -1.068   0.412  0.00  0.00    +0.000 OA
ATOM     22  C   UNL     1       5.468  -3.029   1.611  0.00  0.00    +0.000 A 
ATOM     23  H   UNL     1       8.351  -1.871   0.542  0.00  0.00    +0.000 HD
ENDBRANCH  10  13
ENDBRANCH   8   9
ENDBRANCH   1   8
BRANCH   4  24
ATOM     24  C   UNL     1       4.201   2.888  -4.854  0.00  0.00    +0.000 C 
BRANCH  24  25
ATOM     25  N   UNL     1       5.500   3.517  -4.819  0.00  0.00    +0.000 N 
ATOM     26  C   UNL     1       5.968   4.200  -5.916  0.00  0.00    +0.000 C 
ATOM     27  O   UNL     1       5.347   4.334  -6.961  0.00  0.00    +0.000 OA
ATOM     28  H   UNL     1       6.037   3.462  -3.966  0.00  0.00    +0.000 HD
BRANCH  26  29
ATOM     29  C   UNL     1       7.330   4.758  -5.715  0.00  0.00    +0.000 C 
ATOM     30  C   UNL     1       7.941   5.444  -6.695  0.00  0.00    +0.000 C 
BRANCH  30  31
ATOM     31  C   UNL     1       9.265   5.962  -6.542  0.00  0.00    +0.000 A 
ATOM     32  C   UNL     1      10.151   5.893  -5.476  0.00  0.00    +0.000 A 
ATOM     33  C   UNL     1      11.401   6.530  -5.732  0.00  0.00    +0.000 A 
ATOM     34  C   UNL     1      11.446   7.080  -6.990  0.00  0.00    +0.000 A 
ATOM     35  S   UNL     1       9.991   6.829  -7.848  0.00  0.00    +0.000 S 
ENDBRANCH  30  31
ENDBRANCH  26  29
ENDBRANCH  24  25
ENDBRANCH   4  24
TORSDOF 7
