REMARK  Name = 
REMARK  5 active torsions:
REMARK  status: ('A' for Active; 'I' for Inactive)
REMARK    1  A    between atoms: C_2  and  C_3
REMARK    2  A    between atoms: N_7  and  C_8
REMARK    3  A    between atoms: C_8  and  C_9
REMARK    4  A    between atoms: C_13  and  C_14
REMARK    5  A    between atoms: C_18  and  C_19
REMARK                            x       y       z     vdW  Elec       q    Type
REMARK                         _______ _______ _______ _____ _____    ______ ____
ROOT
ATOM      1  C   UNL     1      -5.393   0.136   0.326  0.00  0.00    +0.000 A 
ATOM      2  C   UNL     1      -5.701  -0.905  -0.566  0.00  0.00    +0.000 A 
ATOM      3  C   UNL     1      -6.133  -2.139  -0.095  0.00  0.00    +0.000 A 
ATOM      4  C   UNL     1      -6.294  -2.334   1.276  0.00  0.00    +0.000 A 
ATOM      5  C   UNL     1      -6.107  -1.282   2.189  0.00  0.00    +0.000 A 
ATOM      6  C   UNL     1      -5.713  -0.037   1.678  0.00  0.00    +0.000 A 
ENDROOT
BRANCH   5   7
ATOM      7  C   UNL     1      -6.175  -1.489   3.644  0.00  0.00    +0.000 A 
ATOM      8  C   UNL     1      -5.659  -2.643   4.236  0.00  0.00    +0.000 A 
ATOM      9  N   UNL     1      -5.636  -2.890   5.566  0.00  0.00    +0.000 NA
ATOM     10  C   UNL     1      -6.147  -1.927   6.368  0.00  0.00    +0.000 A 
ATOM     11  C   UNL     1      -6.678  -0.732   5.906  0.00  0.00    +0.000 A 
ATOM     12  C   UNL     1      -6.686  -0.520   4.523  0.00  0.00    +0.000 A 
BRANCH  11  13
ATOM     13  C   UNL     1      -7.210   0.325   6.801  0.00  0.00    +0.000 C 
ATOM     14  N   UNL     1      -7.218   0.111   8.151  0.00  0.00    +0.000 N 
ATOM     15  O   UNL     1      -7.639   1.381   6.350  0.00  0.00    +0.000 OA
ATOM     16  H   UNL     1      -6.888  -0.715   8.626  0.00  0.00    +0.000 HD
ATOM     17  H   UNL     1      -7.588   0.859   8.724  0.00  0.00    +0.000 HD
ENDBRANCH  11  13
ENDBRANCH   5   7
BRANCH   1  18
ATOM     18  C   UNL     1      -4.493   1.278  -0.115  0.00  0.00    +0.000 C 
ATOM     19  C   UNL     1      -3.339   1.763   0.744  0.00  0.00    +0.000 C 
ATOM     20  C   UNL     1      -3.060   0.772  -0.333  0.00  0.00    +0.000 C 
BRANCH  18  25
ATOM     21  C   UNL     1      -7.237   5.669  -0.703  0.00  0.00    +0.000 A 
ATOM     22  C   UNL     1      -7.137   4.846   0.414  0.00  0.00    +0.000 A 
ATOM     23  C   UNL     1      -6.385   3.671   0.335  0.00  0.00    +0.000 A 
ATOM     24  C   UNL     1      -5.761   3.347  -0.865  0.00  0.00    +0.000 A 
ATOM     25  N   UNL     1      -5.064   2.171  -1.107  0.00  0.00    +0.000 N 
ATOM     26  N   UNL     1      -5.829   4.158  -1.942  0.00  0.00    +0.000 NA
ATOM     27  C   UNL     1      -6.555   5.293  -1.846  0.00  0.00    +0.000 A 
ATOM     28  H   UNL     1      -4.668   2.219  -2.038  0.00  0.00    +0.000 HD
BRANCH  21  30
ATOM     29  N   UNL     1      -8.679   7.810  -0.747  0.00  0.00    +0.000 NA
ATOM     30  C   UNL     1      -8.028   6.856  -0.716  0.00  0.00    +0.000 C 
ENDBRANCH  21  30
ENDBRANCH  18  25
ENDBRANCH   1  18
TORSDOF 5
