REMARK  Name = 
REMARK  7 active torsions:
REMARK  status: ('A' for Active; 'I' for Inactive)
REMARK    1  A    between atoms: C_2  and  C_20
REMARK    2  A    between atoms: N_3  and  C_4
REMARK    3  A    between atoms: C_4  and  C_5
REMARK    4  A    between atoms: C_8  and  C_9
REMARK    5  A    between atoms: C_9  and  N_10
REMARK    6  A    between atoms: N_10  and  C_11
REMARK    7  A    between atoms: C_11  and  C_12
REMARK                            x       y       z     vdW  Elec       q    Type
REMARK                         _______ _______ _______ _____ _____    ______ ____
ROOT
ATOM      1  C   UNL     1       2.285  -2.440   0.733  0.00  0.00    +0.000 C 
ENDROOT
BRANCH   1   2
ATOM      2  C   UNL     1       3.269  -3.534   1.161  0.00  0.00    +0.000 C 
ATOM      3  C   UNL     1       2.608  -4.915   1.061  0.00  0.00    +0.000 C 
ATOM      4  C   UNL     1       3.560  -6.024   1.501  0.00  0.00    +0.000 C 
ATOM      5  C   UNL     1       4.093  -5.796   2.925  0.00  0.00    +0.000 C 
ATOM      6  C   UNL     1       4.715  -4.395   3.052  0.00  0.00    +0.000 C 
ATOM      7  C   UNL     1       3.764  -3.295   2.593  0.00  0.00    +0.000 C 
BRANCH   5   8
ATOM      8  C   UNL     1       5.125  -6.871   3.331  0.00  0.00    +0.000 C 
BRANCH   8   9
ATOM      9  N   UNL     1       5.595  -6.619   4.695  0.00  0.00    +0.000 NA
ATOM     10  H   UNL     1       4.802  -6.639   5.335  0.00  0.00    +0.000 HD
BRANCH   9  11
ATOM     11  C   UNL     1       6.579  -7.597   5.148  0.00  0.00    +0.000 C 
BRANCH  11  12
ATOM     12  C   UNL     1       7.047  -7.292   6.548  0.00  0.00    +0.000 A 
ATOM     13  C   UNL     1       7.688  -6.085   6.842  0.00  0.00    +0.000 A 
ATOM     14  C   UNL     1       8.110  -5.820   8.140  0.00  0.00    +0.000 A 
ATOM     15  C   UNL     1       7.888  -6.780   9.113  0.00  0.00    +0.000 A 
ATOM     16  N   UNL     1       7.275  -7.958   8.875  0.00  0.00    +0.000 NA
ATOM     17  C   UNL     1       6.867  -8.185   7.603  0.00  0.00    +0.000 A 
ENDBRANCH  11  12
ENDBRANCH   9  11
ENDBRANCH   8   9
ENDBRANCH   5   8
ENDBRANCH   1   2
BRANCH   1  20
ATOM     18  O   UNL     1       3.560  -1.328  -1.497  0.00  0.00    +0.000 OA
ATOM     19  C   UNL     1       2.535  -1.998  -1.666  0.00  0.00    +0.000 C 
ATOM     20  N   UNL     1       1.876  -2.619  -0.639  0.00  0.00    +0.000 N 
ATOM     21  H   UNL     1       1.115  -3.257  -0.839  0.00  0.00    +0.000 HD
BRANCH  19  22
ATOM     22  C   UNL     1       1.983  -2.242  -2.991  0.00  0.00    +0.000 A 
ATOM     23  C   UNL     1       2.754  -2.257  -4.144  0.00  0.00    +0.000 A 
ATOM     24  S   UNL     1       1.841  -2.634  -5.545  0.00  0.00    +0.000 S 
ATOM     25  C   UNL     1       0.399  -2.758  -4.645  0.00  0.00    +0.000 A 
ATOM     26  N   UNL     1      -0.785  -3.067  -5.233  0.00  0.00    +0.000 NA
ATOM     27  C   UNL     1      -1.786  -3.143  -4.413  0.00  0.00    +0.000 A 
ATOM     28  N   UNL     1      -1.702  -2.934  -3.063  0.00  0.00    +0.000 N 
ATOM     29  C   UNL     1      -0.555  -2.524  -2.443  0.00  0.00    +0.000 A 
ATOM     30  O   UNL     1      -0.564  -2.228  -1.247  0.00  0.00    +0.000 OA
ATOM     31  C   UNL     1       0.607  -2.503  -3.306  0.00  0.00    +0.000 A 
ATOM     32  H   UNL     1      -2.530  -2.961  -2.480  0.00  0.00    +0.000 HD
ENDBRANCH  19  22
ENDBRANCH   1  20
TORSDOF 7
