REMARK  Name = 
REMARK  4 active torsions:
REMARK  status: ('A' for Active; 'I' for Inactive)
REMARK    1  A    between atoms: C_2  and  C_3
REMARK    2  A    between atoms: N_7  and  C_8
REMARK    3  A    between atoms: C_8  and  C_9
REMARK    4  A    between atoms: C_13  and  C_14
REMARK                            x       y       z     vdW  Elec       q    Type
REMARK                         _______ _______ _______ _____ _____    ______ ____
ROOT
ATOM      1  C   UNL     1      -5.869   1.113  -0.238  0.00  0.00    +0.000 A 
ATOM      2  C   UNL     1      -6.736   2.196  -0.286  0.00  0.00    +0.000 A 
ATOM      3  N   UNL     1      -8.079   2.092  -0.361  0.00  0.00    +0.000 NA
ATOM      4  C   UNL     1      -8.591   0.838  -0.380  0.00  0.00    +0.000 A 
ATOM      5  C   UNL     1      -7.839  -0.338  -0.348  0.00  0.00    +0.000 A 
ATOM      6  C   UNL     1      -6.448  -0.163  -0.281  0.00  0.00    +0.000 A 
ENDROOT
BRANCH   5   7
ATOM      7  C   UNL     1      -8.455  -1.681  -0.375  0.00  0.00    +0.000 A 
ATOM      8  C   UNL     1      -9.647  -1.935  -1.067  0.00  0.00    +0.000 A 
ATOM      9  C   UNL     1     -10.178  -3.218  -1.064  0.00  0.00    +0.000 A 
ATOM     10  N   UNL     1      -9.614  -4.263  -0.433  0.00  0.00    +0.000 NA
ATOM     11  C   UNL     1      -8.469  -4.011   0.228  0.00  0.00    +0.000 A 
ATOM     12  F   UNL     1      -7.881  -5.033   0.865  0.00  0.00    +0.000 F 
ATOM     13  C   UNL     1      -7.866  -2.766   0.288  0.00  0.00    +0.000 A 
ENDBRANCH   5   7
BRANCH   1  14
ATOM     14  C   UNL     1      -4.389   1.366  -0.126  0.00  0.00    +0.000 C 
BRANCH  14  19
ATOM     15  C   UNL     1      -2.021  -1.885  -3.355  0.00  0.00    +0.000 A 
ATOM     16  C   UNL     1      -2.782  -0.754  -3.611  0.00  0.00    +0.000 A 
ATOM     17  C   UNL     1      -3.324  -0.041  -2.541  0.00  0.00    +0.000 A 
ATOM     18  C   UNL     1      -3.100  -0.474  -1.237  0.00  0.00    +0.000 A 
ATOM     19  N   UNL     1      -3.592   0.163  -0.134  0.00  0.00    +0.000 N 
ATOM     20  N   UNL     1      -2.368  -1.576  -0.982  0.00  0.00    +0.000 NA
ATOM     21  C   UNL     1      -1.838  -2.251  -2.032  0.00  0.00    +0.000 A 
ATOM     22  H   UNL     1      -3.403  -0.314   0.737  0.00  0.00    +0.000 HD
BRANCH  15  24
ATOM     23  N   UNL     1      -0.987  -3.269  -5.282  0.00  0.00    +0.000 NA
ATOM     24  C   UNL     1      -1.449  -2.650  -4.412  0.00  0.00    +0.000 C 
ENDBRANCH  15  24
ENDBRANCH  14  19
ENDBRANCH   1  14
TORSDOF 4
