REMARK  Name = 
REMARK  7 active torsions:
REMARK  status: ('A' for Active; 'I' for Inactive)
REMARK    1  A    between atoms: C_1  and  C_2
REMARK    2  A    between atoms: C_2  and  N_3
REMARK    3  A    between atoms: C_2  and  C_18
REMARK    4  A    between atoms: N_3  and  C_4
REMARK    5  A    between atoms: C_7  and  C_8
REMARK    6  A    between atoms: C_8  and  O_9
REMARK    7  A    between atoms: O_9  and  C_10
REMARK                            x       y       z     vdW  Elec       q    Type
REMARK                         _______ _______ _______ _____ _____    ______ ____
ROOT
ATOM      1  N   UNL     1       2.753  -0.646   1.338  0.00  0.00    +0.000 N 
ATOM      2  H   UNL     1       2.451  -1.622   1.343  0.00  0.00    +0.000 HD
ENDROOT
BRANCH   1   3
ATOM      3  C   UNL     1       2.488  -0.131   2.611  0.00  0.00    +0.000 A 
ATOM      4  C   UNL     1       1.168   0.233   2.912  0.00  0.00    +0.000 A 
ATOM      5  C   UNL     1       0.804   0.679   4.189  0.00  0.00    +0.000 A 
ATOM      6  C   UNL     1       1.753   0.726   5.214  0.00  0.00    +0.000 A 
ATOM      7  C   UNL     1       3.060   0.310   4.936  0.00  0.00    +0.000 A 
ATOM      8  C   UNL     1       3.419  -0.115   3.650  0.00  0.00    +0.000 A 
BRANCH   6   9
ATOM      9  C   UNL     1       1.369   1.184   6.597  0.00  0.00    +0.000 C 
BRANCH   9  10
ATOM     10  O   UNL     1       0.911   0.068   7.357  0.00  0.00    +0.000 OA
BRANCH  10  11
ATOM     11  C   UNL     1       0.491   0.335   8.635  0.00  0.00    +0.000 A 
ATOM     12  C   UNL     1       0.519   1.585   9.246  0.00  0.00    +0.000 A 
ATOM     13  C   UNL     1       0.055   1.688  10.550  0.00  0.00    +0.000 A 
ATOM     14  N   UNL     1      -0.420   0.649  11.263  0.00  0.00    +0.000 NA
ATOM     15  C   UNL     1      -0.440  -0.552  10.647  0.00  0.00    +0.000 A 
ATOM     16  C   UNL     1       0.004  -0.755   9.347  0.00  0.00    +0.000 A 
ENDBRANCH  10  11
ENDBRANCH   9  10
ENDBRANCH   6   9
ENDBRANCH   1   3
BRANCH   1  18
ATOM     17  C   UNL     1       4.511   0.895   0.508  0.00  0.00    +0.000 C 
ATOM     18  C   UNL     1       4.098  -0.571   0.722  0.00  0.00    +0.000 C 
BRANCH  18  19
ATOM     19  C   UNL     1       4.145  -1.270  -0.632  0.00  0.00    +0.000 A 
ATOM     20  C   UNL     1       3.062  -1.340  -1.494  0.00  0.00    +0.000 A 
ATOM     21  S   UNL     1       3.426  -2.102  -2.974  0.00  0.00    +0.000 S 
ATOM     22  C   UNL     1       5.047  -2.354  -2.514  0.00  0.00    +0.000 A 
ATOM     23  N   UNL     1       5.933  -2.947  -3.356  0.00  0.00    +0.000 NA
ATOM     24  C   UNL     1       7.130  -3.050  -2.880  0.00  0.00    +0.000 A 
ATOM     25  N   UNL     1       7.519  -2.623  -1.635  0.00  0.00    +0.000 N 
ATOM     26  C   UNL     1       6.660  -2.014  -0.746  0.00  0.00    +0.000 A 
ATOM     27  O   UNL     1       7.034  -1.628   0.355  0.00  0.00    +0.000 OA
ATOM     28  C   UNL     1       5.302  -1.875  -1.242  0.00  0.00    +0.000 A 
ATOM     29  H   UNL     1       8.474  -2.736  -1.328  0.00  0.00    +0.000 HD
ENDBRANCH  18  19
ENDBRANCH   1  18
TORSDOF 6
