REMARK  Name = 
REMARK  5 active torsions:
REMARK  status: ('A' for Active; 'I' for Inactive)
REMARK    1  A    between atoms: C_2  and  C_5
REMARK    2  A    between atoms: N_3  and  O_4
REMARK    3  A    between atoms: N_9  and  C_10
REMARK    4  A    between atoms: C_10  and  C_11
REMARK    5  A    between atoms: C_11  and  C_12
REMARK                            x       y       z     vdW  Elec       q    Type
REMARK                         _______ _______ _______ _____ _____    ______ ____
ROOT
ATOM      1  C   UNL     1       2.797   0.312   1.371  0.00  0.00    +0.000 A 
ATOM      2  C   UNL     1       4.104   0.714   1.130  0.00  0.00    +0.000 A 
ATOM      3  C   UNL     1       4.878   1.190   2.191  0.00  0.00    +0.000 A 
ATOM      4  C   UNL     1       4.353   1.200   3.482  0.00  0.00    +0.000 A 
ATOM      5  N   UNL     1       5.125   1.746   4.521  0.00  0.00    +0.000 N 
ATOM      6  N   UNL     1       3.088   0.792   3.726  0.00  0.00    +0.000 NA
ATOM      7  C   UNL     1       2.339   0.362   2.678  0.00  0.00    +0.000 A 
ATOM      8  H   UNL     1       6.113   1.661   4.311  0.00  0.00    +0.000 HD
ENDROOT
BRANCH   1  10
ATOM      9  O   UNL     1       2.446  -0.762  -0.697  0.00  0.00    +0.000 OA
ATOM     10  C   UNL     1       1.953  -0.175   0.263  0.00  0.00    +0.000 C 
ATOM     11  N   UNL     1       0.607   0.110   0.341  0.00  0.00    +0.000 N 
ATOM     12  H   UNL     1       0.245   0.892   0.879  0.00  0.00    +0.000 HD
BRANCH  11  13
ATOM     13  O   UNL     1      -0.141  -0.239  -0.809  0.00  0.00    +0.000 OA
ATOM     14  H   UNL     1       0.530  -0.689  -1.370  0.00  0.00    +0.000 HD
ENDBRANCH  11  13
ENDBRANCH   1  10
BRANCH   5  15
ATOM     15  C   UNL     1       4.805   1.205   5.850  0.00  0.00    +0.000 C 
BRANCH  15  16
ATOM     16  C   UNL     1       5.779   1.788   6.882  0.00  0.00    +0.000 C 
BRANCH  16  17
ATOM     17  C   UNL     1       5.532   1.297   8.288  0.00  0.00    +0.000 A 
ATOM     18  C   UNL     1       6.169   0.144   8.770  0.00  0.00    +0.000 A 
ATOM     19  C   UNL     1       5.959  -0.287  10.081  0.00  0.00    +0.000 A 
ATOM     20  C   UNL     1       5.104   0.424  10.921  0.00  0.00    +0.000 A 
ATOM     21  C   UNL     1       4.452   1.560  10.448  0.00  0.00    +0.000 A 
ATOM     22  C   UNL     1       4.662   1.993   9.138  0.00  0.00    +0.000 A 
ENDBRANCH  16  17
ENDBRANCH  15  16
ENDBRANCH   5  15
TORSDOF 5
