REMARK  Name = 
REMARK  7 active torsions:
REMARK  status: ('A' for Active; 'I' for Inactive)
REMARK    1  A    between atoms: C_1  and  C_2
REMARK    2  A    between atoms: C_4  and  C_5
REMARK    3  A    between atoms: C_10  and  N_11
REMARK    4  A    between atoms: N_11  and  C_12
REMARK    5  A    between atoms: C_12  and  C_13
REMARK    6  A    between atoms: C_18  and  C_19
REMARK    7  A    between atoms: C_23  and  C_24
REMARK                            x       y       z     vdW  Elec       q    Type
REMARK                         _______ _______ _______ _____ _____    ______ ____
ROOT
ATOM      1  C   UNL     1       2.771  -4.025   0.101  0.00  0.00    +0.000 A 
ATOM      2  C   UNL     1       4.131  -4.320   0.215  0.00  0.00    +0.000 A 
ATOM      3  C   UNL     1       4.548  -5.642   0.211  0.00  0.00    +0.000 A 
ATOM      4  F   UNL     1       5.856  -5.917   0.281  0.00  0.00    +0.000 F 
ATOM      5  C   UNL     1       3.634  -6.687   0.117  0.00  0.00    +0.000 A 
ATOM      6  C   UNL     1       2.257  -6.433   0.013  0.00  0.00    +0.000 A 
ATOM      7  C   UNL     1       1.850  -5.083   0.004  0.00  0.00    +0.000 A 
ENDROOT
BRANCH   6   8
ATOM      8  C   UNL     1       1.273  -7.530  -0.083  0.00  0.00    +0.000 A 
ATOM      9  C   UNL     1       1.557  -8.752  -0.696  0.00  0.00    +0.000 A 
ATOM     10  N   UNL     1       0.695  -9.794  -0.796  0.00  0.00    +0.000 NA
ATOM     11  C   UNL     1      -0.533  -9.625  -0.261  0.00  0.00    +0.000 A 
ATOM     12  C   UNL     1      -0.943  -8.462   0.365  0.00  0.00    +0.000 A 
ATOM     13  C   UNL     1      -0.019  -7.411   0.452  0.00  0.00    +0.000 A 
BRANCH  12  14
ATOM     14  C   UNL     1      -2.318  -8.330   0.935  0.00  0.00    +0.000 C 
ATOM     15  F   UNL     1      -3.084  -9.444   0.782  0.00  0.00    +0.000 F 
ATOM     16  F   UNL     1      -2.304  -8.069   2.271  0.00  0.00    +0.000 F 
ATOM     17  F   UNL     1      -3.019  -7.312   0.365  0.00  0.00    +0.000 F 
ENDBRANCH  12  14
ENDBRANCH   6   8
BRANCH   1  18
ATOM     18  C   UNL     1       2.317  -2.595  -0.026  0.00  0.00    +0.000 C 
BRANCH  18  19
ATOM     19  N   UNL     1       2.067  -1.957   1.234  0.00  0.00    +0.000 N 
ATOM     20  H   UNL     1       2.244  -2.455   2.100  0.00  0.00    +0.000 HD
BRANCH  19  27
ATOM     21  C   UNL     1       1.601   0.078  -1.049  0.00  0.00    +0.000 C 
ATOM     22  C   UNL     1       1.421   0.295   0.425  0.00  0.00    +0.000 A 
ATOM     23  C   UNL     1       0.999   1.580   0.814  0.00  0.00    +0.000 A 
ATOM     24  C   UNL     1       0.812   1.907   2.153  0.00  0.00    +0.000 A 
ATOM     25  C   UNL     1       1.068   0.905   3.068  0.00  0.00    +0.000 A 
ATOM     26  N   UNL     1       1.483  -0.347   2.732  0.00  0.00    +0.000 NA
ATOM     27  C   UNL     1       1.659  -0.663   1.425  0.00  0.00    +0.000 A 
BRANCH  24  28
ATOM     28  C   UNL     1       0.365   3.275   2.489  0.00  0.00    +0.000 C 
ATOM     29  N   UNL     1       0.164   3.618   3.796  0.00  0.00    +0.000 N 
ATOM     30  O   UNL     1       0.162   4.113   1.612  0.00  0.00    +0.000 OA
ATOM     31  H   UNL     1       0.293   3.015   4.593  0.00  0.00    +0.000 HD
ATOM     32  H   UNL     1      -0.144   4.565   3.970  0.00  0.00    +0.000 HD
ENDBRANCH  24  28
ENDBRANCH  19  27
ENDBRANCH  18  19
ENDBRANCH   1  18
TORSDOF 6
