REMARK  Name = 
REMARK  5 active torsions:
REMARK  status: ('A' for Active; 'I' for Inactive)
REMARK    1  A    between atoms: C_1  and  O_2
REMARK    2  A    between atoms: O_2  and  C_3
REMARK    3  A    between atoms: C_7  and  C_8
REMARK    4  A    between atoms: C_8  and  N_9
REMARK    5  A    between atoms: C_14  and  C_15
REMARK                            x       y       z     vdW  Elec       q    Type
REMARK                         _______ _______ _______ _____ _____    ______ ____
ROOT
ATOM      1  N   UNL     1       7.104  -0.128   3.808  0.00  0.00    +0.000 N 
ATOM      2  C   UNL     1       7.870  -1.256   3.628  0.00  0.00    +0.000 A 
ATOM      3  C   UNL     1       8.583  -1.480   4.782  0.00  0.00    +0.000 A 
ATOM      4  C   UNL     1       8.241  -0.457   5.705  0.00  0.00    +0.000 A 
ATOM      5  C   UNL     1       8.660  -0.153   7.006  0.00  0.00    +0.000 A 
ATOM      6  C   UNL     1       8.081   0.961   7.597  0.00  0.00    +0.000 A 
ATOM      7  N   UNL     1       7.137   1.751   7.011  0.00  0.00    +0.000 NA
ATOM      8  C   UNL     1       6.733   1.454   5.754  0.00  0.00    +0.000 A 
ATOM      9  C   UNL     1       7.291   0.365   5.088  0.00  0.00    +0.000 A 
ENDROOT
BRANCH   6  10
ATOM     10  C   UNL     1       8.526   1.365   8.972  0.00  0.00    +0.000 C 
ATOM     11  N   UNL     1       7.914   2.478   9.484  0.00  0.00    +0.000 N 
ATOM     12  O   UNL     1       9.384   0.758   9.600  0.00  0.00    +0.000 OA
ATOM     13  H   UNL     1       7.220   2.966   8.927  0.00  0.00    +0.000 HD
ATOM     14  H   UNL     1       8.183   2.821  10.393  0.00  0.00    +0.000 HD
ENDBRANCH   6  10
BRANCH   1  15
ATOM     15  C   UNL     1       6.322   0.500   2.745  0.00  0.00    +0.000 C 
BRANCH  15  20
ATOM     16  C   UNL     1       3.445  -1.817   1.772  0.00  0.00    +0.000 A 
ATOM     17  C   UNL     1       2.397  -1.274   2.512  0.00  0.00    +0.000 A 
ATOM     18  C   UNL     1       2.608  -0.137   3.296  0.00  0.00    +0.000 A 
ATOM     19  C   UNL     1       3.870   0.452   3.358  0.00  0.00    +0.000 A 
ATOM     20  C   UNL     1       4.941  -0.092   2.639  0.00  0.00    +0.000 A 
ATOM     21  C   UNL     1       4.709  -1.221   1.835  0.00  0.00    +0.000 A 
BRANCH  16  23
ATOM     22  C   UNL     1       2.129  -3.609   0.935  0.00  0.00    +0.000 C 
ATOM     23  O   UNL     1       3.371  -2.916   0.960  0.00  0.00    +0.000 OA
ENDBRANCH  16  23
ENDBRANCH  15  20
ENDBRANCH   1  15
TORSDOF 4
