REMARK  Name = 
REMARK  5 active torsions:
REMARK  status: ('A' for Active; 'I' for Inactive)
REMARK    1  A    between atoms: C_2  and  C_4
REMARK    2  A    between atoms: C_7  and  O_8
REMARK    3  A    between atoms: O_8  and  C_9
REMARK    4  A    between atoms: C_9  and  C_10
REMARK    5  A    between atoms: C_10  and  C_13
REMARK                            x       y       z     vdW  Elec       q    Type
REMARK                         _______ _______ _______ _____ _____    ______ ____
ROOT
ATOM      1  C   UNL     1       2.876   0.554  -1.367  0.00  0.00    +0.000 A 
ATOM      2  C   UNL     1       3.434  -0.660  -1.773  0.00  0.00    +0.000 A 
ATOM      3  C   UNL     1       4.247  -0.690  -2.908  0.00  0.00    +0.000 A 
ATOM      4  C   UNL     1       4.451   0.490  -3.606  0.00  0.00    +0.000 A 
ATOM      5  N   UNL     1       3.924   1.677  -3.238  0.00  0.00    +0.000 NA
ATOM      6  C   UNL     1       3.146   1.683  -2.129  0.00  0.00    +0.000 A 
ENDROOT
BRANCH   1   8
ATOM      7  N   UNL     1       2.154  -0.206   0.826  0.00  0.00    +0.000 N 
ATOM      8  C   UNL     1       1.998   0.698  -0.186  0.00  0.00    +0.000 C 
ATOM      9  O   UNL     1       1.191   1.611  -0.102  0.00  0.00    +0.000 OA
ATOM     10  H   UNL     1       1.621  -0.029   1.670  0.00  0.00    +0.000 HD
ATOM     11  H   UNL     1       2.966  -0.803   0.906  0.00  0.00    +0.000 HD
ENDBRANCH   1   8
BRANCH   4  12
ATOM     12  O   UNL     1       5.262   0.434  -4.721  0.00  0.00    +0.000 OA
BRANCH  12  13
ATOM     13  C   UNL     1       4.996   1.519  -5.632  0.00  0.00    +0.000 C 
BRANCH  13  14
ATOM     14  C   UNL     1       5.962   1.479  -6.825  0.00  0.00    +0.000 C 
ATOM     15  F   UNL     1       7.236   1.655  -6.360  0.00  0.00    +0.000 F 
ATOM     16  F   UNL     1       5.945   0.222  -7.363  0.00  0.00    +0.000 F 
BRANCH  14  17
ATOM     17  C   UNL     1       5.588   2.533  -7.854  0.00  0.00    +0.000 A 
ATOM     18  C   UNL     1       6.103   3.837  -7.770  0.00  0.00    +0.000 A 
ATOM     19  C   UNL     1       5.750   4.801  -8.718  0.00  0.00    +0.000 A 
ATOM     20  C   UNL     1       4.879   4.475  -9.756  0.00  0.00    +0.000 A 
ATOM     21  C   UNL     1       4.357   3.186  -9.848  0.00  0.00    +0.000 A 
ATOM     22  C   UNL     1       4.707   2.221  -8.902  0.00  0.00    +0.000 A 
ENDBRANCH  14  17
ENDBRANCH  13  14
ENDBRANCH  12  13
ENDBRANCH   4  12
TORSDOF 5
