REMARK  Name = 
REMARK  4 active torsions:
REMARK  status: ('A' for Active; 'I' for Inactive)
REMARK    1  A    between atoms: C_2  and  C_4
REMARK    2  A    between atoms: C_7  and  N_8
REMARK    3  A    between atoms: N_8  and  C_9
REMARK    4  A    between atoms: C_9  and  C_10
REMARK                            x       y       z     vdW  Elec       q    Type
REMARK                         _______ _______ _______ _____ _____    ______ ____
ROOT
ATOM      1  C   UNL     1       3.542   1.045  -0.585  0.00  0.00    +0.000 A 
ATOM      2  C   UNL     1       2.956   2.247  -0.989  0.00  0.00    +0.000 A 
ATOM      3  C   UNL     1       3.494   2.964  -2.061  0.00  0.00    +0.000 A 
ATOM      4  C   UNL     1       4.605   2.494  -2.774  0.00  0.00    +0.000 A 
ATOM      5  C   UNL     1       5.201   1.302  -2.333  0.00  0.00    +0.000 A 
ATOM      6  C   UNL     1       4.681   0.583  -1.248  0.00  0.00    +0.000 A 
ENDROOT
BRANCH   1   8
ATOM      7  N   UNL     1       1.656   0.387   0.799  0.00  0.00    +0.000 N 
ATOM      8  C   UNL     1       2.998   0.271   0.560  0.00  0.00    +0.000 C 
ATOM      9  O   UNL     1       3.702  -0.460   1.237  0.00  0.00    +0.000 OA
ATOM     10  H   UNL     1       1.271  -0.209   1.520  0.00  0.00    +0.000 HD
ATOM     11  H   UNL     1       1.017   0.776   0.120  0.00  0.00    +0.000 HD
ENDBRANCH   1   8
BRANCH   4  12
ATOM     12  N   UNL     1       5.217   3.206  -3.811  0.00  0.00    +0.000 N 
ATOM     13  H   UNL     1       5.531   2.598  -4.563  0.00  0.00    +0.000 HD
BRANCH  12  14
ATOM     14  C   UNL     1       4.655   4.481  -4.243  0.00  0.00    +0.000 C 
BRANCH  14  15
ATOM     15  C   UNL     1       5.422   5.087  -5.432  0.00  0.00    +0.000 C 
ATOM     16  C   UNL     1       6.905   5.346  -5.115  0.00  0.00    +0.000 C 
ATOM     17  C   UNL     1       7.615   6.059  -6.268  0.00  0.00    +0.000 C 
ATOM     18  C   UNL     1       6.911   7.358  -6.643  0.00  0.00    +0.000 C 
ATOM     19  C   UNL     1       5.447   7.110  -6.986  0.00  0.00    +0.000 C 
ATOM     20  C   UNL     1       4.723   6.395  -5.851  0.00  0.00    +0.000 C 
ENDBRANCH  14  15
ENDBRANCH  12  14
ENDBRANCH   4  12
TORSDOF 4
