REMARK  Name = 
REMARK  5 active torsions:
REMARK  status: ('A' for Active; 'I' for Inactive)
REMARK    1  A    between atoms: C_2  and  C_4
REMARK    2  A    between atoms: C_7  and  O_8
REMARK    3  A    between atoms: O_8  and  C_9
REMARK    4  A    between atoms: C_9  and  C_10
REMARK    5  A    between atoms: C_14  and  C_15
REMARK                            x       y       z     vdW  Elec       q    Type
REMARK                         _______ _______ _______ _____ _____    ______ ____
ROOT
ATOM      1  C   UNL     1       4.921  -3.610  -4.707  0.00  0.00    +0.000 C 
ENDROOT
BRANCH   1   2
ATOM      2  C   UNL     1       5.837  -4.680  -5.259  0.00  0.00    +0.000 A 
ATOM      3  C   UNL     1       7.037  -4.319  -5.882  0.00  0.00    +0.000 A 
ATOM      4  C   UNL     1       7.903  -5.299  -6.358  0.00  0.00    +0.000 A 
ATOM      5  C   UNL     1       7.587  -6.651  -6.199  0.00  0.00    +0.000 A 
ATOM      6  C   UNL     1       6.411  -7.054  -5.542  0.00  0.00    +0.000 A 
ATOM      7  C   UNL     1       5.549  -6.043  -5.080  0.00  0.00    +0.000 A 
BRANCH   6   8
ATOM      8  C   UNL     1       6.100  -8.479  -5.316  0.00  0.00    +0.000 A 
ATOM      9  C   UNL     1       7.095  -9.410  -4.992  0.00  0.00    +0.000 A 
ATOM     10  N   UNL     1       6.884 -10.729  -4.754  0.00  0.00    +0.000 NA
ATOM     11  C   UNL     1       5.604 -11.156  -4.829  0.00  0.00    +0.000 A 
ATOM     12  C   UNL     1       4.537 -10.326  -5.134  0.00  0.00    +0.000 A 
ATOM     13 CL   UNL     1       2.935 -10.939  -5.196  0.00  0.00    +0.000 Cl
ATOM     14  C   UNL     1       4.791  -8.980  -5.384  0.00  0.00    +0.000 A 
ENDBRANCH   6   8
ENDBRANCH   1   2
BRANCH   1  15
ATOM     15  O   UNL     1       3.555  -4.017  -4.835  0.00  0.00    +0.000 OA
BRANCH  15  19
ATOM     16  C   UNL     1       0.901  -1.329  -3.201  0.00  0.00    +0.000 A 
ATOM     17  C   UNL     1       0.426  -2.518  -3.760  0.00  0.00    +0.000 A 
ATOM     18  C   UNL     1       1.335  -3.417  -4.315  0.00  0.00    +0.000 A 
ATOM     19  C   UNL     1       2.684  -3.097  -4.288  0.00  0.00    +0.000 A 
ATOM     20  N   UNL     1       3.170  -1.952  -3.766  0.00  0.00    +0.000 NA
ATOM     21  C   UNL     1       2.268  -1.088  -3.243  0.00  0.00    +0.000 A 
BRANCH  16  23
ATOM     22  N   UNL     1      -1.144  -0.743  -2.033  0.00  0.00    +0.000 N 
ATOM     23  C   UNL     1       0.029  -0.312  -2.583  0.00  0.00    +0.000 C 
ATOM     24  O   UNL     1       0.363   0.864  -2.526  0.00  0.00    +0.000 OA
ATOM     25  H   UNL     1      -1.669  -0.053  -1.508  0.00  0.00    +0.000 HD
ATOM     26  H   UNL     1      -1.327  -1.716  -1.833  0.00  0.00    +0.000 HD
ENDBRANCH  16  23
ENDBRANCH  15  19
ENDBRANCH   1  15
TORSDOF 5
