REMARK  Name = 
REMARK  6 active torsions:
REMARK  status: ('A' for Active; 'I' for Inactive)
REMARK    1  A    between atoms: C_2  and  C_3
REMARK    2  A    between atoms: C_6  and  O_7
REMARK    3  A    between atoms: O_7  and  C_8
REMARK    4  A    between atoms: C_8  and  C_9
REMARK    5  A    between atoms: C_9  and  C_10
REMARK    6  A    between atoms: C_12  and  C_13
REMARK                            x       y       z     vdW  Elec       q    Type
REMARK                         _______ _______ _______ _____ _____    ______ ____
ROOT
ATOM      1  C   UNL     1      -5.786   1.086  -0.247  0.00  0.00    +0.000 C 
ENDROOT
BRANCH   1   2
ATOM      2  C   UNL     1      -6.534   2.396  -0.270  0.00  0.00    +0.000 A 
ATOM      3  C   UNL     1      -6.943   3.003   0.916  0.00  0.00    +0.000 A 
ATOM      4  C   UNL     1      -7.630   4.223   0.862  0.00  0.00    +0.000 A 
ATOM      5  C   UNL     1      -7.873   4.798  -0.388  0.00  0.00    +0.000 A 
ATOM      6  C   UNL     1      -7.421   4.136  -1.515  0.00  0.00    +0.000 A 
ATOM      7  N   UNL     1      -6.760   2.959  -1.480  0.00  0.00    +0.000 NA
BRANCH   4   8
ATOM      8  C   UNL     1      -8.105   4.910   2.115  0.00  0.00    +0.000 C 
ATOM      9  F   UNL     1      -7.798   4.233   3.256  0.00  0.00    +0.000 F 
ATOM     10  F   UNL     1      -7.571   6.153   2.263  0.00  0.00    +0.000 F 
ATOM     11  F   UNL     1      -9.456   5.079   2.134  0.00  0.00    +0.000 F 
ENDBRANCH   4   8
ENDBRANCH   1   2
BRANCH   1  12
ATOM     12  C   UNL     1      -4.281   1.313  -0.157  0.00  0.00    +0.000 C 
BRANCH  12  13
ATOM     13  O   UNL     1      -3.595   0.050  -0.115  0.00  0.00    +0.000 OA
BRANCH  13  17
ATOM     14  C   UNL     1       0.493   0.501   0.204  0.00  0.00    +0.000 A 
ATOM     15  C   UNL     1      -0.055  -0.780   0.142  0.00  0.00    +0.000 A 
ATOM     16  C   UNL     1      -1.440  -0.930   0.028  0.00  0.00    +0.000 A 
ATOM     17  C   UNL     1      -2.226   0.213  -0.016  0.00  0.00    +0.000 A 
ATOM     18  N   UNL     1      -1.715   1.463   0.043  0.00  0.00    +0.000 NA
ATOM     19  C   UNL     1      -0.372   1.581   0.148  0.00  0.00    +0.000 A 
BRANCH  14  21
ATOM     20  N   UNL     1       3.037   0.910   0.437  0.00  0.00    +0.000 NA
ATOM     21  C   UNL     1       1.900   0.718   0.331  0.00  0.00    +0.000 C 
ENDBRANCH  14  21
ENDBRANCH  13  17
ENDBRANCH  12  13
ENDBRANCH   1  12
TORSDOF 6
