REMARK  Name = 
REMARK  9 active torsions:
REMARK  status: ('A' for Active; 'I' for Inactive)
REMARK    1  A    between atoms: C_1  and  C_2
REMARK    2  A    between atoms: C_2  and  O_3
REMARK    3  A    between atoms: O_3  and  C_4
REMARK    4  A    between atoms: C_9  and  C_10
REMARK    5  A    between atoms: N_12  and  C_13
REMARK    6  A    between atoms: C_13  and  C_14
REMARK    7  A    between atoms: C_17  and  C_18
REMARK    8  A    between atoms: C_18  and  N_19
REMARK    9  A    between atoms: C_20  and  C_22
REMARK                            x       y       z     vdW  Elec       q    Type
REMARK                         _______ _______ _______ _____ _____    ______ ____
ROOT
ATOM      1  C   UNL     1       0.594   2.333  -3.600  0.00  0.00    +0.000 A 
ATOM      2  C   UNL     1      -0.207   1.221  -3.308  0.00  0.00    +0.000 A 
ATOM      3  C   UNL     1      -1.472   1.384  -2.730  0.00  0.00    +0.000 A 
ATOM      4  C   UNL     1      -1.970   2.664  -2.454  0.00  0.00    +0.000 A 
ATOM      5  C   UNL     1      -1.167   3.775  -2.745  0.00  0.00    +0.000 A 
ATOM      6  C   UNL     1       0.097   3.612  -3.321  0.00  0.00    +0.000 A 
ENDROOT
BRANCH   1   7
ATOM      7  C   UNL     1       1.953   2.161  -4.232  0.00  0.00    +0.000 C 
BRANCH   7  10
ATOM      8  C   UNL     1       2.979   2.006  -6.466  0.00  0.00    +0.000 C 
ATOM      9  O   UNL     1       4.106   1.901  -5.992  0.00  0.00    +0.000 OA
ATOM     10  N   UNL     1       1.868   2.169  -5.672  0.00  0.00    +0.000 N 
ATOM     11  H   UNL     1       0.959   2.254  -6.113  0.00  0.00    +0.000 HD
BRANCH   8  17
ATOM     12  C   UNL     1       1.520   2.063  -8.603  0.00  0.00    +0.000 A 
ATOM     13  C   UNL     1       1.455   1.887  -9.996  0.00  0.00    +0.000 A 
ATOM     14  C   UNL     1       2.602   1.616 -10.744  0.00  0.00    +0.000 A 
ATOM     15  C   UNL     1       3.835   1.523 -10.113  0.00  0.00    +0.000 A 
ATOM     16  C   UNL     1       3.916   1.676  -8.730  0.00  0.00    +0.000 A 
ATOM     17  C   UNL     1       2.767   1.929  -7.954  0.00  0.00    +0.000 A 
BRANCH  12  18
ATOM     18  O   UNL     1       0.418   2.357  -7.837  0.00  0.00    +0.000 OA
BRANCH  18  20
ATOM     19  C   UNL     1      -1.848   3.035  -7.492  0.00  0.00    +0.000 C 
ATOM     20  C   UNL     1      -0.812   2.613  -8.517  0.00  0.00    +0.000 C 
ENDBRANCH  18  20
ENDBRANCH  12  18
ENDBRANCH   8  17
ENDBRANCH   7  10
ENDBRANCH   1   7
BRANCH   4  21
ATOM     21  C   UNL     1      -3.325   2.854  -1.820  0.00  0.00    +0.000 C 
BRANCH  21  22
ATOM     22  N   UNL     1      -3.232   2.869  -0.381  0.00  0.00    +0.000 N 
ATOM     23  C   UNL     1      -4.349   2.963   0.408  0.00  0.00    +0.000 C 
ATOM     24  O   UNL     1      -5.482   2.991  -0.067  0.00  0.00    +0.000 OA
ATOM     25  H   UNL     1      -2.324   3.089   0.016  0.00  0.00    +0.000 HD
BRANCH  23  26
ATOM     26  C   UNL     1      -4.127   2.965   1.861  0.00  0.00    +0.000 A 
ATOM     27  C   UNL     1      -5.140   2.550   2.716  0.00  0.00    +0.000 A 
ATOM     28  S   UNL     1      -4.694   2.563   4.362  0.00  0.00    +0.000 S 
ATOM     29  C   UNL     1      -3.150   3.175   3.995  0.00  0.00    +0.000 A 
ATOM     30  N   UNL     1      -2.251   3.444   4.980  0.00  0.00    +0.000 NA
ATOM     31  C   UNL     1      -1.129   3.932   4.562  0.00  0.00    +0.000 A 
ATOM     32  N   UNL     1      -0.825   4.172   3.246  0.00  0.00    +0.000 N 
ATOM     33  C   UNL     1      -1.692   3.889   2.217  0.00  0.00    +0.000 A 
ATOM     34  O   UNL     1      -1.371   4.077   1.047  0.00  0.00    +0.000 OA
ATOM     35  C   UNL     1      -2.970   3.348   2.634  0.00  0.00    +0.000 A 
ATOM     36  H   UNL     1       0.073   4.547   2.983  0.00  0.00    +0.000 HD
ENDBRANCH  23  26
ENDBRANCH  21  22
ENDBRANCH   4  21
TORSDOF 8
