REMARK  Name = 
REMARK  7 active torsions:
REMARK  status: ('A' for Active; 'I' for Inactive)
REMARK    1  A    between atoms: C_2  and  C_3
REMARK    2  A    between atoms: C_6  and  O_7
REMARK    3  A    between atoms: O_7  and  C_8
REMARK    4  A    between atoms: C_8  and  C_9
REMARK    5  A    between atoms: C_12  and  C_13
REMARK    6  A    between atoms: C_13  and  N_14
REMARK    7  A    between atoms: C_15  and  C_17
REMARK                            x       y       z     vdW  Elec       q    Type
REMARK                         _______ _______ _______ _____ _____    ______ ____
ROOT
ATOM      1  C   UNL     1       5.882  -0.963   0.373  0.00  0.00    +0.000 A 
ATOM      2  C   UNL     1       6.349   0.358   0.403  0.00  0.00    +0.000 A 
ATOM      3  C   UNL     1       7.714   0.634   0.568  0.00  0.00    +0.000 A 
ATOM      4  C   UNL     1       8.645  -0.408   0.685  0.00  0.00    +0.000 A 
ATOM      5  C   UNL     1       8.174  -1.728   0.669  0.00  0.00    +0.000 A 
ATOM      6  C   UNL     1       6.812  -2.003   0.502  0.00  0.00    +0.000 A 
ENDROOT
BRANCH   1   7
ATOM      7  C   UNL     1       4.410  -1.265   0.194  0.00  0.00    +0.000 C 
BRANCH   7   8
ATOM      8  O   UNL     1       4.113  -1.379  -1.198  0.00  0.00    +0.000 OA
BRANCH   8  12
ATOM      9  C   UNL     1       0.235  -2.203  -2.525  0.00  0.00    +0.000 A 
ATOM     10  C   UNL     1       0.462  -2.108  -1.148  0.00  0.00    +0.000 A 
ATOM     11  C   UNL     1       1.749  -1.835  -0.658  0.00  0.00    +0.000 A 
ATOM     12  C   UNL     1       2.815  -1.655  -1.541  0.00  0.00    +0.000 A 
ATOM     13  C   UNL     1       2.582  -1.755  -2.916  0.00  0.00    +0.000 A 
ATOM     14  C   UNL     1       1.301  -2.027  -3.410  0.00  0.00    +0.000 A 
BRANCH   9  16
ATOM     15  N   UNL     1      -2.153  -2.695  -3.419  0.00  0.00    +0.000 NA
ATOM     16  C   UNL     1      -1.084  -2.476  -3.022  0.00  0.00    +0.000 C 
ENDBRANCH   9  16
ENDBRANCH   8  12
ENDBRANCH   7   8
ENDBRANCH   1   7
BRANCH   4  17
ATOM     17  C   UNL     1      10.121  -0.133   0.845  0.00  0.00    +0.000 C 
BRANCH  17  18
ATOM     18  N   UNL     1      10.493  -0.025   2.233  0.00  0.00    +0.000 N 
ATOM     19  C   UNL     1      11.779   0.261   2.616  0.00  0.00    +0.000 C 
ATOM     20  O   UNL     1      12.677   0.469   1.804  0.00  0.00    +0.000 OA
ATOM     21  H   UNL     1       9.872  -0.468   2.902  0.00  0.00    +0.000 HD
BRANCH  19  22
ATOM     22  C   UNL     1      12.012   0.374   4.062  0.00  0.00    +0.000 A 
ATOM     23  C   UNL     1      13.046   1.166   4.544  0.00  0.00    +0.000 A 
ATOM     24  S   UNL     1      13.129   1.219   6.249  0.00  0.00    +0.000 S 
ATOM     25  C   UNL     1      11.822   0.142   6.399  0.00  0.00    +0.000 A 
ATOM     26  N   UNL     1      11.383  -0.266   7.623  0.00  0.00    +0.000 NA
ATOM     27  C   UNL     1      10.404  -1.106   7.585  0.00  0.00    +0.000 A 
ATOM     28  N   UNL     1       9.816  -1.570   6.438  0.00  0.00    +0.000 N 
ATOM     29  C   UNL     1      10.198  -1.162   5.183  0.00  0.00    +0.000 A 
ATOM     30  O   UNL     1       9.613  -1.556   4.182  0.00  0.00    +0.000 OA
ATOM     31  C   UNL     1      11.310  -0.233   5.170  0.00  0.00    +0.000 A 
ATOM     32  H   UNL     1       9.040  -2.218   6.478  0.00  0.00    +0.000 HD
ENDBRANCH  19  22
ENDBRANCH  17  18
ENDBRANCH   4  17
TORSDOF 7
