REMARK  Name = 
REMARK  7 active torsions:
REMARK  status: ('A' for Active; 'I' for Inactive)
REMARK    1  A    between atoms: C_2  and  C_3
REMARK    2  A    between atoms: C_2  and  C_17
REMARK    3  A    between atoms: C_3  and  N_4
REMARK    4  A    between atoms: C_5  and  C_7
REMARK    5  A    between atoms: C_20  and  C_21
REMARK    6  A    between atoms: C_21  and  N_22
REMARK    7  A    between atoms: C_23  and  C_25
REMARK                            x       y       z     vdW  Elec       q    Type
REMARK                         _______ _______ _______ _____ _____    ______ ____
ROOT
ATOM      1  O   UNL     1       1.184   0.036   0.541  0.00  0.00    +0.000 OA
ATOM      2  C   UNL     1       2.254  -0.105  -0.057  0.00  0.00    +0.000 C 
ENDROOT
BRANCH   2   3
ATOM      3  C   UNL     1       2.982   1.103  -0.554  0.00  0.00    +0.000 A 
ATOM      4  C   UNL     1       2.494   2.367  -0.193  0.00  0.00    +0.000 A 
ATOM      5  C   UNL     1       3.114   3.531  -0.659  0.00  0.00    +0.000 A 
ATOM      6  C   UNL     1       4.229   3.452  -1.503  0.00  0.00    +0.000 A 
ATOM      7  C   UNL     1       4.727   2.188  -1.846  0.00  0.00    +0.000 A 
ATOM      8  C   UNL     1       4.103   1.023  -1.382  0.00  0.00    +0.000 A 
BRANCH   6   9
ATOM      9  C   UNL     1       4.878   4.695  -2.054  0.00  0.00    +0.000 C 
BRANCH   9  10
ATOM     10  N   UNL     1       5.887   5.224  -1.174  0.00  0.00    +0.000 N 
ATOM     11  C   UNL     1       6.627   6.332  -1.525  0.00  0.00    +0.000 C 
ATOM     12  O   UNL     1       6.459   6.945  -2.576  0.00  0.00    +0.000 OA
ATOM     13  H   UNL     1       6.260   4.671  -0.406  0.00  0.00    +0.000 HD
BRANCH  11  14
ATOM     14  C   UNL     1       7.652   6.774  -0.472  0.00  0.00    +0.000 C 
ATOM     15  C   UNL     1       9.076   6.774  -0.991  0.00  0.00    +0.000 C 
ATOM     16  C   UNL     1       9.893   6.768   0.288  0.00  0.00    +0.000 C 
ATOM     17  C   UNL     1       9.029   6.023   1.297  0.00  0.00    +0.000 C 
ATOM     18  N   UNL     1       7.712   5.836   0.679  0.00  0.00    +0.000 NA
ATOM     19  H   UNL     1       6.976   6.079   1.343  0.00  0.00    +0.000 HD
ENDBRANCH  11  14
ENDBRANCH   9  10
ENDBRANCH   6   9
ENDBRANCH   2   3
BRANCH   2  20
ATOM     20  C   UNL     1       2.793  -1.495  -0.363  0.00  0.00    +0.000 C 
BRANCH  20  21
ATOM     21  N   UNL     1       2.167  -2.001  -1.566  0.00  0.00    +0.000 N 
ATOM     22  C   UNL     1       2.890  -2.375  -2.669  0.00  0.00    +0.000 C 
ATOM     23  O   UNL     1       4.118  -2.341  -2.682  0.00  0.00    +0.000 OA
ATOM     24  H   UNL     1       1.157  -1.895  -1.633  0.00  0.00    +0.000 HD
BRANCH  22  25
ATOM     25  C   UNL     1       2.130  -2.872  -3.820  0.00  0.00    +0.000 A 
ATOM     26  C   UNL     1       2.730  -3.751  -4.712  0.00  0.00    +0.000 A 
ATOM     27  S   UNL     1       1.704  -4.243  -5.982  0.00  0.00    +0.000 S 
ATOM     28  C   UNL     1       0.436  -3.261  -5.410  0.00  0.00    +0.000 A 
ATOM     29  N   UNL     1      -0.750  -3.195  -6.072  0.00  0.00    +0.000 NA
ATOM     30  C   UNL     1      -1.607  -2.381  -5.549  0.00  0.00    +0.000 A 
ATOM     31  N   UNL     1      -1.388  -1.639  -4.416  0.00  0.00    +0.000 N 
ATOM     32  C   UNL     1      -0.223  -1.709  -3.690  0.00  0.00    +0.000 A 
ATOM     33  O   UNL     1      -0.080  -1.091  -2.642  0.00  0.00    +0.000 OA
ATOM     34  C   UNL     1       0.784  -2.588  -4.253  0.00  0.00    +0.000 A 
ATOM     35  H   UNL     1      -2.107  -1.034  -4.047  0.00  0.00    +0.000 HD
ENDBRANCH  22  25
ENDBRANCH  20  21
ENDBRANCH   2  20
TORSDOF 7
