REMARK  Name = 
REMARK  4 active torsions:
REMARK  status: ('A' for Active; 'I' for Inactive)
REMARK    1  A    between atoms: N_1  and  C_2
REMARK    2  A    between atoms: C_2  and  C_3
REMARK    3  A    between atoms: C_9  and  C_10
REMARK    4  A    between atoms: C_10  and  C_11
REMARK                            x       y       z     vdW  Elec       q    Type
REMARK                         _______ _______ _______ _____ _____    ______ ____
ROOT
ATOM      1  C   UNL     1       2.881  -0.912  -1.235  0.00  0.00    +0.000 A 
ATOM      2  C   UNL     1       3.414  -0.266  -2.369  0.00  0.00    +0.000 A 
ATOM      3  N   UNL     1       3.786  -0.872  -3.527  0.00  0.00    +0.000 NA
ATOM      4  C   UNL     1       3.565  -2.235  -3.519  0.00  0.00    +0.000 A 
ATOM      5  N   UNL     1       3.816  -3.030  -4.552  0.00  0.00    +0.000 NA
ATOM      6  C   UNL     1       3.440  -4.255  -4.164  0.00  0.00    +0.000 C 
ATOM      7  C   UNL     1       2.970  -4.275  -2.851  0.00  0.00    +0.000 C 
ATOM      8  C   UNL     1       3.042  -2.943  -2.446  0.00  0.00    +0.000 A 
ATOM      9  C   UNL     1       2.694  -2.307  -1.256  0.00  0.00    +0.000 A 
ENDROOT
BRANCH   1  10
ATOM     10  C   UNL     1       2.453  -0.113  -0.036  0.00  0.00    +0.000 C 
BRANCH  10  11
ATOM     11  N   UNL     1       1.056   0.280  -0.153  0.00  0.00    +0.000 NA
ATOM     12  H   UNL     1       0.767   0.761   0.698  0.00  0.00    +0.000 HD
ATOM     13  H   UNL     1       0.471  -0.550  -0.223  0.00  0.00    +0.000 HD
ENDBRANCH  10  11
ENDBRANCH   1  10
BRANCH   7  14
ATOM     14  C   UNL     1       2.500  -5.459  -2.074  0.00  0.00    +0.000 C 
BRANCH  14  15
ATOM     15  C   UNL     1       3.612  -6.099  -1.276  0.00  0.00    +0.000 A 
ATOM     16  C   UNL     1       4.691  -6.686  -1.910  0.00  0.00    +0.000 A 
ATOM     17  C   UNL     1       5.687  -7.154  -1.089  0.00  0.00    +0.000 A 
ATOM     18  N   UNL     1       5.634  -7.091   0.252  0.00  0.00    +0.000 NA
ATOM     19  C   UNL     1       4.550  -6.517   0.778  0.00  0.00    +0.000 A 
ATOM     20  N   UNL     1       4.473  -6.451   2.152  0.00  0.00    +0.000 N 
ATOM     21  N   UNL     1       3.522  -6.029   0.071  0.00  0.00    +0.000 NA
ATOM     22  H   UNL     1       5.077  -7.153   2.557  0.00  0.00    +0.000 HD
ATOM     23  H   UNL     1       3.507  -6.443   2.446  0.00  0.00    +0.000 HD
ENDBRANCH  14  15
ENDBRANCH   7  14
TORSDOF 4
