REMARK  Name = 
REMARK  8 active torsions:
REMARK  status: ('A' for Active; 'I' for Inactive)
REMARK    1  A    between atoms: C_1  and  C_2
REMARK    2  A    between atoms: C_4  and  C_5
REMARK    3  A    between atoms: C_5  and  N_6
REMARK    4  A    between atoms: N_6  and  C_7
REMARK    5  A    between atoms: C_7  and  C_8
REMARK    6  A    between atoms: C_16  and  C_17
REMARK    7  A    between atoms: C_17  and  N_18
REMARK    8  A    between atoms: C_19  and  C_21
REMARK                            x       y       z     vdW  Elec       q    Type
REMARK                         _______ _______ _______ _____ _____    ______ ____
ROOT
ATOM      1  C   UNL     1       2.560   0.223   0.058  0.00  0.00    +0.000 C 
ATOM      2  C   UNL     1       1.060   0.101   0.057  0.00  0.00    +0.000 A 
ATOM      3  C   UNL     1       0.286   1.277   0.052  0.00  0.00    +0.000 A 
ATOM      4  C   UNL     1      -1.114   1.232   0.043  0.00  0.00    +0.000 A 
ATOM      5  C   UNL     1      -1.742  -0.019   0.040  0.00  0.00    +0.000 A 
ATOM      6  C   UNL     1      -0.988  -1.195   0.052  0.00  0.00    +0.000 A 
ATOM      7  C   UNL     1       0.418  -1.154   0.045  0.00  0.00    +0.000 A 
ENDROOT
BRANCH   4   8
ATOM      8  C   UNL     1      -1.930   2.504   0.035  0.00  0.00    +0.000 C 
BRANCH   8   9
ATOM      9  N   UNL     1      -2.792   2.568   1.213  0.00  0.00    +0.000 NA
ATOM     10  H   UNL     1      -2.207   2.496   2.046  0.00  0.00    +0.000 HD
BRANCH   9  11
ATOM     11  C   UNL     1      -3.567   3.803   1.261  0.00  0.00    +0.000 C 
BRANCH  11  12
ATOM     12  C   UNL     1      -4.469   3.811   2.457  0.00  0.00    +0.000 A 
ATOM     13  C   UNL     1      -4.415   4.787   3.431  0.00  0.00    +0.000 A 
ATOM     14  N   UNL     1      -5.211   4.809   4.520  0.00  0.00    +0.000 NA
ATOM     15  C   UNL     1      -6.098   3.806   4.612  0.00  0.00    +0.000 A 
ATOM     16  N   UNL     1      -6.255   2.808   3.731  0.00  0.00    +0.000 NA
ATOM     17  C   UNL     1      -5.427   2.837   2.667  0.00  0.00    +0.000 A 
ENDBRANCH  11  12
ENDBRANCH   9  11
ENDBRANCH   8   9
ENDBRANCH   4   8
BRANCH   7  18
ATOM     18  C   UNL     1       1.187  -2.457   0.044  0.00  0.00    +0.000 C 
BRANCH  18  19
ATOM     19  N   UNL     1       1.500  -2.903   1.379  0.00  0.00    +0.000 N 
ATOM     20  C   UNL     1       2.100  -4.119   1.603  0.00  0.00    +0.000 C 
ATOM     21  O   UNL     1       2.392  -4.874   0.679  0.00  0.00    +0.000 OA
ATOM     22  H   UNL     1       1.506  -2.197   2.108  0.00  0.00    +0.000 HD
BRANCH  20  23
ATOM     23  C   UNL     1       2.292  -4.517   3.006  0.00  0.00    +0.000 A 
ATOM     24  C   UNL     1       2.790  -5.776   3.320  0.00  0.00    +0.000 A 
ATOM     25  S   UNL     1       2.644  -6.167   4.978  0.00  0.00    +0.000 S 
ATOM     26  C   UNL     1       1.974  -4.643   5.330  0.00  0.00    +0.000 A 
ATOM     27  N   UNL     1       1.508  -4.338   6.571  0.00  0.00    +0.000 NA
ATOM     28  C   UNL     1       1.071  -3.128   6.692  0.00  0.00    +0.000 A 
ATOM     29  N   UNL     1       1.106  -2.179   5.701  0.00  0.00    +0.000 N 
ATOM     30  C   UNL     1       1.615  -2.433   4.452  0.00  0.00    +0.000 A 
ATOM     31  O   UNL     1       1.767  -1.538   3.626  0.00  0.00    +0.000 OA
ATOM     32  C   UNL     1       1.985  -3.813   4.224  0.00  0.00    +0.000 A 
ATOM     33  H   UNL     1       0.834  -1.227   5.886  0.00  0.00    +0.000 HD
ENDBRANCH  20  23
ENDBRANCH  18  19
ENDBRANCH   7  18
TORSDOF 7
