REMARK  Name = 
REMARK  5 active torsions:
REMARK  status: ('A' for Active; 'I' for Inactive)
REMARK    1  A    between atoms: N_1  and  C_2
REMARK    2  A    between atoms: C_2  and  C_3
REMARK    3  A    between atoms: C_6  and  N_7
REMARK    4  A    between atoms: N_7  and  C_8
REMARK    5  A    between atoms: C_8  and  C_9
REMARK                            x       y       z     vdW  Elec       q    Type
REMARK                         _______ _______ _______ _____ _____    ______ ____
ROOT
ATOM      1  C   UNL     1       2.878  -1.016   0.874  0.00  0.00    +0.000 A 
ATOM      2  C   UNL     1       3.241  -0.621   2.168  0.00  0.00    +0.000 A 
ATOM      3  C   UNL     1       3.440  -1.570   3.176  0.00  0.00    +0.000 A 
ATOM      4  C   UNL     1       3.262  -2.931   2.919  0.00  0.00    +0.000 A 
ATOM      5  C   UNL     1       2.991  -3.325   1.604  0.00  0.00    +0.000 A 
ATOM      6  C   UNL     1       2.781  -2.383   0.595  0.00  0.00    +0.000 A 
ENDROOT
BRANCH   4   7
ATOM      7  N   UNL     1       3.381  -3.931   3.883  0.00  0.00    +0.000 N 
ATOM      8  H   UNL     1       4.254  -4.444   3.787  0.00  0.00    +0.000 HD
BRANCH   7   9
ATOM      9  C   UNL     1       3.056  -3.619   5.267  0.00  0.00    +0.000 C 
BRANCH   9  10
ATOM     10  C   UNL     1       2.546  -4.876   5.934  0.00  0.00    +0.000 A 
ATOM     11  C   UNL     1       1.430  -5.548   5.402  0.00  0.00    +0.000 A 
ATOM     12  C   UNL     1       0.941  -6.709   6.001  0.00  0.00    +0.000 A 
ATOM     13  C   UNL     1       1.557  -7.209   7.146  0.00  0.00    +0.000 A 
ATOM     14  C   UNL     1       2.656  -6.542   7.687  0.00  0.00    +0.000 A 
ATOM     15 CL   UNL     1       3.412  -7.160   9.105  0.00  0.00    +0.000 Cl
ATOM     16  C   UNL     1       3.151  -5.381   7.092  0.00  0.00    +0.000 A 
ENDBRANCH   9  10
ENDBRANCH   7   9
ENDBRANCH   4   7
BRANCH   1  17
ATOM     17  C   UNL     1       2.542   0.008  -0.179  0.00  0.00    +0.000 C 
BRANCH  17  18
ATOM     18  N   UNL     1       3.648   0.922  -0.431  0.00  0.00    +0.000 NA
ATOM     19  H   UNL     1       3.411   1.516  -1.223  0.00  0.00    +0.000 HD
ATOM     20  H   UNL     1       4.460   0.379  -0.713  0.00  0.00    +0.000 HD
ENDBRANCH  17  18
ENDBRANCH   1  17
TORSDOF 5
