REMARK  Name = 
REMARK  8 active torsions:
REMARK  status: ('A' for Active; 'I' for Inactive)
REMARK    1  A    between atoms: C_1  and  C_2
REMARK    2  A    between atoms: C_2  and  C_3
REMARK    3  A    between atoms: C_2  and  C_15
REMARK    4  A    between atoms: C_3  and  N_4
REMARK    5  A    between atoms: N_4  and  C_5
REMARK    6  A    between atoms: C_8  and  C_9
REMARK    7  A    between atoms: C_19  and  O_20
REMARK    8  A    between atoms: O_20  and  C_21
REMARK                            x       y       z     vdW  Elec       q    Type
REMARK                         _______ _______ _______ _____ _____    ______ ____
ROOT
ATOM      1  C   UNL     1       2.908   1.203  -0.810  0.00  0.00    +0.000 C 
ENDROOT
BRANCH   1   3
ATOM      2  C   UNL     1       0.825  -0.044   0.029  0.00  0.00    +0.000 C 
ATOM      3  C   UNL     1       2.353   0.021   0.012  0.00  0.00    +0.000 C 
BRANCH   3   4
ATOM      4  C   UNL     1       2.901   0.130   1.434  0.00  0.00    +0.000 A 
ATOM      5  C   UNL     1       3.739  -0.860   1.960  0.00  0.00    +0.000 A 
ATOM      6  C   UNL     1       4.290  -0.713   3.237  0.00  0.00    +0.000 A 
ATOM      7  C   UNL     1       4.017   0.423   4.006  0.00  0.00    +0.000 A 
ATOM      8  C   UNL     1       3.179   1.408   3.498  0.00  0.00    +0.000 A 
ATOM      9  C   UNL     1       2.627   1.259   2.226  0.00  0.00    +0.000 A 
BRANCH   8  10
ATOM     10  O   UNL     1       2.864   2.585   4.127  0.00  0.00    +0.000 OA
BRANCH  10  11
ATOM     11  C   UNL     1       2.947   2.652   5.567  0.00  0.00    +0.000 C 
ATOM     12  C   UNL     1       1.929   1.849   6.386  0.00  0.00    +0.000 C 
ATOM     13  O   UNL     1       1.443   3.037   7.052  0.00  0.00    +0.000 OA
ATOM     14  C   UNL     1       2.260   3.871   6.199  0.00  0.00    +0.000 C 
ENDBRANCH  10  11
ENDBRANCH   8  10
ENDBRANCH   3   4
ENDBRANCH   1   3
BRANCH   1  15
ATOM     15  N   UNL     1       2.523   1.192  -2.230  0.00  0.00    +0.000 N 
ATOM     16  H   UNL     1       1.516   1.104  -2.357  0.00  0.00    +0.000 HD
BRANCH  15  17
ATOM     17  C   UNL     1       3.015   2.289  -2.971  0.00  0.00    +0.000 A 
ATOM     18  C   UNL     1       2.292   2.774  -4.070  0.00  0.00    +0.000 A 
ATOM     19  C   UNL     1       2.770   3.854  -4.830  0.00  0.00    +0.000 A 
ATOM     20  C   UNL     1       4.001   4.451  -4.525  0.00  0.00    +0.000 A 
ATOM     21  C   UNL     1       4.744   3.930  -3.472  0.00  0.00    +0.000 A 
ATOM     22  F   UNL     1       5.939   4.440  -3.136  0.00  0.00    +0.000 F 
ATOM     23  C   UNL     1       4.272   2.857  -2.723  0.00  0.00    +0.000 A 
BRANCH  20  24
ATOM     24  C   UNL     1       4.474   5.602  -5.334  0.00  0.00    +0.000 C 
ATOM     25  N   UNL     1       5.680   6.163  -5.011  0.00  0.00    +0.000 N 
ATOM     26  O   UNL     1       3.807   6.051  -6.259  0.00  0.00    +0.000 OA
ATOM     27  H   UNL     1       6.266   5.819  -4.258  0.00  0.00    +0.000 HD
ATOM     28  H   UNL     1       6.005   6.942  -5.563  0.00  0.00    +0.000 HD
ENDBRANCH  20  24
ENDBRANCH  15  17
ENDBRANCH   1  15
TORSDOF 7
