REMARK  Name = 
REMARK  4 active torsions:
REMARK  status: ('A' for Active; 'I' for Inactive)
REMARK    1  A    between atoms: C_2  and  C_5
REMARK    2  A    between atoms: N_10  and  C_11
REMARK    3  A    between atoms: C_11  and  C_12
REMARK    4  A    between atoms: C_16  and  C_17
REMARK                            x       y       z     vdW  Elec       q    Type
REMARK                         _______ _______ _______ _____ _____    ______ ____
ROOT
ATOM      1  C   UNL     1       3.286  -3.820   4.508  0.00  0.00    +0.000 C 
ENDROOT
BRANCH   1   7
ATOM      2  C   UNL     1       0.791   0.002   3.550  0.00  0.00    +0.000 A 
ATOM      3  C   UNL     1       1.920   0.770   3.343  0.00  0.00    +0.000 A 
ATOM      4  C   UNL     1       3.114   0.095   3.349  0.00  0.00    +0.000 A 
ATOM      5  N   UNL     1       3.215  -1.232   3.538  0.00  0.00    +0.000 NA
ATOM      6  C   UNL     1       2.079  -1.916   3.720  0.00  0.00    +0.000 A 
ATOM      7  N   UNL     1       2.100  -3.291   3.872  0.00  0.00    +0.000 N 
ATOM      8  N   UNL     1       0.870  -1.343   3.747  0.00  0.00    +0.000 NA
ATOM      9  H   UNL     1       1.221  -3.570   4.291  0.00  0.00    +0.000 HD
BRANCH   2  11
ATOM     10  F   UNL     1      -0.524   2.008   3.327  0.00  0.00    +0.000 F 
ATOM     11  C   UNL     1      -0.578   0.660   3.554  0.00  0.00    +0.000 C 
ATOM     12  F   UNL     1      -1.234   0.521   4.741  0.00  0.00    +0.000 F 
ATOM     13  F   UNL     1      -1.413   0.167   2.597  0.00  0.00    +0.000 F 
ENDBRANCH   2  11
ENDBRANCH   1   7
BRANCH   1  14
ATOM     14  C   UNL     1       3.174  -5.326   4.628  0.00  0.00    +0.000 A 
ATOM     15  C   UNL     1       3.494  -6.137   3.531  0.00  0.00    +0.000 A 
ATOM     16  C   UNL     1       3.420  -7.523   3.633  0.00  0.00    +0.000 A 
ATOM     17  C   UNL     1       3.041  -8.113   4.839  0.00  0.00    +0.000 A 
ATOM     18  C   UNL     1       2.732  -7.337   5.973  0.00  0.00    +0.000 A 
ATOM     19  C   UNL     1       2.767  -5.935   5.830  0.00  0.00    +0.000 A 
BRANCH  18  20
ATOM     20  C   UNL     1       2.437  -7.971   7.272  0.00  0.00    +0.000 A 
ATOM     21  C   UNL     1       3.067  -9.147   7.691  0.00  0.00    +0.000 A 
ATOM     22  N   UNL     1       2.829  -9.751   8.883  0.00  0.00    +0.000 NA
ATOM     23  C   UNL     1       1.924  -9.127   9.664  0.00  0.00    +0.000 A 
ATOM     24  C   UNL     1       1.296  -7.957   9.274  0.00  0.00    +0.000 A 
ATOM     25  N   UNL     1       1.540  -7.351   8.083  0.00  0.00    +0.000 NA
ENDBRANCH  18  20
ENDBRANCH   1  14
TORSDOF 4
