REMARK  Name = 
REMARK  6 active torsions:
REMARK  status: ('A' for Active; 'I' for Inactive)
REMARK    1  A    between atoms: C_2  and  C_4
REMARK    2  A    between atoms: N_8  and  C_9
REMARK    3  A    between atoms: C_9  and  C_10
REMARK    4  A    between atoms: C_10  and  C_13
REMARK    5  A    between atoms: C_15  and  O_16
REMARK    6  A    between atoms: O_16  and  C_17
REMARK                            x       y       z     vdW  Elec       q    Type
REMARK                         _______ _______ _______ _____ _____    ______ ____
ROOT
ATOM      1  C   UNL     1       6.161  -5.418  -4.665  0.00  0.00    +0.000 C 
ATOM      2  F   UNL     1       7.429  -4.911  -4.546  0.00  0.00    +0.000 F 
ATOM      3  F   UNL     1       6.125  -6.445  -3.767  0.00  0.00    +0.000 F 
ENDROOT
BRANCH   1   4
ATOM      4  C   UNL     1       5.877  -5.851  -6.092  0.00  0.00    +0.000 A 
ATOM      5  C   UNL     1       6.541  -5.179  -7.139  0.00  0.00    +0.000 A 
ATOM      6  C   UNL     1       6.323  -5.512  -8.479  0.00  0.00    +0.000 A 
ATOM      7  C   UNL     1       5.420  -6.515  -8.800  0.00  0.00    +0.000 A 
ATOM      8  C   UNL     1       4.747  -7.190  -7.778  0.00  0.00    +0.000 A 
ATOM      9  C   UNL     1       4.969  -6.861  -6.434  0.00  0.00    +0.000 A 
ATOM     10 CL   UNL     1       4.053  -7.727  -5.255  0.00  0.00    +0.000 Cl
BRANCH   6  11
ATOM     11  O   UNL     1       7.020  -4.763  -9.390  0.00  0.00    +0.000 OA
BRANCH  11  12
ATOM     12  C   UNL     1       7.300  -5.331 -10.690  0.00  0.00    +0.000 C 
ATOM     13  C   UNL     1       8.262  -6.525 -10.767  0.00  0.00    +0.000 C 
ATOM     14  O   UNL     1       9.146  -5.824 -11.672  0.00  0.00    +0.000 OA
ATOM     15  C   UNL     1       8.384  -4.607 -11.501  0.00  0.00    +0.000 C 
ENDBRANCH  11  12
ENDBRANCH   6  11
ENDBRANCH   1   4
BRANCH   1  16
ATOM     16  C   UNL     1       5.165  -4.316  -4.213  0.00  0.00    +0.000 C 
BRANCH  16  21
ATOM     17  C   UNL     1       3.147  -1.111  -0.711  0.00  0.00    +0.000 A 
ATOM     18  C   UNL     1       2.836  -1.310  -2.052  0.00  0.00    +0.000 A 
ATOM     19  C   UNL     1       3.587  -2.221  -2.796  0.00  0.00    +0.000 A 
ATOM     20  C   UNL     1       4.628  -2.922  -2.194  0.00  0.00    +0.000 A 
ATOM     21  N   UNL     1       5.409  -3.827  -2.858  0.00  0.00    +0.000 N 
ATOM     22  N   UNL     1       4.943  -2.723  -0.899  0.00  0.00    +0.000 NA
ATOM     23  C   UNL     1       4.214  -1.820  -0.189  0.00  0.00    +0.000 A 
ATOM     24  H   UNL     1       6.080  -4.308  -2.265  0.00  0.00    +0.000 HD
BRANCH  17  26
ATOM     25  N   UNL     1       1.095   0.068  -0.172  0.00  0.00    +0.000 N 
ATOM     26  C   UNL     1       2.401  -0.174   0.154  0.00  0.00    +0.000 C 
ATOM     27  O   UNL     1       2.914   0.339   1.139  0.00  0.00    +0.000 OA
ATOM     28  H   UNL     1       0.563   0.623   0.487  0.00  0.00    +0.000 HD
ATOM     29  H   UNL     1       0.576  -0.520  -0.809  0.00  0.00    +0.000 HD
ENDBRANCH  17  26
ENDBRANCH  16  21
ENDBRANCH   1  16
TORSDOF 6
