REMARK  Name = 
REMARK  6 active torsions:
REMARK  status: ('A' for Active; 'I' for Inactive)
REMARK    1  A    between atoms: C_1  and  C_2
REMARK    2  A    between atoms: C_2  and  N_3
REMARK    3  A    between atoms: C_2  and  C_16
REMARK    4  A    between atoms: C_4  and  C_6
REMARK    5  A    between atoms: C_19  and  O_20
REMARK    6  A    between atoms: O_20  and  C_21
REMARK                            x       y       z     vdW  Elec       q    Type
REMARK                         _______ _______ _______ _____ _____    ______ ____
ROOT
ATOM      1  C   UNL     1       0.793  -0.144  -0.033  0.00  0.00    +0.000 C 
ATOM      2  C   UNL     1       2.318  -0.066   0.074  0.00  0.00    +0.000 C 
ENDROOT
BRANCH   2   3
ATOM      3  C   UNL     1       2.888  -1.475   0.211  0.00  0.00    +0.000 A 
ATOM      4  C   UNL     1       3.214  -2.198  -0.946  0.00  0.00    +0.000 A 
ATOM      5  C   UNL     1       3.749  -3.486  -0.859  0.00  0.00    +0.000 A 
ATOM      6  C   UNL     1       4.010  -4.057   0.387  0.00  0.00    +0.000 A 
ATOM      7  C   UNL     1       3.632  -3.378   1.545  0.00  0.00    +0.000 A 
ATOM      8  C   UNL     1       3.066  -2.100   1.457  0.00  0.00    +0.000 A 
BRANCH   6   9
ATOM      9  O   UNL     1       4.557  -5.311   0.551  0.00  0.00    +0.000 OA
BRANCH   9  10
ATOM     10  C   UNL     1       5.576  -5.703  -0.313  0.00  0.00    +0.000 A 
ATOM     11  C   UNL     1       5.765  -7.069  -0.468  0.00  0.00    +0.000 A 
ATOM     12  C   UNL     1       6.753  -7.504  -1.348  0.00  0.00    +0.000 A 
ATOM     13  C   UNL     1       7.519  -6.565  -2.032  0.00  0.00    +0.000 A 
ATOM     14  C   UNL     1       7.280  -5.223  -1.789  0.00  0.00    +0.000 A 
ATOM     15  N   UNL     1       6.338  -4.774  -0.935  0.00  0.00    +0.000 NA
ENDBRANCH   9  10
ENDBRANCH   6   9
ENDBRANCH   2   3
BRANCH   2  16
ATOM     16  N   UNL     1       2.761   0.797   1.160  0.00  0.00    +0.000 N 
ATOM     17  C   UNL     1       2.488   2.143   1.188  0.00  0.00    +0.000 C 
ATOM     18  O   UNL     1       1.808   2.702   0.334  0.00  0.00    +0.000 OA
ATOM     19  H   UNL     1       3.592   0.490   1.656  0.00  0.00    +0.000 HD
BRANCH  17  20
ATOM     20  C   UNL     1       3.001   2.885   2.345  0.00  0.00    +0.000 A 
ATOM     21  C   UNL     1       2.316   4.001   2.806  0.00  0.00    +0.000 A 
ATOM     22  S   UNL     1       3.043   4.738   4.160  0.00  0.00    +0.000 S 
ATOM     23  C   UNL     1       4.324   3.619   4.150  0.00  0.00    +0.000 A 
ATOM     24  N   UNL     1       5.341   3.706   5.049  0.00  0.00    +0.000 NA
ATOM     25  C   UNL     1       6.261   2.811   4.903  0.00  0.00    +0.000 A 
ATOM     26  N   UNL     1       6.249   1.828   3.948  0.00  0.00    +0.000 N 
ATOM     27  C   UNL     1       5.220   1.672   3.050  0.00  0.00    +0.000 A 
ATOM     28  O   UNL     1       5.194   0.738   2.256  0.00  0.00    +0.000 OA
ATOM     29  C   UNL     1       4.180   2.675   3.148  0.00  0.00    +0.000 A 
ATOM     30  H   UNL     1       6.990   1.144   3.899  0.00  0.00    +0.000 HD
ENDBRANCH  17  20
ENDBRANCH   2  16
TORSDOF 5
