REMARK  Name = 
REMARK  8 active torsions:
REMARK  status: ('A' for Active; 'I' for Inactive)
REMARK    1  A    between atoms: N_1  and  C_2
REMARK    2  A    between atoms: C_4  and  C_5
REMARK    3  A    between atoms: C_5  and  N_6
REMARK    4  A    between atoms: C_7  and  C_9
REMARK    5  A    between atoms: C_21  and  C_22
REMARK    6  A    between atoms: C_22  and  O_23
REMARK    7  A    between atoms: O_23  and  C_24
REMARK    8  A    between atoms: C_24  and  C_25
REMARK                            x       y       z     vdW  Elec       q    Type
REMARK                         _______ _______ _______ _____ _____    ______ ____
ROOT
ATOM      1  C   UNL     1       0.840  -0.047   0.105  0.00  0.00    +0.000 A 
ATOM      2  N   UNL     1       0.215   1.143   0.101  0.00  0.00    +0.000 NA
ATOM      3  C   UNL     1      -1.144   1.160   0.055  0.00  0.00    +0.000 A 
ATOM      4  C   UNL     1      -1.903   0.000  -0.020  0.00  0.00    +0.000 A 
ATOM      5  C   UNL     1      -1.244  -1.220   0.008  0.00  0.00    +0.000 A 
ATOM      6  C   UNL     1       0.156  -1.259   0.082  0.00  0.00    +0.000 A 
ENDROOT
BRANCH   1   7
ATOM      7  N   UNL     1       2.230   0.023   0.170  0.00  0.00    +0.000 N 
ATOM      8  H   UNL     1       2.466   1.012   0.117  0.00  0.00    +0.000 HD
ATOM      9  H   UNL     1       2.677  -0.498  -0.574  0.00  0.00    +0.000 HD
ENDBRANCH   1   7
BRANCH   3  10
ATOM     10  C   UNL     1      -1.820   2.506   0.096  0.00  0.00    +0.000 C 
BRANCH  10  11
ATOM     11  N   UNL     1      -1.978   3.086  -1.216  0.00  0.00    +0.000 N 
ATOM     12  C   UNL     1      -3.164   3.057  -1.902  0.00  0.00    +0.000 C 
ATOM     13  O   UNL     1      -4.160   2.497  -1.447  0.00  0.00    +0.000 OA
ATOM     14  H   UNL     1      -1.120   3.359  -1.687  0.00  0.00    +0.000 HD
BRANCH  12  15
ATOM     15  C   UNL     1      -3.208   3.793  -3.168  0.00  0.00    +0.000 A 
ATOM     16  C   UNL     1      -4.433   4.196  -3.682  0.00  0.00    +0.000 A 
ATOM     17  S   UNL     1      -4.313   5.083  -5.133  0.00  0.00    +0.000 S 
ATOM     18  C   UNL     1      -2.620   4.925  -5.152  0.00  0.00    +0.000 A 
ATOM     19  N   UNL     1      -1.882   5.452  -6.166  0.00  0.00    +0.000 NA
ATOM     20  C   UNL     1      -0.613   5.232  -6.072  0.00  0.00    +0.000 A 
ATOM     21  N   UNL     1      -0.015   4.541  -5.052  0.00  0.00    +0.000 N 
ATOM     22  C   UNL     1      -0.713   4.035  -3.982  0.00  0.00    +0.000 A 
ATOM     23  O   UNL     1      -0.135   3.497  -3.043  0.00  0.00    +0.000 OA
ATOM     24  C   UNL     1      -2.150   4.225  -4.054  0.00  0.00    +0.000 A 
ATOM     25  H   UNL     1       0.987   4.419  -5.026  0.00  0.00    +0.000 HD
ENDBRANCH  12  15
ENDBRANCH  10  11
ENDBRANCH   3  10
BRANCH   6  26
ATOM     26  C   UNL     1       0.856  -2.588   0.116  0.00  0.00    +0.000 C 
BRANCH  26  27
ATOM     27  O   UNL     1       0.492  -3.403  -1.001  0.00  0.00    +0.000 OA
BRANCH  27  28
ATOM     28  C   UNL     1       0.982  -2.884  -2.244  0.00  0.00    +0.000 C 
BRANCH  28  29
ATOM     29  C   UNL     1       0.661  -3.814  -3.390  0.00  0.00    +0.000 A 
ATOM     30  C   UNL     1      -0.461  -4.640  -3.350  0.00  0.00    +0.000 A 
ATOM     31  C   UNL     1      -0.732  -5.465  -4.437  0.00  0.00    +0.000 A 
ATOM     32  C   UNL     1       0.107  -5.428  -5.543  0.00  0.00    +0.000 A 
ATOM     33  C   UNL     1       1.185  -4.561  -5.516  0.00  0.00    +0.000 A 
ATOM     34  N   UNL     1       1.478  -3.754  -4.474  0.00  0.00    +0.000 NA
ENDBRANCH  28  29
ENDBRANCH  27  28
ENDBRANCH  26  27
ENDBRANCH   6  26
TORSDOF 8
