REMARK  Name = 
REMARK  5 active torsions:
REMARK  status: ('A' for Active; 'I' for Inactive)
REMARK    1  A    between atoms: N_1  and  C_2
REMARK    2  A    between atoms: C_2  and  C_3
REMARK    3  A    between atoms: C_3  and  C_4
REMARK    4  A    between atoms: C_7  and  C_8
REMARK    5  A    between atoms: C_8  and  N_9
REMARK                            x       y       z     vdW  Elec       q    Type
REMARK                         _______ _______ _______ _____ _____    ______ ____
ROOT
ATOM      1  C   UNL     1       4.742   1.301  -0.286  0.00  0.00    +0.000 A 
ATOM      2  C   UNL     1       5.552   0.161  -0.208  0.00  0.00    +0.000 A 
ATOM      3  C   UNL     1       6.942   0.260  -0.301  0.00  0.00    +0.000 A 
ATOM      4  C   UNL     1       7.561   1.505  -0.469  0.00  0.00    +0.000 A 
ATOM      5  C   UNL     1       6.757   2.645  -0.565  0.00  0.00    +0.000 A 
ATOM      6  C   UNL     1       5.367   2.541  -0.472  0.00  0.00    +0.000 A 
ENDROOT
BRANCH   1   7
ATOM      7  C   UNL     1       3.227   1.258  -0.252  0.00  0.00    +0.000 C 
BRANCH   7   8
ATOM      8  C   UNL     1       2.579   0.153   0.590  0.00  0.00    +0.000 C 
BRANCH   8   9
ATOM      9  N   UNL     1       1.127   0.289   0.563  0.00  0.00    +0.000 NA
ATOM     10  H   UNL     1       0.719  -0.471   1.099  0.00  0.00    +0.000 HD
ATOM     11  H   UNL     1       0.780   0.194  -0.385  0.00  0.00    +0.000 HD
ENDBRANCH   8   9
ENDBRANCH   7   8
ENDBRANCH   1   7
BRANCH   4  12
ATOM     12  C   UNL     1       9.065   1.618  -0.535  0.00  0.00    +0.000 C 
BRANCH  12  13
ATOM     13  N   UNL     1       9.602   1.560  -1.897  0.00  0.00    +0.000 N 
ATOM     14  C   UNL     1       9.576   0.428  -2.677  0.00  0.00    +0.000 A 
ATOM     15  C   UNL     1      10.312   0.674  -3.811  0.00  0.00    +0.000 A 
ATOM     16  C   UNL     1      11.034   1.875  -3.579  0.00  0.00    +0.000 A 
ATOM     17  C   UNL     1      12.142   2.507  -4.175  0.00  0.00    +0.000 A 
ATOM     18 CL   UNL     1      12.990   1.603  -5.355  0.00  0.00    +0.000 Cl
ATOM     19  C   UNL     1      12.597   3.744  -3.727  0.00  0.00    +0.000 A 
ATOM     20  C   UNL     1      11.894   4.407  -2.726  0.00  0.00    +0.000 A 
ATOM     21  C   UNL     1      10.807   3.800  -2.081  0.00  0.00    +0.000 A 
ATOM     22  C   UNL     1      10.446   2.496  -2.467  0.00  0.00    +0.000 A 
ENDBRANCH  12  13
ENDBRANCH   4  12
TORSDOF 5
