REMARK  Name = 
REMARK  6 active torsions:
REMARK  status: ('A' for Active; 'I' for Inactive)
REMARK    1  A    between atoms: C_2  and  C_4
REMARK    2  A    between atoms: C_7  and  O_8
REMARK    3  A    between atoms: O_8  and  C_9
REMARK    4  A    between atoms: C_9  and  C_10
REMARK    5  A    between atoms: C_10  and  C_13
REMARK    6  A    between atoms: C_17  and  C_18
REMARK                            x       y       z     vdW  Elec       q    Type
REMARK                         _______ _______ _______ _____ _____    ______ ____
ROOT
ATOM      1  C   UNL     1       5.963  -4.823  -5.412  0.00  0.00    +0.000 C 
ATOM      2  F   UNL     1       7.265  -4.412  -5.358  0.00  0.00    +0.000 F 
ATOM      3  F   UNL     1       5.906  -5.965  -4.664  0.00  0.00    +0.000 F 
ENDROOT
BRANCH   1   4
ATOM      4  C   UNL     1       5.513  -5.077  -6.843  0.00  0.00    +0.000 A 
ATOM      5  C   UNL     1       4.559  -6.062  -7.127  0.00  0.00    +0.000 A 
ATOM      6  C   UNL     1       4.111  -6.260  -8.431  0.00  0.00    +0.000 A 
ATOM      7  C   UNL     1       4.581  -5.450  -9.463  0.00  0.00    +0.000 A 
ATOM      8  C   UNL     1       5.520  -4.434  -9.215  0.00  0.00    +0.000 A 
ATOM      9  C   UNL     1       6.008  -4.300  -7.900  0.00  0.00    +0.000 A 
BRANCH   8  10
ATOM     10  C   UNL     1       5.951  -3.512 -10.284  0.00  0.00    +0.000 A 
ATOM     11  C   UNL     1       7.243  -2.954 -10.281  0.00  0.00    +0.000 A 
ATOM     12  C   UNL     1       7.661  -2.088 -11.289  0.00  0.00    +0.000 A 
ATOM     13  C   UNL     1       6.796  -1.780 -12.329  0.00  0.00    +0.000 A 
ATOM     14  F   UNL     1       7.231  -0.974 -13.308  0.00  0.00    +0.000 F 
ATOM     15  C   UNL     1       5.511  -2.311 -12.361  0.00  0.00    +0.000 A 
ATOM     16 CL   UNL     1       4.450  -1.974 -13.674  0.00  0.00    +0.000 Cl
ATOM     17  C   UNL     1       5.086  -3.155 -11.336  0.00  0.00    +0.000 A 
ENDBRANCH   8  10
ENDBRANCH   1   4
BRANCH   1  18
ATOM     18  C   UNL     1       5.077  -3.750  -4.743  0.00  0.00    +0.000 C 
BRANCH  18  19
ATOM     19  O   UNL     1       5.440  -3.560  -3.366  0.00  0.00    +0.000 OA
BRANCH  19  23
ATOM     20  C   UNL     1       3.333  -0.857  -0.986  0.00  0.00    +0.000 A 
ATOM     21  C   UNL     1       2.966  -0.984  -2.329  0.00  0.00    +0.000 A 
ATOM     22  C   UNL     1       3.654  -1.874  -3.162  0.00  0.00    +0.000 A 
ATOM     23  C   UNL     1       4.708  -2.642  -2.659  0.00  0.00    +0.000 A 
ATOM     24  C   UNL     1       5.085  -2.489  -1.322  0.00  0.00    +0.000 A 
ATOM     25  C   UNL     1       4.405  -1.600  -0.486  0.00  0.00    +0.000 A 
BRANCH  20  27
ATOM     26  N   UNL     1       1.309   0.333  -0.344  0.00  0.00    +0.000 N 
ATOM     27  C   UNL     1       2.619   0.079  -0.072  0.00  0.00    +0.000 C 
ATOM     28  O   UNL     1       3.173   0.565   0.898  0.00  0.00    +0.000 OA
ATOM     29  H   UNL     1       0.809   0.877   0.350  0.00  0.00    +0.000 HD
ATOM     30  H   UNL     1       0.761  -0.248  -0.964  0.00  0.00    +0.000 HD
ENDBRANCH  20  27
ENDBRANCH  19  23
ENDBRANCH  18  19
ENDBRANCH   1  18
TORSDOF 6
