REMARK  Name = 
REMARK  3 active torsions:
REMARK  status: ('A' for Active; 'I' for Inactive)
REMARK    1  A    between atoms: C_2  and  C_4
REMARK    2  A    between atoms: N_8  and  C_9
REMARK    3  A    between atoms: C_9  and  C_10
REMARK                            x       y       z     vdW  Elec       q    Type
REMARK                         _______ _______ _______ _____ _____    ______ ____
ROOT
ATOM      1  C   UNL     1       2.839   2.133  -3.654  0.00  0.00    +0.000 A 
ATOM      2  C   UNL     1       2.177   3.114  -2.920  0.00  0.00    +0.000 A 
ATOM      3  C   UNL     1       2.917   3.964  -2.093  0.00  0.00    +0.000 A 
ATOM      4  C   UNL     1       4.298   3.802  -1.998  0.00  0.00    +0.000 A 
ATOM      5  N   UNL     1       5.093   4.556  -1.132  0.00  0.00    +0.000 N 
ATOM      6  N   UNL     1       4.944   2.835  -2.684  0.00  0.00    +0.000 NA
ATOM      7  C   UNL     1       4.211   2.028  -3.493  0.00  0.00    +0.000 A 
ATOM      8  H   UNL     1       6.045   4.237  -1.311  0.00  0.00    +0.000 HD
ENDROOT
BRANCH   1  10
ATOM      9  N   UNL     1       0.939   1.580  -5.067  0.00  0.00    +0.000 N 
ATOM     10  C   UNL     1       2.142   1.187  -4.553  0.00  0.00    +0.000 C 
ATOM     11  O   UNL     1       2.638   0.108  -4.851  0.00  0.00    +0.000 OA
ATOM     12  H   UNL     1       0.525   0.967  -5.756  0.00  0.00    +0.000 HD
ATOM     13  H   UNL     1       0.621   2.539  -5.046  0.00  0.00    +0.000 HD
ENDBRANCH   1  10
BRANCH   5  14
ATOM     14  C   UNL     1       4.945   6.015  -0.949  0.00  0.00    +0.000 C 
ATOM     15  C   UNL     1       5.138   6.487   0.488  0.00  0.00    +0.000 C 
ATOM     16  C   UNL     1       3.805   6.633  -0.162  0.00  0.00    +0.000 C 
BRANCH  14  17
ATOM     17  C   UNL     1       5.559   6.845  -2.069  0.00  0.00    +0.000 A 
ATOM     18  C   UNL     1       6.896   7.268  -2.052  0.00  0.00    +0.000 A 
ATOM     19  C   UNL     1       7.423   8.018  -3.104  0.00  0.00    +0.000 A 
ATOM     20  C   UNL     1       6.592   8.332  -4.164  0.00  0.00    +0.000 A 
ATOM     21  N   UNL     1       5.301   7.956  -4.237  0.00  0.00    +0.000 NA
ATOM     22  C   UNL     1       4.826   7.225  -3.198  0.00  0.00    +0.000 A 
ENDBRANCH  14  17
ENDBRANCH   5  14
TORSDOF 3
