REMARK  Name = 
REMARK  7 active torsions:
REMARK  status: ('A' for Active; 'I' for Inactive)
REMARK    1  A    between atoms: C_1  and  C_2
REMARK    2  A    between atoms: C_5  and  C_6
REMARK    3  A    between atoms: N_8  and  C_9
REMARK    4  A    between atoms: C_9  and  C_10
REMARK    5  A    between atoms: C_13  and  C_14
REMARK    6  A    between atoms: C_14  and  N_15
REMARK    7  A    between atoms: C_16  and  C_18
REMARK                            x       y       z     vdW  Elec       q    Type
REMARK                         _______ _______ _______ _____ _____    ______ ____
ROOT
ATOM      1  C   UNL     1       6.288  -1.442   0.043  0.00  0.00    +0.000 A 
ATOM      2  C   UNL     1       7.664  -1.275   0.255  0.00  0.00    +0.000 A 
ATOM      3  C   UNL     1       8.520  -2.382   0.310  0.00  0.00    +0.000 A 
ATOM      4  C   UNL     1       8.024  -3.680   0.131  0.00  0.00    +0.000 A 
ATOM      5  C   UNL     1       6.648  -3.846  -0.078  0.00  0.00    +0.000 A 
ATOM      6  C   UNL     1       5.792  -2.740  -0.136  0.00  0.00    +0.000 A 
ENDROOT
BRANCH   1   7
ATOM      7  C   UNL     1       5.366  -0.249  -0.005  0.00  0.00    +0.000 C 
BRANCH   7  10
ATOM      8  C   UNL     1       4.532   1.429  -1.609  0.00  0.00    +0.000 C 
ATOM      9  O   UNL     1       3.957   2.049  -0.723  0.00  0.00    +0.000 OA
ATOM     10  N   UNL     1       5.256   0.288  -1.339  0.00  0.00    +0.000 N 
ATOM     11  H   UNL     1       5.673  -0.223  -2.109  0.00  0.00    +0.000 HD
BRANCH   8  16
ATOM     12  C   UNL     1       5.124   1.927  -6.837  0.00  0.00    +0.000 C 
ATOM     13  C   UNL     1       4.749   2.096  -5.407  0.00  0.00    +0.000 A 
ATOM     14  N   UNL     1       3.982   3.055  -4.937  0.00  0.00    +0.000 NA
ATOM     15  C   UNL     1       3.840   2.907  -3.566  0.00  0.00    +0.000 A 
ATOM     16  C   UNL     1       4.500   1.829  -3.006  0.00  0.00    +0.000 A 
ATOM     17  S   UNL     1       5.333   0.979  -4.241  0.00  0.00    +0.000 S 
ENDBRANCH   8  16
ENDBRANCH   7  10
ENDBRANCH   1   7
BRANCH   4  18
ATOM     18  C   UNL     1       8.938  -4.879   0.181  0.00  0.00    +0.000 C 
BRANCH  18  19
ATOM     19  N   UNL     1       9.063  -5.404   1.518  0.00  0.00    +0.000 N 
ATOM     20  C   UNL     1       9.888  -6.468   1.788  0.00  0.00    +0.000 C 
ATOM     21  O   UNL     1      10.589  -6.984   0.921  0.00  0.00    +0.000 OA
ATOM     22  H   UNL     1       8.335  -5.159   2.181  0.00  0.00    +0.000 HD
BRANCH  20  23
ATOM     23  C   UNL     1       9.938  -6.925   3.183  0.00  0.00    +0.000 A 
ATOM     24  C   UNL     1      11.055  -7.609   3.647  0.00  0.00    +0.000 A 
ATOM     25  S   UNL     1      10.970  -8.018   5.300  0.00  0.00    +0.000 S 
ATOM     26  C   UNL     1       9.414  -7.344   5.443  0.00  0.00    +0.000 A 
ATOM     27  N   UNL     1       8.740  -7.383   6.624  0.00  0.00    +0.000 NA
ATOM     28  C   UNL     1       7.559  -6.862   6.581  0.00  0.00    +0.000 A 
ATOM     29  N   UNL     1       6.993  -6.303   5.465  0.00  0.00    +0.000 N 
ATOM     30  C   UNL     1       7.647  -6.214   4.260  0.00  0.00    +0.000 A 
ATOM     31  O   UNL     1       7.129  -5.666   3.292  0.00  0.00    +0.000 OA
ATOM     32  C   UNL     1       8.975  -6.797   4.251  0.00  0.00    +0.000 A 
ATOM     33  H   UNL     1       6.066  -5.904   5.500  0.00  0.00    +0.000 HD
ENDBRANCH  20  23
ENDBRANCH  18  19
ENDBRANCH   4  18
TORSDOF 6
