REMARK  Name = 
REMARK  9 active torsions:
REMARK  status: ('A' for Active; 'I' for Inactive)
REMARK    1  A    between atoms: C_1  and  O_2
REMARK    2  A    between atoms: O_2  and  C_3
REMARK    3  A    between atoms: C_10  and  C_11
REMARK    4  A    between atoms: N_13  and  C_14
REMARK    5  A    between atoms: C_14  and  C_15
REMARK    6  A    between atoms: C_18  and  C_19
REMARK    7  A    between atoms: C_19  and  O_20
REMARK    8  A    between atoms: O_20  and  C_21
REMARK    9  A    between atoms: C_21  and  C_22
REMARK                            x       y       z     vdW  Elec       q    Type
REMARK                         _______ _______ _______ _____ _____    ______ ____
ROOT
ATOM      1  C   UNL     1       3.218  -3.121   1.378  0.00  0.00    +0.000 C 
ENDROOT
BRANCH   1   2
ATOM      2  C   UNL     1       2.230  -2.611   2.402  0.00  0.00    +0.000 A 
ATOM      3  C   UNL     1       1.324  -3.487   3.017  0.00  0.00    +0.000 A 
ATOM      4  C   UNL     1       0.391  -3.016   3.950  0.00  0.00    +0.000 A 
ATOM      5  C   UNL     1       0.329  -1.654   4.279  0.00  0.00    +0.000 A 
ATOM      6  C   UNL     1       1.232  -0.779   3.662  0.00  0.00    +0.000 A 
ATOM      7  C   UNL     1       2.171  -1.251   2.735  0.00  0.00    +0.000 A 
BRANCH   5   8
ATOM      8  C   UNL     1      -0.698  -1.138   5.258  0.00  0.00    +0.000 C 
BRANCH   8   9
ATOM      9  O   UNL     1      -0.501  -1.765   6.520  0.00  0.00    +0.000 OA
BRANCH   9  10
ATOM     10  C   UNL     1      -1.419  -1.290   7.505  0.00  0.00    +0.000 C 
BRANCH  10  11
ATOM     11  C   UNL     1      -1.161  -1.978   8.816  0.00  0.00    +0.000 A 
ATOM     12  C   UNL     1       0.117  -2.398   9.198  0.00  0.00    +0.000 A 
ATOM     13  C   UNL     1       0.308  -3.012  10.431  0.00  0.00    +0.000 A 
ATOM     14  C   UNL     1      -0.789  -3.173  11.259  0.00  0.00    +0.000 A 
ATOM     15  N   UNL     1      -2.036  -2.763  10.941  0.00  0.00    +0.000 NA
ATOM     16  C   UNL     1      -2.190  -2.175   9.731  0.00  0.00    +0.000 A 
ENDBRANCH  10  11
ENDBRANCH   9  10
ENDBRANCH   8   9
ENDBRANCH   5   8
ENDBRANCH   1   2
BRANCH   1  19
ATOM     17  C   UNL     1       3.338  -3.504  -1.064  0.00  0.00    +0.000 C 
ATOM     18  O   UNL     1       4.485  -3.941  -0.982  0.00  0.00    +0.000 OA
ATOM     19  N   UNL     1       2.656  -3.090   0.046  0.00  0.00    +0.000 N 
ATOM     20  H   UNL     1       1.708  -2.754  -0.042  0.00  0.00    +0.000 HD
BRANCH  17  28
ATOM     21  C   UNL     1       0.194  -2.450  -1.989  0.00  0.00    +0.000 A 
ATOM     22  N   UNL     1      -0.924  -2.036  -2.616  0.00  0.00    +0.000 NA
ATOM     23  C   UNL     1      -0.952  -2.090  -3.949  0.00  0.00    +0.000 A 
ATOM     24  N   UNL     1       0.009  -2.535  -4.754  0.00  0.00    +0.000 NA
ATOM     25  C   UNL     1       1.109  -2.933  -4.090  0.00  0.00    +0.000 A 
ATOM     26  S   UNL     1       2.436  -3.545  -4.951  0.00  0.00    +0.000 S 
ATOM     27  C   UNL     1       3.325  -3.774  -3.519  0.00  0.00    +0.000 A 
ATOM     28  C   UNL     1       2.650  -3.386  -2.366  0.00  0.00    +0.000 A 
ATOM     29  C   UNL     1       1.310  -2.910  -2.712  0.00  0.00    +0.000 A 
BRANCH  21  31
ATOM     30  C   UNL     1      -1.066  -2.454  -0.020  0.00  0.00    +0.000 C 
ATOM     31  O   UNL     1       0.227  -2.382  -0.614  0.00  0.00    +0.000 OA
ENDBRANCH  21  31
ENDBRANCH  17  28
ENDBRANCH   1  19
TORSDOF 8
