REMARK  Name = 
REMARK  5 active torsions:
REMARK  status: ('A' for Active; 'I' for Inactive)
REMARK    1  A    between atoms: N_1  and  C_2
REMARK    2  A    between atoms: C_2  and  C_3
REMARK    3  A    between atoms: C_3  and  C_4
REMARK    4  A    between atoms: C_7  and  C_8
REMARK    5  A    between atoms: C_8  and  N_9
REMARK                            x       y       z     vdW  Elec       q    Type
REMARK                         _______ _______ _______ _____ _____    ______ ____
ROOT
ATOM      1  C   UNL     1       4.409  -1.031  -1.001  0.00  0.00    +0.000 A 
ATOM      2  C   UNL     1       5.181  -0.298  -1.910  0.00  0.00    +0.000 A 
ATOM      3  C   UNL     1       6.578  -0.364  -1.875  0.00  0.00    +0.000 A 
ATOM      4  C   UNL     1       7.230  -1.157  -0.920  0.00  0.00    +0.000 A 
ATOM      5  C   UNL     1       6.450  -1.859  -0.001  0.00  0.00    +0.000 A 
ATOM      6  F   UNL     1       7.035  -2.580   0.964  0.00  0.00    +0.000 F 
ATOM      7  C   UNL     1       5.059  -1.806  -0.035  0.00  0.00    +0.000 A 
ENDROOT
BRANCH   1   8
ATOM      8  C   UNL     1       2.902  -0.962  -1.038  0.00  0.00    +0.000 C 
BRANCH   8   9
ATOM      9  C   UNL     1       2.362   0.128  -0.108  0.00  0.00    +0.000 C 
BRANCH   9  10
ATOM     10  N   UNL     1       0.899   0.173  -0.139  0.00  0.00    +0.000 NA
ATOM     11  H   UNL     1       0.573   0.890   0.506  0.00  0.00    +0.000 HD
ATOM     12  H   UNL     1       0.522  -0.710   0.203  0.00  0.00    +0.000 HD
ENDBRANCH   9  10
ENDBRANCH   8   9
ENDBRANCH   1   8
BRANCH   4  13
ATOM     13  C   UNL     1       8.730  -1.235  -0.873  0.00  0.00    +0.000 C 
BRANCH  13  14
ATOM     14  N   UNL     1       9.272  -2.305  -1.706  0.00  0.00    +0.000 N 
ATOM     15  C   UNL     1       9.573  -2.160  -3.041  0.00  0.00    +0.000 A 
ATOM     16  C   UNL     1      10.287  -3.268  -3.441  0.00  0.00    +0.000 A 
ATOM     17  C   UNL     1      10.421  -4.126  -2.316  0.00  0.00    +0.000 A 
ATOM     18  C   UNL     1      11.075  -5.356  -2.107  0.00  0.00    +0.000 A 
ATOM     19  C   UNL     1      11.015  -5.952  -0.845  0.00  0.00    +0.000 A 
ATOM     20 CL   UNL     1      11.850  -7.434  -0.567  0.00  0.00    +0.000 Cl
ATOM     21  C   UNL     1      10.304  -5.364   0.194  0.00  0.00    +0.000 A 
ATOM     22  C   UNL     1       9.652  -4.140   0.008  0.00  0.00    +0.000 A 
ATOM     23  C   UNL     1       9.740  -3.524  -1.250  0.00  0.00    +0.000 A 
ENDBRANCH  13  14
ENDBRANCH   4  13
TORSDOF 5
