REMARK  Name = 
REMARK  6 active torsions:
REMARK  status: ('A' for Active; 'I' for Inactive)
REMARK    1  A    between atoms: C_2  and  C_18
REMARK    2  A    between atoms: N_3  and  C_4
REMARK    3  A    between atoms: C_4  and  C_5
REMARK    4  A    between atoms: C_8  and  C_9
REMARK    5  A    between atoms: C_9  and  N_10
REMARK    6  A    between atoms: N_10  and  C_11
REMARK                            x       y       z     vdW  Elec       q    Type
REMARK                         _______ _______ _______ _____ _____    ______ ____
ROOT
ATOM      1  O   UNL     1       1.712   3.018  -0.077  0.00  0.00    +0.000 OA
ATOM      2  C   UNL     1       2.478   2.077  -0.245  0.00  0.00    +0.000 C 
ATOM      3  N   UNL     1       2.732   1.151   0.733  0.00  0.00    +0.000 N 
ATOM      4  H   UNL     1       3.492   0.489   0.609  0.00  0.00    +0.000 HD
ENDROOT
BRANCH   2   5
ATOM      5  C   UNL     1       3.136   1.848  -1.538  0.00  0.00    +0.000 A 
ATOM      6  C   UNL     1       2.580   2.377  -2.695  0.00  0.00    +0.000 A 
ATOM      7  S   UNL     1       3.476   2.029  -4.103  0.00  0.00    +0.000 S 
ATOM      8  C   UNL     1       4.659   1.193  -3.210  0.00  0.00    +0.000 A 
ATOM      9  N   UNL     1       5.753   0.666  -3.821  0.00  0.00    +0.000 NA
ATOM     10  C   UNL     1       6.590   0.094  -3.017  0.00  0.00    +0.000 A 
ATOM     11  N   UNL     1       6.418  -0.014  -1.661  0.00  0.00    +0.000 N 
ATOM     12  C   UNL     1       5.289   0.427  -1.012  0.00  0.00    +0.000 A 
ATOM     13  O   UNL     1       5.099   0.184   0.174  0.00  0.00    +0.000 OA
ATOM     14  C   UNL     1       4.354   1.141  -1.861  0.00  0.00    +0.000 A 
ATOM     15  H   UNL     1       7.092  -0.510  -1.096  0.00  0.00    +0.000 HD
ENDBRANCH   2   5
BRANCH   3  16
ATOM     16  C   UNL     1       2.176   1.254   2.057  0.00  0.00    +0.000 C 
BRANCH  16  17
ATOM     17  C   UNL     1       3.109   1.945   3.003  0.00  0.00    +0.000 A 
ATOM     18  C   UNL     1       3.123   3.335   3.124  0.00  0.00    +0.000 A 
ATOM     19  C   UNL     1       3.971   3.941   4.047  0.00  0.00    +0.000 A 
ATOM     20  C   UNL     1       4.800   3.137   4.826  0.00  0.00    +0.000 A 
ATOM     21  N   UNL     1       4.830   1.785   4.701  0.00  0.00    +0.000 NA
ATOM     22  C   UNL     1       3.998   1.227   3.793  0.00  0.00    +0.000 A 
BRANCH  20  23
ATOM     23  C   UNL     1       5.711   3.755   5.869  0.00  0.00    +0.000 C 
BRANCH  23  24
ATOM     24  N   UNL     1       4.962   4.419   6.945  0.00  0.00    +0.000 NA
ATOM     25  H   UNL     1       4.326   3.743   7.373  0.00  0.00    +0.000 HD
BRANCH  24  26
ATOM     26  C   UNL     1       5.833   5.019   7.969  0.00  0.00    +0.000 C 
ATOM     27  C   UNL     1       6.674   4.030   8.758  0.00  0.00    +0.000 C 
ATOM     28  C   UNL     1       5.705   3.504   9.793  0.00  0.00    +0.000 C 
ATOM     29  O   UNL     1       4.792   4.570  10.083  0.00  0.00    +0.000 OA
ATOM     30  C   UNL     1       4.984   5.609   9.105  0.00  0.00    +0.000 C 
ENDBRANCH  24  26
ENDBRANCH  23  24
ENDBRANCH  20  23
ENDBRANCH  16  17
ENDBRANCH   3  16
TORSDOF 6
