REMARK  Name = 
REMARK  9 active torsions:
REMARK  status: ('A' for Active; 'I' for Inactive)
REMARK    1  A    between atoms: C_1  and  O_2
REMARK    2  A    between atoms: O_2  and  C_3
REMARK    3  A    between atoms: C_10  and  C_11
REMARK    4  A    between atoms: N_13  and  C_14
REMARK    5  A    between atoms: C_14  and  C_15
REMARK    6  A    between atoms: C_18  and  C_19
REMARK    7  A    between atoms: C_19  and  S_20
REMARK    8  A    between atoms: S_20  and  C_21
REMARK    9  A    between atoms: C_21  and  C_22
REMARK                            x       y       z     vdW  Elec       q    Type
REMARK                         _______ _______ _______ _____ _____    ______ ____
ROOT
ATOM      1  C   UNL     1       3.143  -2.494   2.087  0.00  0.00    +0.000 C 
ENDROOT
BRANCH   1   2
ATOM      2  C   UNL     1       2.112  -1.763   2.909  0.00  0.00    +0.000 A 
ATOM      3  C   UNL     1       1.077  -2.466   3.538  0.00  0.00    +0.000 A 
ATOM      4  C   UNL     1       0.107  -1.790   4.284  0.00  0.00    +0.000 A 
ATOM      5  C   UNL     1       0.151  -0.396   4.425  0.00  0.00    +0.000 A 
ATOM      6  C   UNL     1       1.166   0.310   3.762  0.00  0.00    +0.000 A 
ATOM      7  C   UNL     1       2.133  -0.365   3.010  0.00  0.00    +0.000 A 
BRANCH   5   8
ATOM      8  C   UNL     1      -0.895   0.342   5.225  0.00  0.00    +0.000 C 
BRANCH   8   9
ATOM      9  S   UNL     1      -1.074  -0.222   6.946  0.00  0.00    +0.000 S 
BRANCH   9  10
ATOM     10  C   UNL     1       0.579   0.193   7.593  0.00  0.00    +0.000 C 
BRANCH  10  11
ATOM     11  C   UNL     1       0.694  -0.178   9.054  0.00  0.00    +0.000 A 
ATOM     12  C   UNL     1       1.104  -1.467   9.430  0.00  0.00    +0.000 A 
ATOM     13  C   UNL     1       1.187  -1.822  10.778  0.00  0.00    +0.000 A 
ATOM     14  C   UNL     1       0.856  -0.895  11.766  0.00  0.00    +0.000 A 
ATOM     15  C   UNL     1       0.441   0.385  11.405  0.00  0.00    +0.000 A 
ATOM     16  C   UNL     1       0.358   0.743  10.057  0.00  0.00    +0.000 A 
ENDBRANCH  10  11
ENDBRANCH   9  10
ENDBRANCH   8   9
ENDBRANCH   5   8
ENDBRANCH   1   2
BRANCH   1  19
ATOM     17  C   UNL     1       3.421  -3.316  -0.219  0.00  0.00    +0.000 C 
ATOM     18  O   UNL     1       4.489  -3.852   0.065  0.00  0.00    +0.000 OA
ATOM     19  N   UNL     1       2.703  -2.631   0.722  0.00  0.00    +0.000 N 
ATOM     20  H   UNL     1       1.838  -2.178   0.466  0.00  0.00    +0.000 HD
BRANCH  17  28
ATOM     21  C   UNL     1       0.496  -2.181  -1.636  0.00  0.00    +0.000 A 
ATOM     22  N   UNL     1      -0.522  -1.816  -2.441  0.00  0.00    +0.000 NA
ATOM     23  C   UNL     1      -0.447  -2.141  -3.734  0.00  0.00    +0.000 A 
ATOM     24  N   UNL     1       0.535  -2.806  -4.337  0.00  0.00    +0.000 NA
ATOM     25  C   UNL     1       1.533  -3.141  -3.503  0.00  0.00    +0.000 A 
ATOM     26  S   UNL     1       2.869  -4.002  -4.099  0.00  0.00    +0.000 S 
ATOM     27  C   UNL     1       3.607  -4.016  -2.569  0.00  0.00    +0.000 A 
ATOM     28  C   UNL     1       2.869  -3.373  -1.582  0.00  0.00    +0.000 A 
ATOM     29  C   UNL     1       1.618  -2.863  -2.141  0.00  0.00    +0.000 A 
BRANCH  21  31
ATOM     30  C   UNL     1      -0.903  -1.612   0.154  0.00  0.00    +0.000 C 
ATOM     31  O   UNL     1       0.429  -1.827  -0.305  0.00  0.00    +0.000 OA
ENDBRANCH  21  31
ENDBRANCH  17  28
ENDBRANCH   1  19
TORSDOF 8
