REMARK  Name = 
REMARK  6 active torsions:
REMARK  status: ('A' for Active; 'I' for Inactive)
REMARK    1  A    between atoms: C_2  and  C_19
REMARK    2  A    between atoms: N_3  and  C_4
REMARK    3  A    between atoms: C_4  and  C_5
REMARK    4  A    between atoms: C_8  and  C_9
REMARK    5  A    between atoms: C_9  and  O_10
REMARK    6  A    between atoms: C_9  and  C_11
REMARK                            x       y       z     vdW  Elec       q    Type
REMARK                         _______ _______ _______ _____ _____    ______ ____
ROOT
ATOM      1  C   UNL     1       7.984   6.177  -7.193  0.00  0.00    +0.000 C 
ENDROOT
BRANCH   1   2
ATOM      2  C   UNL     1       7.512   6.360  -5.779  0.00  0.00    +0.000 A 
ATOM      3  C   UNL     1       7.987   7.399  -4.973  0.00  0.00    +0.000 A 
ATOM      4  C   UNL     1       7.541   7.521  -3.658  0.00  0.00    +0.000 A 
ATOM      5  C   UNL     1       6.610   6.605  -3.179  0.00  0.00    +0.000 A 
ATOM      6  N   UNL     1       6.133   5.583  -3.942  0.00  0.00    +0.000 NA
ATOM      7  C   UNL     1       6.584   5.493  -5.216  0.00  0.00    +0.000 A 
BRANCH   5   8
ATOM      8  C   UNL     1       6.055   6.718  -1.766  0.00  0.00    +0.000 C 
BRANCH   8   9
ATOM      9  C   UNL     1       4.797   7.613  -1.688  0.00  0.00    +0.000 C 
ATOM     10  C   UNL     1       4.322   7.759  -0.230  0.00  0.00    +0.000 C 
ATOM     11  C   UNL     1       3.037   8.573  -0.147  0.00  0.00    +0.000 C 
ATOM     12  O   UNL     1       2.014   7.997  -0.955  0.00  0.00    +0.000 OA
ATOM     13  C   UNL     1       2.379   7.948  -2.332  0.00  0.00    +0.000 C 
ATOM     14  C   UNL     1       3.622   7.093  -2.538  0.00  0.00    +0.000 C 
ENDBRANCH   8   9
BRANCH   8  15
ATOM     15  O   UNL     1       5.750   5.413  -1.267  0.00  0.00    +0.000 OA
ATOM     16  H   UNL     1       5.674   4.851  -2.068  0.00  0.00    +0.000 HD
ENDBRANCH   8  15
ENDBRANCH   5   8
ENDBRANCH   1   2
BRANCH   1  19
ATOM     17  O   UNL     1       5.766   5.270  -8.706  0.00  0.00    +0.000 OA
ATOM     18  C   UNL     1       6.128   6.435  -8.814  0.00  0.00    +0.000 C 
ATOM     19  N   UNL     1       7.210   6.939  -8.138  0.00  0.00    +0.000 N 
ATOM     20  H   UNL     1       7.381   7.936  -8.150  0.00  0.00    +0.000 HD
BRANCH  18  21
ATOM     21  C   UNL     1       5.455   7.376  -9.716  0.00  0.00    +0.000 A 
ATOM     22  C   UNL     1       4.751   6.915 -10.822  0.00  0.00    +0.000 A 
ATOM     23  S   UNL     1       4.044   8.166 -11.747  0.00  0.00    +0.000 S 
ATOM     24  C   UNL     1       4.626   9.359 -10.684  0.00  0.00    +0.000 A 
ATOM     25  N   UNL     1       4.350  10.677 -10.884  0.00  0.00    +0.000 NA
ATOM     26  C   UNL     1       4.825  11.467  -9.980  0.00  0.00    +0.000 A 
ATOM     27  N   UNL     1       5.560  11.060  -8.896  0.00  0.00    +0.000 N 
ATOM     28  C   UNL     1       5.928   9.758  -8.697  0.00  0.00    +0.000 A 
ATOM     29  O   UNL     1       6.707   9.452  -7.797  0.00  0.00    +0.000 OA
ATOM     30  C   UNL     1       5.373   8.816  -9.656  0.00  0.00    +0.000 A 
ATOM     31  H   UNL     1       5.941  11.733  -8.246  0.00  0.00    +0.000 HD
ENDBRANCH  18  21
ENDBRANCH   1  19
TORSDOF 6
