REMARK  Name = 
REMARK  7 active torsions:
REMARK  status: ('A' for Active; 'I' for Inactive)
REMARK    1  A    between atoms: C_1  and  C_2
REMARK    2  A    between atoms: C_7  and  C_8
REMARK    3  A    between atoms: N_10  and  C_11
REMARK    4  A    between atoms: C_11  and  C_12
REMARK    5  A    between atoms: C_15  and  O_16
REMARK    6  A    between atoms: O_16  and  C_17
REMARK    7  A    between atoms: C_17  and  C_18
REMARK                            x       y       z     vdW  Elec       q    Type
REMARK                         _______ _______ _______ _____ _____    ______ ____
ROOT
ATOM      1  C   UNL     1       9.189   1.380   1.487  0.00  0.00    +0.000 C 
ATOM      2  O   UNL     1       9.472   0.634   0.550  0.00  0.00    +0.000 OA
ATOM      3  N   UNL     1       8.714   2.644   1.265  0.00  0.00    +0.000 N 
ATOM      4  H   UNL     1       8.468   3.255   2.039  0.00  0.00    +0.000 HD
ENDROOT
BRANCH   1  11
ATOM      5  C   UNL     1       8.615   2.910   8.146  0.00  0.00    +0.000 C 
ATOM      6  C   UNL     1       8.812   2.376   6.758  0.00  0.00    +0.000 A 
ATOM      7  N   UNL     1       9.268   1.181   6.553  0.00  0.00    +0.000 NA
ATOM      8  C   UNL     1       9.395   0.839   5.243  0.00  0.00    +0.000 A 
ATOM      9  S   UNL     1       9.985  -0.694   4.800  0.00  0.00    +0.000 S 
ATOM     10  C   UNL     1       9.843  -0.331   3.142  0.00  0.00    +0.000 A 
ATOM     11  C   UNL     1       9.352   0.944   2.884  0.00  0.00    +0.000 A 
ATOM     12  C   UNL     1       9.092   1.617   4.138  0.00  0.00    +0.000 A 
ATOM     13  C   UNL     1       8.576   2.941   4.422  0.00  0.00    +0.000 A 
ATOM     14  O   UNL     1       8.244   3.754   3.564  0.00  0.00    +0.000 OA
ATOM     15  N   UNL     1       8.471   3.248   5.755  0.00  0.00    +0.000 N 
ATOM     16  H   UNL     1       8.116   4.169   5.963  0.00  0.00    +0.000 HD
ENDBRANCH   1  11
BRANCH   3  17
ATOM     17  C   UNL     1       8.528   3.153  -0.069  0.00  0.00    +0.000 C 
BRANCH  17  18
ATOM     18  C   UNL     1       7.955   4.545  -0.054  0.00  0.00    +0.000 A 
ATOM     19  C   UNL     1       8.784   5.675  -0.044  0.00  0.00    +0.000 A 
ATOM     20  C   UNL     1       8.231   6.960  -0.057  0.00  0.00    +0.000 A 
ATOM     21  C   UNL     1       6.845   7.128  -0.079  0.00  0.00    +0.000 A 
ATOM     22  C   UNL     1       6.018   6.007  -0.015  0.00  0.00    +0.000 A 
ATOM     23  C   UNL     1       6.568   4.726  -0.012  0.00  0.00    +0.000 A 
BRANCH  21  24
ATOM     24  O   UNL     1       6.396   8.419  -0.165  0.00  0.00    +0.000 OA
BRANCH  24  25
ATOM     25  C   UNL     1       5.076   8.554  -0.700  0.00  0.00    +0.000 C 
BRANCH  25  26
ATOM     26  C   UNL     1       4.884   9.947  -1.235  0.00  0.00    +0.000 A 
ATOM     27  C   UNL     1       5.754  10.452  -2.205  0.00  0.00    +0.000 A 
ATOM     28  C   UNL     1       5.519  11.719  -2.712  0.00  0.00    +0.000 A 
ATOM     29  N   UNL     1       4.487  12.501  -2.329  0.00  0.00    +0.000 NA
ATOM     30  C   UNL     1       3.655  11.992  -1.395  0.00  0.00    +0.000 A 
ATOM     31  C   UNL     1       3.806  10.736  -0.828  0.00  0.00    +0.000 A 
ENDBRANCH  25  26
ENDBRANCH  24  25
ENDBRANCH  21  24
ENDBRANCH  17  18
ENDBRANCH   3  17
TORSDOF 6
