REMARK  Name = 
REMARK  5 active torsions:
REMARK  status: ('A' for Active; 'I' for Inactive)
REMARK    1  A    between atoms: N_1  and  C_2
REMARK    2  A    between atoms: C_2  and  C_3
REMARK    3  A    between atoms: C_6  and  O_7
REMARK    4  A    between atoms: O_7  and  C_8
REMARK    5  A    between atoms: C_8  and  C_9
REMARK                            x       y       z     vdW  Elec       q    Type
REMARK                         _______ _______ _______ _____ _____    ______ ____
ROOT
ATOM      1  C   UNL     1       2.933  -0.461  -1.404  0.00  0.00    +0.000 A 
ATOM      2  C   UNL     1       2.875  -1.833  -1.700  0.00  0.00    +0.000 A 
ATOM      3  C   UNL     1       3.267  -2.319  -2.947  0.00  0.00    +0.000 A 
ATOM      4  C   UNL     1       3.755  -1.445  -3.917  0.00  0.00    +0.000 A 
ATOM      5  C   UNL     1       3.808  -0.078  -3.645  0.00  0.00    +0.000 A 
ATOM      6  C   UNL     1       3.413   0.411  -2.394  0.00  0.00    +0.000 A 
ATOM      7 CL   UNL     1       3.564   2.110  -2.115  0.00  0.00    +0.000 Cl
ENDROOT
BRANCH   1   8
ATOM      8  C   UNL     1       2.509  -0.007  -0.032  0.00  0.00    +0.000 C 
BRANCH   8   9
ATOM      9  N   UNL     1       3.611  -0.087   0.917  0.00  0.00    +0.000 NA
ATOM     10  H   UNL     1       3.288   0.238   1.827  0.00  0.00    +0.000 HD
ATOM     11  H   UNL     1       4.338   0.568   0.629  0.00  0.00    +0.000 HD
ENDBRANCH   8   9
ENDBRANCH   1   8
BRANCH   4  12
ATOM     12  O   UNL     1       4.204  -1.820  -5.155  0.00  0.00    +0.000 OA
BRANCH  12  13
ATOM     13  C   UNL     1       4.613  -3.187  -5.263  0.00  0.00    +0.000 C 
BRANCH  13  14
ATOM     14  C   UNL     1       5.499  -3.399  -6.465  0.00  0.00    +0.000 A 
ATOM     15  C   UNL     1       6.300  -2.377  -6.983  0.00  0.00    +0.000 A 
ATOM     16  C   UNL     1       7.147  -2.667  -8.040  0.00  0.00    +0.000 A 
ATOM     17  N   UNL     1       7.259  -3.888  -8.602  0.00  0.00    +0.000 NA
ATOM     18  C   UNL     1       6.487  -4.866  -8.083  0.00  0.00    +0.000 A 
ATOM     19  C   UNL     1       5.607  -4.674  -7.029  0.00  0.00    +0.000 A 
ENDBRANCH  13  14
ENDBRANCH  12  13
ENDBRANCH   4  12
TORSDOF 5
