REMARK  Name = 
REMARK  5 active torsions:
REMARK  status: ('A' for Active; 'I' for Inactive)
REMARK    1  A    between atoms: C_2  and  C_4
REMARK    2  A    between atoms: C_7  and  O_8
REMARK    3  A    between atoms: O_8  and  C_9
REMARK    4  A    between atoms: C_9  and  C_10
REMARK    5  A    between atoms: C_13  and  C_14
REMARK                            x       y       z     vdW  Elec       q    Type
REMARK                         _______ _______ _______ _____ _____    ______ ____
ROOT
ATOM      1  C   UNL     1       5.031   2.506   5.289  0.00  0.00    +0.000 C 
ENDROOT
BRANCH   1   2
ATOM      2  C   UNL     1       5.961   3.300   6.156  0.00  0.00    +0.000 A 
ATOM      3  C   UNL     1       5.865   4.687   6.242  0.00  0.00    +0.000 A 
ATOM      4  C   UNL     1       6.681   5.377   7.135  0.00  0.00    +0.000 A 
ATOM      5  C   UNL     1       7.582   4.667   7.928  0.00  0.00    +0.000 A 
ATOM      6  N   UNL     1       7.733   3.324   7.802  0.00  0.00    +0.000 NA
ATOM      7  C   UNL     1       6.933   2.678   6.925  0.00  0.00    +0.000 A 
BRANCH   5   8
ATOM      8  C   UNL     1       8.374   5.307   8.997  0.00  0.00    +0.000 A 
ATOM      9  C   UNL     1       7.883   6.416   9.711  0.00  0.00    +0.000 A 
ATOM     10  C   UNL     1       8.608   6.987  10.760  0.00  0.00    +0.000 A 
ATOM     11  C   UNL     1       9.842   6.458  11.120  0.00  0.00    +0.000 A 
ATOM     12  C   UNL     1      10.356   5.364  10.427  0.00  0.00    +0.000 A 
ATOM     13  C   UNL     1       9.628   4.795   9.379  0.00  0.00    +0.000 A 
ENDBRANCH   5   8
ENDBRANCH   1   2
BRANCH   1  14
ATOM     14  O   UNL     1       5.581   2.384   3.981  0.00  0.00    +0.000 OA
BRANCH  14  18
ATOM     15  C   UNL     1       3.496   0.248   1.064  0.00  0.00    +0.000 A 
ATOM     16  C   UNL     1       2.926   0.373   2.334  0.00  0.00    +0.000 A 
ATOM     17  C   UNL     1       3.592   1.084   3.336  0.00  0.00    +0.000 A 
ATOM     18  C   UNL     1       4.831   1.677   3.081  0.00  0.00    +0.000 A 
ATOM     19  C   UNL     1       5.398   1.552   1.808  0.00  0.00    +0.000 A 
ATOM     20  C   UNL     1       4.739   0.836   0.804  0.00  0.00    +0.000 A 
BRANCH  15  22
ATOM     21  N   UNL     1       1.472  -0.629   0.032  0.00  0.00    +0.000 N 
ATOM     22  C   UNL     1       2.836  -0.541  -0.006  0.00  0.00    +0.000 C 
ATOM     23  O   UNL     1       3.478  -1.074  -0.902  0.00  0.00    +0.000 OA
ATOM     24  H   UNL     1       1.032  -1.100  -0.748  0.00  0.00    +0.000 HD
ATOM     25  H   UNL     1       0.903  -0.004   0.584  0.00  0.00    +0.000 HD
ENDBRANCH  15  22
ENDBRANCH  14  18
ENDBRANCH   1  14
TORSDOF 5
