REMARK  Name = 
REMARK  5 active torsions:
REMARK  status: ('A' for Active; 'I' for Inactive)
REMARK    1  A    between atoms: C_2  and  C_3
REMARK    2  A    between atoms: C_6  and  N_7
REMARK    3  A    between atoms: N_7  and  C_8
REMARK    4  A    between atoms: C_8  and  C_9
REMARK    5  A    between atoms: C_11  and  C_12
REMARK                            x       y       z     vdW  Elec       q    Type
REMARK                         _______ _______ _______ _____ _____    ______ ____
ROOT
ATOM      1  C   UNL     1       8.749  -0.944  -0.620  0.00  0.00    +0.000 C 
ATOM      2  C   UNL     1       7.818  -1.099   0.580  0.00  0.00    +0.000 C 
ATOM      3  C   UNL     1       7.310  -0.455  -0.668  0.00  0.00    +0.000 C 
ENDROOT
BRANCH   1   4
ATOM      4  C   UNL     1       9.815   0.152  -0.506  0.00  0.00    +0.000 A 
ATOM      5  C   UNL     1       9.980   1.045  -1.563  0.00  0.00    +0.000 A 
ATOM      6  C   UNL     1      10.679   2.246  -1.404  0.00  0.00    +0.000 A 
ATOM      7  C   UNL     1      11.254   2.472  -0.151  0.00  0.00    +0.000 A 
ATOM      8  C   UNL     1      11.145   1.497   0.828  0.00  0.00    +0.000 A 
ATOM      9  N   UNL     1      10.446   0.354   0.677  0.00  0.00    +0.000 NA
BRANCH   6  10
ATOM     10  C   UNL     1      10.781   3.203  -2.528  0.00  0.00    +0.000 A 
ATOM     11  C   UNL     1       9.769   3.299  -3.511  0.00  0.00    +0.000 A 
ATOM     12  C   UNL     1       9.918   4.117  -4.637  0.00  0.00    +0.000 A 
ATOM     13  C   UNL     1      11.062   4.878  -4.790  0.00  0.00    +0.000 A 
ATOM     14  C   UNL     1      12.042   4.835  -3.808  0.00  0.00    +0.000 A 
ATOM     15  F   UNL     1      13.145   5.582  -3.947  0.00  0.00    +0.000 F 
ATOM     16  C   UNL     1      11.912   4.015  -2.691  0.00  0.00    +0.000 A 
ENDBRANCH   6  10
ENDBRANCH   1   4
BRANCH   1  17
ATOM     17  N   UNL     1       9.168  -2.199  -1.242  0.00  0.00    +0.000 N 
ATOM     18  H   UNL     1       9.713  -2.857  -0.690  0.00  0.00    +0.000 HD
BRANCH  17  22
ATOM     19  C   UNL     1       9.392  -3.365  -5.172  0.00  0.00    +0.000 A 
ATOM     20  C   UNL     1       9.920  -4.112  -4.136  0.00  0.00    +0.000 A 
ATOM     21  N   UNL     1       9.863  -3.709  -2.841  0.00  0.00    +0.000 NA
ATOM     22  C   UNL     1       9.247  -2.530  -2.586  0.00  0.00    +0.000 A 
ATOM     23  C   UNL     1       8.715  -1.792  -3.642  0.00  0.00    +0.000 A 
ATOM     24  N   UNL     1       8.780  -2.176  -4.950  0.00  0.00    +0.000 NA
BRANCH  19  26
ATOM     25  N   UNL     1       9.521  -4.285  -7.594  0.00  0.00    +0.000 NA
ATOM     26  C   UNL     1       9.452  -3.844  -6.521  0.00  0.00    +0.000 C 
ENDBRANCH  19  26
ENDBRANCH  17  22
ENDBRANCH   1  17
TORSDOF 5
