REMARK  Name = 
REMARK  7 active torsions:
REMARK  status: ('A' for Active; 'I' for Inactive)
REMARK    1  A    between atoms: C_1  and  O_2
REMARK    2  A    between atoms: O_2  and  C_3
REMARK    3  A    between atoms: C_10  and  C_11
REMARK    4  A    between atoms: N_13  and  C_14
REMARK    5  A    between atoms: C_14  and  C_15
REMARK    6  A    between atoms: C_18  and  C_19
REMARK    7  A    between atoms: C_20  and  C_21
REMARK                            x       y       z     vdW  Elec       q    Type
REMARK                         _______ _______ _______ _____ _____    ______ ____
ROOT
ATOM      1  C   UNL     1       4.167   1.552  -5.064  0.00  0.00    +0.000 C 
ATOM      2  O   UNL     1       4.924   2.036  -4.223  0.00  0.00    +0.000 OA
ATOM      3  N   UNL     1       3.090   0.795  -4.694  0.00  0.00    +0.000 N 
ATOM      4  H   UNL     1       2.424   0.488  -5.389  0.00  0.00    +0.000 HD
ENDROOT
BRANCH   1  12
ATOM      5  C   UNL     1       2.569   0.414  -7.893  0.00  0.00    +0.000 A 
ATOM      6  N   UNL     1       2.181   0.076  -9.139  0.00  0.00    +0.000 NA
ATOM      7  C   UNL     1       2.894   0.542 -10.168  0.00  0.00    +0.000 A 
ATOM      8  N   UNL     1       3.966   1.328 -10.109  0.00  0.00    +0.000 NA
ATOM      9  C   UNL     1       4.319   1.641  -8.851  0.00  0.00    +0.000 A 
ATOM     10  S   UNL     1       5.662   2.645  -8.586  0.00  0.00    +0.000 S 
ATOM     11  C   UNL     1       5.466   2.544  -6.901  0.00  0.00    +0.000 A 
ATOM     12  C   UNL     1       4.394   1.753  -6.505  0.00  0.00    +0.000 A 
ATOM     13  C   UNL     1       3.694   1.232  -7.677  0.00  0.00    +0.000 A 
BRANCH   5  15
ATOM     14  C   UNL     1       1.033  -1.176  -7.115  0.00  0.00    +0.000 C 
ATOM     15  O   UNL     1       1.789  -0.000  -6.834  0.00  0.00    +0.000 OA
ENDBRANCH   5  15
ENDBRANCH   1  12
BRANCH   3  16
ATOM     16  C   UNL     1       2.790   0.511  -3.312  0.00  0.00    +0.000 C 
BRANCH  16  17
ATOM     17  C   UNL     1       1.608  -0.417  -3.193  0.00  0.00    +0.000 A 
ATOM     18  C   UNL     1       1.780  -1.807  -3.244  0.00  0.00    +0.000 A 
ATOM     19  C   UNL     1       0.679  -2.667  -3.144  0.00  0.00    +0.000 A 
ATOM     20  C   UNL     1      -0.617  -2.159  -2.991  0.00  0.00    +0.000 A 
ATOM     21  C   UNL     1      -0.788  -0.768  -2.978  0.00  0.00    +0.000 A 
ATOM     22  C   UNL     1       0.310   0.094  -3.079  0.00  0.00    +0.000 A 
BRANCH  20  23
ATOM     23  C   UNL     1      -1.808  -3.018  -2.918  0.00  0.00    +0.000 C 
ATOM     24  C   UNL     1      -1.848  -4.252  -2.383  0.00  0.00    +0.000 C 
BRANCH  24  25
ATOM     25  C   UNL     1      -3.068  -5.077  -2.331  0.00  0.00    +0.000 A 
ATOM     26  C   UNL     1      -3.028  -6.355  -1.781  0.00  0.00    +0.000 A 
ATOM     27  C   UNL     1      -4.197  -7.115  -1.754  0.00  0.00    +0.000 A 
ATOM     28  C   UNL     1      -5.369  -6.580  -2.272  0.00  0.00    +0.000 A 
ATOM     29  C   UNL     1      -5.323  -5.301  -2.798  0.00  0.00    +0.000 A 
ATOM     30  N   UNL     1      -4.205  -4.544  -2.840  0.00  0.00    +0.000 NA
ENDBRANCH  24  25
ENDBRANCH  20  23
ENDBRANCH  16  17
ENDBRANCH   3  16
TORSDOF 6
