REMARK  Name = 
REMARK  4 active torsions:
REMARK  status: ('A' for Active; 'I' for Inactive)
REMARK    1  A    between atoms: C_2  and  C_4
REMARK    2  A    between atoms: N_8  and  C_9
REMARK    3  A    between atoms: C_9  and  C_10
REMARK    4  A    between atoms: C_14  and  N_15
REMARK                            x       y       z     vdW  Elec       q    Type
REMARK                         _______ _______ _______ _____ _____    ______ ____
ROOT
ATOM      1  C   UNL     1       7.628   2.240  -0.275  0.00  0.00    +0.000 A 
ATOM      2  C   UNL     1       6.975   3.390   0.153  0.00  0.00    +0.000 A 
ATOM      3  C   UNL     1       6.085   4.027  -0.711  0.00  0.00    +0.000 A 
ATOM      4  C   UNL     1       5.873   3.518  -1.988  0.00  0.00    +0.000 A 
ATOM      5  N   UNL     1       4.945   4.020  -2.866  0.00  0.00    +0.000 N 
ATOM      6  N   UNL     1       6.532   2.425  -2.424  0.00  0.00    +0.000 NA
ATOM      7  C   UNL     1       7.397   1.814  -1.572  0.00  0.00    +0.000 A 
ATOM      8  H   UNL     1       5.014   3.551  -3.763  0.00  0.00    +0.000 HD
ENDROOT
BRANCH   1  10
ATOM      9  N   UNL     1       8.305   1.532   1.944  0.00  0.00    +0.000 N 
ATOM     10  C   UNL     1       8.531   1.464   0.596  0.00  0.00    +0.000 C 
ATOM     11  O   UNL     1       9.414   0.754   0.133  0.00  0.00    +0.000 OA
ATOM     12  H   UNL     1       8.850   0.905   2.524  0.00  0.00    +0.000 HD
ATOM     13  H   UNL     1       7.441   1.884   2.330  0.00  0.00    +0.000 HD
ENDBRANCH   1  10
BRANCH   5  14
ATOM     14  C   UNL     1       4.509   5.399  -2.894  0.00  0.00    +0.000 C 
BRANCH  14  15
ATOM     15  C   UNL     1       5.377   6.340  -3.701  0.00  0.00    +0.000 A 
ATOM     16  C   UNL     1       5.002   7.690  -3.740  0.00  0.00    +0.000 A 
ATOM     17  C   UNL     1       5.757   8.611  -4.456  0.00  0.00    +0.000 A 
ATOM     18  C   UNL     1       6.899   8.193  -5.139  0.00  0.00    +0.000 A 
ATOM     19  C   UNL     1       7.320   6.854  -5.135  0.00  0.00    +0.000 A 
ATOM     20  C   UNL     1       6.528   5.944  -4.411  0.00  0.00    +0.000 A 
BRANCH  19  21
ATOM     21  N   UNL     1       8.461   6.466  -5.806  0.00  0.00    +0.000 N 
ATOM     22  C   UNL     1       8.657   5.126  -6.378  0.00  0.00    +0.000 C 
ATOM     23  C   UNL     1       9.928   4.488  -5.798  0.00  0.00    +0.000 C 
ATOM     24  O   UNL     1      11.076   5.332  -6.002  0.00  0.00    +0.000 OA
ATOM     25  C   UNL     1      10.877   6.602  -5.358  0.00  0.00    +0.000 C 
ATOM     26  C   UNL     1       9.642   7.338  -5.908  0.00  0.00    +0.000 C 
ENDBRANCH  19  21
ENDBRANCH  14  15
ENDBRANCH   5  14
TORSDOF 4
