REMARK  Name = 
REMARK  5 active torsions:
REMARK  status: ('A' for Active; 'I' for Inactive)
REMARK    1  A    between atoms: N_1  and  C_2
REMARK    2  A    between atoms: C_2  and  C_3
REMARK    3  A    between atoms: C_3  and  C_4
REMARK    4  A    between atoms: C_7  and  C_8
REMARK    5  A    between atoms: C_8  and  N_9
REMARK                            x       y       z     vdW  Elec       q    Type
REMARK                         _______ _______ _______ _____ _____    ______ ____
ROOT
ATOM      1  C   UNL     1       4.700   1.149   0.910  0.00  0.00    +0.000 A 
ATOM      2  C   UNL     1       5.475   1.005   2.068  0.00  0.00    +0.000 A 
ATOM      3  C   UNL     1       6.869   0.940   1.983  0.00  0.00    +0.000 A 
ATOM      4  C   UNL     1       7.516   1.019   0.741  0.00  0.00    +0.000 A 
ATOM      5  C   UNL     1       6.743   1.158  -0.415  0.00  0.00    +0.000 A 
ATOM      6  C   UNL     1       5.348   1.233  -0.329  0.00  0.00    +0.000 A 
ENDROOT
BRANCH   1   7
ATOM      7  C   UNL     1       3.193   1.207   0.992  0.00  0.00    +0.000 C 
BRANCH   7   8
ATOM      8  C   UNL     1       2.660   2.636   1.136  0.00  0.00    +0.000 C 
BRANCH   8   9
ATOM      9  N   UNL     1       1.197   2.649   1.184  0.00  0.00    +0.000 NA
ATOM     10  H   UNL     1       0.871   3.607   1.306  0.00  0.00    +0.000 HD
ATOM     11  H   UNL     1       0.875   2.132   2.002  0.00  0.00    +0.000 HD
ENDBRANCH   8   9
ENDBRANCH   7   8
ENDBRANCH   1   7
BRANCH   4  12
ATOM     12  C   UNL     1       9.026   0.952   0.649  0.00  0.00    +0.000 C 
BRANCH  12  13
ATOM     13  N   UNL     1       9.528  -0.409   0.486  0.00  0.00    +0.000 N 
ATOM     14  C   UNL     1       9.429  -1.380   1.452  0.00  0.00    +0.000 A 
ATOM     15  C   UNL     1      10.079  -2.494   0.998  0.00  0.00    +0.000 A 
ATOM     16  C   UNL     1      10.893  -2.079  -0.083  0.00  0.00    +0.000 A 
ATOM     17  C   UNL     1      12.000  -2.645  -0.740  0.00  0.00    +0.000 A 
ATOM     18  C   UNL     1      12.580  -1.966  -1.812  0.00  0.00    +0.000 A 
ATOM     19  C   UNL     1      11.991  -0.801  -2.297  0.00  0.00    +0.000 A 
ATOM     20 CL   UNL     1      12.655  -0.045  -3.698  0.00  0.00    +0.000 Cl
ATOM     21  C   UNL     1      10.891  -0.212  -1.663  0.00  0.00    +0.000 A 
ATOM     22  C   UNL     1      10.421  -0.817  -0.497  0.00  0.00    +0.000 A 
ENDBRANCH  12  13
ENDBRANCH   4  12
TORSDOF 5
