REMARK  Name = 
REMARK  6 active torsions:
REMARK  status: ('A' for Active; 'I' for Inactive)
REMARK    1  A    between atoms: C_1  and  C_2
REMARK    2  A    between atoms: C_5  and  C_6
REMARK    3  A    between atoms: C_6  and  C_7
REMARK    4  A    between atoms: C_10  and  C_11
REMARK    5  A    between atoms: C_11  and  N_12
REMARK    6  A    between atoms: C_13  and  C_15
REMARK                            x       y       z     vdW  Elec       q    Type
REMARK                         _______ _______ _______ _____ _____    ______ ____
ROOT
ATOM      1  C   UNL     1      -5.837  -5.064   0.103  0.00  0.00    +0.000 C 
ENDROOT
BRANCH   1   5
ATOM      2  C   UNL     1      -3.995  -1.147   0.013  0.00  0.00    +0.000 A 
ATOM      3  C   UNL     1      -3.802  -1.999   1.109  0.00  0.00    +0.000 A 
ATOM      4  C   UNL     1      -4.420  -3.253   1.154  0.00  0.00    +0.000 A 
ATOM      5  C   UNL     1      -5.233  -3.685   0.099  0.00  0.00    +0.000 A 
ATOM      6  C   UNL     1      -5.467  -2.813  -0.972  0.00  0.00    +0.000 A 
ATOM      7  C   UNL     1      -4.848  -1.560  -1.019  0.00  0.00    +0.000 A 
BRANCH   2   8
ATOM      8  C   UNL     1      -3.271   0.177  -0.070  0.00  0.00    +0.000 C 
BRANCH   8  13
ATOM      9  C   UNL     1       1.723  -0.005  -2.952  0.00  0.00    +0.000 C 
ATOM     10  C   UNL     1       0.450   0.024  -2.161  0.00  0.00    +0.000 A 
ATOM     11  C   UNL     1       0.454  -0.207  -0.789  0.00  0.00    +0.000 A 
ATOM     12  C   UNL     1      -0.756  -0.165  -0.094  0.00  0.00    +0.000 A 
ATOM     13  C   UNL     1      -1.942   0.107  -0.778  0.00  0.00    +0.000 A 
ATOM     14  C   UNL     1      -1.846   0.304  -2.151  0.00  0.00    +0.000 A 
ATOM     15  N   UNL     1      -0.687   0.275  -2.850  0.00  0.00    +0.000 NA
ENDBRANCH   8  13
ENDBRANCH   2   8
ENDBRANCH   1   5
BRANCH   1  16
ATOM     16  N   UNL     1      -7.139  -5.088   0.721  0.00  0.00    +0.000 N 
ATOM     17  C   UNL     1      -7.802  -6.278   0.887  0.00  0.00    +0.000 C 
ATOM     18  O   UNL     1      -7.290  -7.353   0.579  0.00  0.00    +0.000 OA
ATOM     19  H   UNL     1      -7.649  -4.211   0.774  0.00  0.00    +0.000 HD
BRANCH  17  20
ATOM     20  C   UNL     1      -9.132  -6.220   1.504  0.00  0.00    +0.000 A 
ATOM     21  C   UNL     1      -9.640  -7.347   2.137  0.00  0.00    +0.000 A 
ATOM     22  S   UNL     1     -11.187  -7.115   2.814  0.00  0.00    +0.000 S 
ATOM     23  C   UNL     1     -11.253  -5.513   2.246  0.00  0.00    +0.000 A 
ATOM     24  N   UNL     1     -12.354  -4.743   2.458  0.00  0.00    +0.000 NA
ATOM     25  C   UNL     1     -12.282  -3.561   1.947  0.00  0.00    +0.000 A 
ATOM     26  N   UNL     1     -11.207  -3.073   1.252  0.00  0.00    +0.000 N 
ATOM     27  C   UNL     1     -10.058  -3.803   1.042  0.00  0.00    +0.000 A 
ATOM     28  O   UNL     1      -9.092  -3.319   0.463  0.00  0.00    +0.000 OA
ATOM     29  C   UNL     1     -10.098  -5.151   1.575  0.00  0.00    +0.000 A 
ATOM     30  H   UNL     1     -11.208  -2.131   0.890  0.00  0.00    +0.000 HD
ENDBRANCH  17  20
ENDBRANCH   1  16
TORSDOF 5
