REMARK  Name = 
REMARK  6 active torsions:
REMARK  status: ('A' for Active; 'I' for Inactive)
REMARK    1  A    between atoms: C_1  and  C_2
REMARK    2  A    between atoms: C_4  and  C_5
REMARK    3  A    between atoms: C_10  and  O_11
REMARK    4  A    between atoms: O_11  and  C_12
REMARK    5  A    between atoms: C_12  and  C_13
REMARK    6  A    between atoms: C_17  and  C_18
REMARK                            x       y       z     vdW  Elec       q    Type
REMARK                         _______ _______ _______ _____ _____    ______ ____
ROOT
ATOM      1  C   UNL     1       2.328  -2.546   0.003  0.00  0.00    +0.000 C 
ENDROOT
BRANCH   1   2
ATOM      2  C   UNL     1       2.749  -3.996   0.037  0.00  0.00    +0.000 A 
ATOM      3  N   UNL     1       2.953  -4.559   1.244  0.00  0.00    +0.000 NA
ATOM      4  C   UNL     1       3.391  -5.825   1.245  0.00  0.00    +0.000 A 
ATOM      5  C   UNL     1       3.640  -6.539   0.100  0.00  0.00    +0.000 A 
ATOM      6  C   UNL     1       3.427  -5.883  -1.098  0.00  0.00    +0.000 A 
ATOM      7  N   UNL     1       2.978  -4.611  -1.140  0.00  0.00    +0.000 NA
BRANCH   6   8
ATOM      8  C   UNL     1       3.664  -6.522  -2.406  0.00  0.00    +0.000 A 
ATOM      9  C   UNL     1       2.920  -6.144  -3.541  0.00  0.00    +0.000 A 
ATOM     10  C   UNL     1       3.111  -6.765  -4.779  0.00  0.00    +0.000 A 
ATOM     11  C   UNL     1       4.058  -7.776  -4.906  0.00  0.00    +0.000 A 
ATOM     12  C   UNL     1       4.813  -8.144  -3.802  0.00  0.00    +0.000 A 
ATOM     13  F   UNL     1       5.733  -9.109  -3.919  0.00  0.00    +0.000 F 
ATOM     14  C   UNL     1       4.628  -7.530  -2.569  0.00  0.00    +0.000 A 
ENDBRANCH   6   8
ENDBRANCH   1   2
BRANCH   1  15
ATOM     15  O   UNL     1       0.913  -2.398  -0.019  0.00  0.00    +0.000 OA
BRANCH  15  22
ATOM     16  C   UNL     1       2.507   0.356   0.013  0.00  0.00    +0.000 C 
ATOM     17  C   UNL     1       1.023   0.115   0.003  0.00  0.00    +0.000 A 
ATOM     18  C   UNL     1       0.225   1.281   0.005  0.00  0.00    +0.000 A 
ATOM     19  C   UNL     1      -1.175   1.237  -0.007  0.00  0.00    +0.000 A 
ATOM     20  C   UNL     1      -1.802  -0.005  -0.022  0.00  0.00    +0.000 A 
ATOM     21  C   UNL     1      -1.028  -1.172  -0.024  0.00  0.00    +0.000 A 
ATOM     22  C   UNL     1       0.379  -1.135  -0.012  0.00  0.00    +0.000 A 
BRANCH  19  23
ATOM     23  C   UNL     1      -1.903   2.541  -0.006  0.00  0.00    +0.000 C 
ATOM     24  N   UNL     1      -3.263   2.538  -0.024  0.00  0.00    +0.000 N 
ATOM     25  O   UNL     1      -1.298   3.610   0.008  0.00  0.00    +0.000 OA
ATOM     26  H   UNL     1      -3.845   1.716  -0.038  0.00  0.00    +0.000 HD
ATOM     27  H   UNL     1      -3.719   3.441  -0.024  0.00  0.00    +0.000 HD
ENDBRANCH  19  23
ENDBRANCH  15  22
ENDBRANCH   1  15
TORSDOF 5
