REMARK  Name = 
REMARK  6 active torsions:
REMARK  status: ('A' for Active; 'I' for Inactive)
REMARK    1  A    between atoms: C_1  and  O_2
REMARK    2  A    between atoms: O_2  and  C_3
REMARK    3  A    between atoms: C_5  and  C_6
REMARK    4  A    between atoms: C_6  and  N_7
REMARK    5  A    between atoms: C_12  and  C_13
REMARK    6  A    between atoms: C_21  and  N_22
REMARK                            x       y       z     vdW  Elec       q    Type
REMARK                         _______ _______ _______ _____ _____    ______ ____
ROOT
ATOM      1  N   UNL     1       6.022   1.405   3.089  0.00  0.00    +0.000 N 
ATOM      2  C   UNL     1       5.458   2.610   3.431  0.00  0.00    +0.000 A 
ATOM      3  C   UNL     1       6.169   3.605   2.803  0.00  0.00    +0.000 A 
ATOM      4  C   UNL     1       7.217   2.990   2.067  0.00  0.00    +0.000 A 
ATOM      5  C   UNL     1       8.258   3.496   1.257  0.00  0.00    +0.000 A 
ATOM      6  C   UNL     1       9.169   2.611   0.660  0.00  0.00    +0.000 A 
ATOM      7  C   UNL     1       9.027   1.233   0.865  0.00  0.00    +0.000 A 
ATOM      8  C   UNL     1       7.999   0.709   1.658  0.00  0.00    +0.000 A 
ATOM      9  C   UNL     1       7.107   1.610   2.257  0.00  0.00    +0.000 A 
ENDROOT
BRANCH   6  10
ATOM     10  C   UNL     1      10.306   3.070  -0.191  0.00  0.00    +0.000 C 
ATOM     11  N   UNL     1      10.470   4.410  -0.407  0.00  0.00    +0.000 N 
ATOM     12  O   UNL     1      11.093   2.275  -0.692  0.00  0.00    +0.000 OA
ATOM     13  H   UNL     1       9.880   5.139  -0.042  0.00  0.00    +0.000 HD
ATOM     14  H   UNL     1      11.253   4.682  -0.988  0.00  0.00    +0.000 HD
ENDBRANCH   6  10
BRANCH   1  15
ATOM     15  C   UNL     1       5.584   0.119   3.622  0.00  0.00    +0.000 C 
BRANCH  15  18
ATOM     16  C   UNL     1       2.911  -0.812   1.014  0.00  0.00    +0.000 A 
ATOM     17  C   UNL     1       3.936  -0.096   1.645  0.00  0.00    +0.000 A 
ATOM     18  C   UNL     1       4.502  -0.568   2.832  0.00  0.00    +0.000 A 
ATOM     19  C   UNL     1       4.006  -1.776   3.314  0.00  0.00    +0.000 A 
ATOM     20  N   UNL     1       3.041  -2.510   2.717  0.00  0.00    +0.000 NA
ATOM     21  C   UNL     1       2.518  -2.033   1.571  0.00  0.00    +0.000 A 
BRANCH  21  22
ATOM     22  N   UNL     1       1.570  -2.870   0.986  0.00  0.00    +0.000 N 
ATOM     23  H   UNL     1       1.530  -3.705   1.566  0.00  0.00    +0.000 HD
ATOM     24  H   UNL     1       1.846  -3.092   0.034  0.00  0.00    +0.000 HD
ENDBRANCH  21  22
BRANCH  16  26
ATOM     25  C   UNL     1       1.028  -0.356  -0.332  0.00  0.00    +0.000 C 
ATOM     26  O   UNL     1       2.437  -0.251  -0.143  0.00  0.00    +0.000 OA
ENDBRANCH  16  26
ENDBRANCH  15  18
ENDBRANCH   1  15
TORSDOF 5
