REMARK  Name = 
REMARK  6 active torsions:
REMARK  status: ('A' for Active; 'I' for Inactive)
REMARK    1  A    between atoms: C_1  and  C_2
REMARK    2  A    between atoms: C_4  and  C_5
REMARK    3  A    between atoms: C_10  and  N_11
REMARK    4  A    between atoms: N_11  and  C_12
REMARK    5  A    between atoms: C_12  and  C_13
REMARK    6  A    between atoms: C_17  and  C_18
REMARK                            x       y       z     vdW  Elec       q    Type
REMARK                         _______ _______ _______ _____ _____    ______ ____
ROOT
ATOM      1  N   UNL     1      -1.058   2.200  -0.093  0.00  0.00    +0.000 N 
ATOM      2  H   UNL     1      -0.435   2.997   0.011  0.00  0.00    +0.000 HD
ENDROOT
BRANCH   1   9
ATOM      3  C   UNL     1       1.781   2.007  -0.805  0.00  0.00    +0.000 C 
ATOM      4  C   UNL     1       0.938   0.823  -0.417  0.00  0.00    +0.000 A 
ATOM      5  C   UNL     1       1.530  -0.449  -0.483  0.00  0.00    +0.000 A 
ATOM      6  C   UNL     1       0.787  -1.563  -0.117  0.00  0.00    +0.000 A 
ATOM      7  N   UNL     1      -0.497  -1.497   0.317  0.00  0.00    +0.000 NA
ATOM      8  C   UNL     1      -1.046  -0.247   0.354  0.00  0.00    +0.000 A 
ATOM      9  C   UNL     1      -0.403   0.949   0.000  0.00  0.00    +0.000 A 
BRANCH   6  10
ATOM     10  C   UNL     1       1.428  -2.915  -0.232  0.00  0.00    +0.000 C 
ATOM     11  N   UNL     1       0.670  -3.982   0.161  0.00  0.00    +0.000 N 
ATOM     12  O   UNL     1       2.568  -3.067  -0.657  0.00  0.00    +0.000 OA
ATOM     13  H   UNL     1      -0.273  -3.843   0.498  0.00  0.00    +0.000 HD
ATOM     14  H   UNL     1       1.065  -4.909   0.088  0.00  0.00    +0.000 HD
ENDBRANCH   6  10
ENDBRANCH   1   9
BRANCH   1  15
ATOM     15  C   UNL     1      -2.501   2.454   0.075  0.00  0.00    +0.000 C 
ATOM     16  C   UNL     1      -3.526   1.598  -0.648  0.00  0.00    +0.000 C 
ATOM     17  C   UNL     1      -3.267   2.979  -1.141  0.00  0.00    +0.000 C 
BRANCH  15  18
ATOM     18  C   UNL     1      -2.868   3.140   1.393  0.00  0.00    +0.000 A 
ATOM     19  C   UNL     1      -3.453   2.433   2.454  0.00  0.00    +0.000 A 
ATOM     20  C   UNL     1      -3.835   3.070   3.640  0.00  0.00    +0.000 A 
ATOM     21  C   UNL     1      -3.628   4.439   3.796  0.00  0.00    +0.000 A 
ATOM     22  C   UNL     1      -3.041   5.173   2.766  0.00  0.00    +0.000 A 
ATOM     23  C   UNL     1      -2.666   4.526   1.579  0.00  0.00    +0.000 A 
BRANCH  22  24
ATOM     24  C   UNL     1      -2.832   6.584   2.918  0.00  0.00    +0.000 C 
ATOM     25  N   UNL     1      -2.667   7.727   3.044  0.00  0.00    +0.000 NA
ENDBRANCH  22  24
ENDBRANCH  15  18
ENDBRANCH   1  15
TORSDOF 5
