REMARK  Name = 
REMARK  10 active torsions:
REMARK  status: ('A' for Active; 'I' for Inactive)
REMARK    1  A    between atoms: C_1  and  C_2
REMARK    2  A    between atoms: C_2  and  C_3
REMARK    3  A    between atoms: C_2  and  N_4
REMARK    4  A    between atoms: C_5  and  C_7
REMARK    5  A    between atoms: C_11  and  O_12
REMARK    6  A    between atoms: O_12  and  C_13
REMARK    7  A    between atoms: C_13  and  C_14
REMARK    8  A    between atoms: C_14  and  C_15
REMARK    9  A    between atoms: C_14  and  C_16
REMARK   10  A    between atoms: C_14  and  C_17
REMARK                            x       y       z     vdW  Elec       q    Type
REMARK                         _______ _______ _______ _____ _____    ______ ____
ROOT
ATOM      1  C   UNL     1       6.041   3.554   2.313  0.00  0.00    +0.000 A 
ATOM      2  C   UNL     1       5.431   2.463   1.744  0.00  0.00    +0.000 A 
ATOM      3  N   UNL     1       4.592   1.674   2.437  0.00  0.00    +0.000 NA
ATOM      4  N   UNL     1       4.326   1.987   3.731  0.00  0.00    +0.000 NA
ATOM      5  C   UNL     1       4.877   3.062   4.320  0.00  0.00    +0.000 A 
ATOM      6  C   UNL     1       5.766   3.890   3.640  0.00  0.00    +0.000 A 
ENDROOT
BRANCH   1   8
ATOM      7  N   UNL     1       7.978   5.004   2.114  0.00  0.00    +0.000 N 
ATOM      8  C   UNL     1       6.944   4.362   1.463  0.00  0.00    +0.000 C 
ATOM      9  O   UNL     1       6.744   4.413   0.260  0.00  0.00    +0.000 OA
ATOM     10  H   UNL     1       8.160   4.797   3.088  0.00  0.00    +0.000 HD
BRANCH   7  12
ATOM     11  C   UNL     1       9.503   6.915   2.270  0.00  0.00    +0.000 C 
ATOM     12  C   UNL     1       8.963   5.794   1.386  0.00  0.00    +0.000 C 
ATOM     13  C   UNL     1      10.121   4.934   0.880  0.00  0.00    +0.000 C 
ENDBRANCH   7  12
ENDBRANCH   1   8
BRANCH   5  14
ATOM     14  O   UNL     1       4.529   3.325   5.630  0.00  0.00    +0.000 OA
BRANCH  14  15
ATOM     15  C   UNL     1       3.585   2.347   6.166  0.00  0.00    +0.000 C 
BRANCH  15  16
ATOM     16  C   UNL     1       3.230   2.692   7.643  0.00  0.00    +0.000 C 
ATOM     17  C   UNL     1       4.513   2.686   8.505  0.00  0.00    +0.000 C 
ATOM     18  C   UNL     1       2.670   4.136   7.665  0.00  0.00    +0.000 C 
BRANCH  16  19
ATOM     19  C   UNL     1       2.260   1.645   8.231  0.00  0.00    +0.000 A 
ATOM     20  C   UNL     1       2.635   0.287   8.302  0.00  0.00    +0.000 A 
ATOM     21  C   UNL     1       1.804  -0.671   8.891  0.00  0.00    +0.000 A 
ATOM     22  C   UNL     1       0.582  -0.292   9.432  0.00  0.00    +0.000 A 
ATOM     23  C   UNL     1       0.185   1.038   9.369  0.00  0.00    +0.000 A 
ATOM     24  C   UNL     1       1.010   1.995   8.769  0.00  0.00    +0.000 A 
ENDBRANCH  16  19
ENDBRANCH  15  16
ENDBRANCH  14  15
ENDBRANCH   5  14
TORSDOF 6
