REMARK  Name = 
REMARK  7 active torsions:
REMARK  status: ('A' for Active; 'I' for Inactive)
REMARK    1  A    between atoms: C_2  and  C_19
REMARK    2  A    between atoms: N_3  and  C_4
REMARK    3  A    between atoms: C_4  and  C_5
REMARK    4  A    between atoms: C_8  and  C_9
REMARK    5  A    between atoms: C_9  and  N_10
REMARK    6  A    between atoms: N_10  and  C_11
REMARK    7  A    between atoms: C_14  and  O_15
REMARK                            x       y       z     vdW  Elec       q    Type
REMARK                         _______ _______ _______ _____ _____    ______ ____
ROOT
ATOM      1  C   UNL     1       8.838   8.898   9.784  0.00  0.00    +0.000 C 
ENDROOT
BRANCH   1   2
ATOM      2  C   UNL     1       8.246   9.155   8.422  0.00  0.00    +0.000 A 
ATOM      3  C   UNL     1       8.333   8.181   7.422  0.00  0.00    +0.000 A 
ATOM      4  C   UNL     1       7.748   8.393   6.170  0.00  0.00    +0.000 A 
ATOM      5  C   UNL     1       7.070   9.587   5.887  0.00  0.00    +0.000 A 
ATOM      6  C   UNL     1       7.020  10.579   6.877  0.00  0.00    +0.000 A 
ATOM      7  C   UNL     1       7.608  10.369   8.129  0.00  0.00    +0.000 A 
BRANCH   5   8
ATOM      8  C   UNL     1       6.434   9.812   4.531  0.00  0.00    +0.000 C 
BRANCH   8   9
ATOM      9  N   UNL     1       5.411   8.795   4.242  0.00  0.00    +0.000 NA
ATOM     10  H   UNL     1       4.778   8.779   5.046  0.00  0.00    +0.000 HD
BRANCH   9  11
ATOM     11  C   UNL     1       4.621   9.102   3.037  0.00  0.00    +0.000 C 
ATOM     12  C   UNL     1       5.444   9.045   1.733  0.00  0.00    +0.000 C 
ATOM     13  C   UNL     1       4.960   7.824   0.948  0.00  0.00    +0.000 C 
ATOM     14  C   UNL     1       4.212   6.974   1.962  0.00  0.00    +0.000 C 
ATOM     15  C   UNL     1       3.546   8.013   2.854  0.00  0.00    +0.000 C 
BRANCH  14  16
ATOM     16  O   UNL     1       5.120   6.169   2.705  0.00  0.00    +0.000 OA
ATOM     17  H   UNL     1       5.515   6.736   3.399  0.00  0.00    +0.000 HD
ENDBRANCH  14  16
ENDBRANCH   9  11
ENDBRANCH   8   9
ENDBRANCH   5   8
ENDBRANCH   1   2
BRANCH   1  20
ATOM     18  O   UNL     1      11.042   7.170   9.478  0.00  0.00    +0.000 OA
ATOM     19  C   UNL     1      11.244   8.368   9.654  0.00  0.00    +0.000 C 
ATOM     20  N   UNL     1      10.228   9.267   9.845  0.00  0.00    +0.000 N 
ATOM     21  H   UNL     1      10.428  10.260   9.818  0.00  0.00    +0.000 HD
BRANCH  19  22
ATOM     22  C   UNL     1      12.608   8.908   9.733  0.00  0.00    +0.000 A 
ATOM     23  C   UNL     1      13.667   8.065  10.043  0.00  0.00    +0.000 A 
ATOM     24  S   UNL     1      15.177   8.856  10.100  0.00  0.00    +0.000 S 
ATOM     25  C   UNL     1      14.475  10.345   9.673  0.00  0.00    +0.000 A 
ATOM     26  N   UNL     1      15.238  11.461   9.515  0.00  0.00    +0.000 NA
ATOM     27  C   UNL     1      14.583  12.513   9.155  0.00  0.00    +0.000 A 
ATOM     28  N   UNL     1      13.230  12.553   8.948  0.00  0.00    +0.000 N 
ATOM     29  C   UNL     1      12.410  11.474   9.178  0.00  0.00    +0.000 A 
ATOM     30  O   UNL     1      11.187  11.592   9.132  0.00  0.00    +0.000 OA
ATOM     31  C   UNL     1      13.102  10.249   9.525  0.00  0.00    +0.000 A 
ATOM     32  H   UNL     1      12.768  13.416   8.706  0.00  0.00    +0.000 HD
ENDBRANCH  19  22
ENDBRANCH   1  20
TORSDOF 7
