REMARK  Name = 
REMARK  10 active torsions:
REMARK  status: ('A' for Active; 'I' for Inactive)
REMARK    1  A    between atoms: C_1  and  C_2
REMARK    2  A    between atoms: C_2  and  C_3
REMARK    3  A    between atoms: C_3  and  N_4
REMARK    4  A    between atoms: C_3  and  C_20
REMARK    5  A    between atoms: N_4  and  C_5
REMARK    6  A    between atoms: C_5  and  C_6
REMARK    7  A    between atoms: C_9  and  C_10
REMARK    8  A    between atoms: C_10  and  O_11
REMARK    9  A    between atoms: O_11  and  C_12
REMARK   10  A    between atoms: C_12  and  C_13
REMARK                            x       y       z     vdW  Elec       q    Type
REMARK                         _______ _______ _______ _____ _____    ______ ____
ROOT
ATOM      1  N   UNL     1       2.484  -2.258  -0.636  0.00  0.00    +0.000 NA
ATOM      2  H   UNL     1       2.976  -3.135  -0.479  0.00  0.00    +0.000 HD
ENDROOT
BRANCH   1   3
ATOM      3  C   UNL     1       2.911  -1.280   0.374  0.00  0.00    +0.000 C 
BRANCH   3   4
ATOM      4  C   UNL     1       2.327   0.081   0.015  0.00  0.00    +0.000 A 
ATOM      5  C   UNL     1       1.128   0.575   0.511  0.00  0.00    +0.000 A 
ATOM      6  S   UNL     1       0.693   2.092  -0.129  0.00  0.00    +0.000 S 
ATOM      7  C   UNL     1       2.104   2.157  -1.071  0.00  0.00    +0.000 A 
ATOM      8  N   UNL     1       2.355   3.228  -1.873  0.00  0.00    +0.000 NA
ATOM      9  C   UNL     1       3.454   3.136  -2.544  0.00  0.00    +0.000 A 
ATOM     10  N   UNL     1       4.322   2.077  -2.490  0.00  0.00    +0.000 N 
ATOM     11  C   UNL     1       4.132   0.981  -1.672  0.00  0.00    +0.000 A 
ATOM     12  O   UNL     1       4.971   0.089  -1.601  0.00  0.00    +0.000 OA
ATOM     13  C   UNL     1       2.902   1.035  -0.907  0.00  0.00    +0.000 A 
ATOM     14  H   UNL     1       5.175   2.077  -3.027  0.00  0.00    +0.000 HD
ENDBRANCH   3   4
BRANCH   3  16
ATOM     15  C   UNL     1       3.212  -3.008   2.282  0.00  0.00    +0.000 C 
ATOM     16  C   UNL     1       2.622  -1.676   1.842  0.00  0.00    +0.000 C 
ENDBRANCH   3  16
ENDBRANCH   1   3
BRANCH   1  17
ATOM     17  C   UNL     1       1.047  -2.507  -0.685  0.00  0.00    +0.000 C 
BRANCH  17  18
ATOM     18  C   UNL     1       0.666  -3.482  -1.773  0.00  0.00    +0.000 A 
ATOM     19  C   UNL     1       1.125  -4.804  -1.761  0.00  0.00    +0.000 A 
ATOM     20  C   UNL     1       0.738  -5.692  -2.766  0.00  0.00    +0.000 A 
ATOM     21  C   UNL     1      -0.122  -5.279  -3.793  0.00  0.00    +0.000 A 
ATOM     22  C   UNL     1      -0.602  -3.965  -3.790  0.00  0.00    +0.000 A 
ATOM     23  C   UNL     1      -0.208  -3.075  -2.793  0.00  0.00    +0.000 A 
BRANCH  21  24
ATOM     24  C   UNL     1      -0.506  -6.227  -4.895  0.00  0.00    +0.000 C 
BRANCH  24  25
ATOM     25  O   UNL     1      -1.146  -7.354  -4.313  0.00  0.00    +0.000 OA
BRANCH  25  26
ATOM     26  C   UNL     1      -1.546  -8.292  -5.306  0.00  0.00    +0.000 C 
BRANCH  26  27
ATOM     27  C   UNL     1      -2.206  -9.415  -4.591  0.00  0.00    +0.000 A 
ATOM     28  C   UNL     1      -2.771 -10.587  -5.059  0.00  0.00    +0.000 A 
ATOM     29  C   UNL     1      -3.263 -11.301  -3.942  0.00  0.00    +0.000 A 
ATOM     30  C   UNL     1      -2.988 -10.553  -2.820  0.00  0.00    +0.000 A 
ATOM     31  N   UNL     1      -2.350  -9.413  -3.223  0.00  0.00    +0.000 N 
ATOM     32  H   UNL     1      -2.020  -8.659  -2.630  0.00  0.00    +0.000 HD
ENDBRANCH  26  27
ENDBRANCH  25  26
ENDBRANCH  24  25
ENDBRANCH  21  24
ENDBRANCH  17  18
ENDBRANCH   1  17
TORSDOF 9
