REMARK  Name = 
REMARK  5 active torsions:
REMARK  status: ('A' for Active; 'I' for Inactive)
REMARK    1  A    between atoms: C_2  and  C_3
REMARK    2  A    between atoms: C_6  and  C_7
REMARK    3  A    between atoms: C_7  and  N_8
REMARK    4  A    between atoms: N_8  and  C_9
REMARK    5  A    between atoms: C_13  and  C_14
REMARK                            x       y       z     vdW  Elec       q    Type
REMARK                         _______ _______ _______ _____ _____    ______ ____
ROOT
ATOM      1  N   UNL     1       4.379  -1.344  -0.028  0.00  0.00    +0.000 N 
ATOM      2  H   UNL     1       3.751  -2.080   0.287  0.00  0.00    +0.000 HD
ENDROOT
BRANCH   1   3
ATOM      3  C   UNL     1       5.706  -1.621   0.326  0.00  0.00    +0.000 A 
ATOM      4  C   UNL     1       6.647  -0.644   0.673  0.00  0.00    +0.000 A 
ATOM      5  C   UNL     1       7.962  -0.988   0.997  0.00  0.00    +0.000 A 
ATOM      6  C   UNL     1       8.366  -2.320   0.952  0.00  0.00    +0.000 A 
ATOM      7  C   UNL     1       7.463  -3.315   0.563  0.00  0.00    +0.000 A 
ATOM      8  C   UNL     1       6.150  -2.951   0.226  0.00  0.00    +0.000 A 
BRANCH   7   9
ATOM      9  C   UNL     1       7.943  -4.728   0.563  0.00  0.00    +0.000 C 
ATOM     10  N   UNL     1       7.078  -5.719   0.188  0.00  0.00    +0.000 N 
ATOM     11  O   UNL     1       9.083  -5.015   0.907  0.00  0.00    +0.000 OA
ATOM     12  H   UNL     1       6.131  -5.586  -0.125  0.00  0.00    +0.000 HD
ATOM     13  H   UNL     1       7.431  -6.666   0.231  0.00  0.00    +0.000 HD
ENDBRANCH   7   9
ENDBRANCH   1   3
BRANCH   1  14
ATOM     14  C   UNL     1       3.832  -0.015   0.200  0.00  0.00    +0.000 C 
BRANCH  14  18
ATOM     15  C   UNL     1      -0.365   0.208  -0.846  0.00  0.00    +0.000 A 
ATOM     16  C   UNL     1       0.018  -0.182   0.442  0.00  0.00    +0.000 A 
ATOM     17  C   UNL     1       1.374  -0.280   0.775  0.00  0.00    +0.000 A 
ATOM     18  C   UNL     1       2.365   0.022  -0.172  0.00  0.00    +0.000 A 
ATOM     19  C   UNL     1       1.971   0.377  -1.471  0.00  0.00    +0.000 A 
ATOM     20  C   UNL     1       0.617   0.477  -1.804  0.00  0.00    +0.000 A 
BRANCH  15  22
ATOM     21  N   UNL     1      -2.880   0.454  -1.444  0.00  0.00    +0.000 NA
ATOM     22  C   UNL     1      -1.755   0.339  -1.178  0.00  0.00    +0.000 C 
ENDBRANCH  15  22
ENDBRANCH  14  18
ENDBRANCH   1  14
TORSDOF 5
