REMARK  Name = 
REMARK  8 active torsions:
REMARK  status: ('A' for Active; 'I' for Inactive)
REMARK    1  A    between atoms: C_1  and  C_2
REMARK    2  A    between atoms: C_2  and  C_3
REMARK    3  A    between atoms: C_2  and  C_4
REMARK    4  A    between atoms: C_2  and  C_5
REMARK    5  A    between atoms: C_9  and  C_10
REMARK    6  A    between atoms: C_10  and  O_12
REMARK    7  A    between atoms: N_16  and  C_17
REMARK    8  A    between atoms: C_17  and  C_18
REMARK                            x       y       z     vdW  Elec       q    Type
REMARK                         _______ _______ _______ _____ _____    ______ ____
ROOT
ATOM      1  C   UNL     1       3.002  -1.260  -0.558  0.00  0.00    +0.000 A 
ATOM      2  N   UNL     1       3.823  -1.339  -1.602  0.00  0.00    +0.000 NA
ATOM      3  C   UNL     1       3.937  -2.662  -1.917  0.00  0.00    +0.000 A 
ATOM      4  C   UNL     1       4.671  -3.316  -2.916  0.00  0.00    +0.000 A 
ATOM      5  C   UNL     1       4.558  -4.712  -2.972  0.00  0.00    +0.000 A 
ATOM      6  C   UNL     1       3.718  -5.365  -2.070  0.00  0.00    +0.000 A 
ATOM      7  N   UNL     1       3.008  -4.769  -1.078  0.00  0.00    +0.000 NA
ATOM      8  C   UNL     1       3.168  -3.430  -1.062  0.00  0.00    +0.000 A 
ATOM      9  N   UNL     1       2.617  -2.539  -0.168  0.00  0.00    +0.000 N 
ENDROOT
BRANCH   1  11
ATOM     10  C   UNL     1       3.294   1.236  -0.666  0.00  0.00    +0.000 C 
ATOM     11  C   UNL     1       2.596   0.070   0.082  0.00  0.00    +0.000 C 
ATOM     12  C   UNL     1       3.052   0.148   1.545  0.00  0.00    +0.000 C 
ATOM     13  C   UNL     1       1.084   0.329  -0.037  0.00  0.00    +0.000 C 
ENDBRANCH   1  11
BRANCH   5  14
ATOM     14  C   UNL     1       5.261  -5.535  -3.977  0.00  0.00    +0.000 C 
ATOM     15  O   UNL     1       4.818  -6.599  -4.374  0.00  0.00    +0.000 OA
BRANCH  14  16
ATOM     16  O   UNL     1       6.447  -5.038  -4.379  0.00  0.00    +0.000 OA
ATOM     17  H   UNL     1       6.788  -4.275  -3.877  0.00  0.00    +0.000 HD
ENDBRANCH  14  16
ENDBRANCH   5  14
BRANCH   9  18
ATOM     18  C   UNL     1       1.735  -2.975   0.904  0.00  0.00    +0.000 C 
BRANCH  18  19
ATOM     19  C   UNL     1       2.422  -3.269   2.213  0.00  0.00    +0.000 A 
ATOM     20  C   UNL     1       1.773  -2.972   3.421  0.00  0.00    +0.000 A 
ATOM     21  C   UNL     1       2.359  -3.321   4.634  0.00  0.00    +0.000 A 
ATOM     22  C   UNL     1       3.580  -3.969   4.607  0.00  0.00    +0.000 A 
ATOM     23  N   UNL     1       4.239  -4.271   3.470  0.00  0.00    +0.000 NA
ATOM     24  C   UNL     1       3.645  -3.925   2.304  0.00  0.00    +0.000 A 
ENDBRANCH  18  19
ENDBRANCH   9  18
TORSDOF 5
