REMARK  Name = 
REMARK  10 active torsions:
REMARK  status: ('A' for Active; 'I' for Inactive)
REMARK    1  A    between atoms: N_1  and  C_2
REMARK    2  A    between atoms: C_2  and  C_3
REMARK    3  A    between atoms: C_3  and  C_4
REMARK    4  A    between atoms: C_4  and  C_5
REMARK    5  A    between atoms: C_5  and  N_6
REMARK    6  A    between atoms: N_6  and  C_7
REMARK    7  A    between atoms: C_7  and  C_8
REMARK    8  A    between atoms: C_8  and  C_9
REMARK    9  A    between atoms: N_11  and  C_12
REMARK   10  A    between atoms: C_12  and  C_13
REMARK                            x       y       z     vdW  Elec       q    Type
REMARK                         _______ _______ _______ _____ _____    ______ ____
ROOT
ATOM      1  C   UNL     1       8.984  -5.516   0.942  0.00  0.00    +0.000 A 
ATOM      2  C   UNL     1      10.203  -5.837   1.512  0.00  0.00    +0.000 A 
ATOM      3  N   UNL     1      10.279  -7.205   1.640  0.00  0.00    +0.000 N 
ATOM      4  C   UNL     1       9.152  -7.787   1.101  0.00  0.00    +0.000 A 
ATOM      5  C   UNL     1       8.758  -9.121   0.960  0.00  0.00    +0.000 A 
ATOM      6  C   UNL     1       7.515  -9.340   0.372  0.00  0.00    +0.000 A 
ATOM      7  C   UNL     1       6.757  -8.250  -0.029  0.00  0.00    +0.000 A 
ATOM      8  N   UNL     1       7.117  -6.956   0.091  0.00  0.00    +0.000 NA
ATOM      9  C   UNL     1       8.331  -6.749   0.662  0.00  0.00    +0.000 A 
ENDROOT
BRANCH   1  10
ATOM     10  C   UNL     1       8.456  -4.140   0.677  0.00  0.00    +0.000 C 
BRANCH  10  11
ATOM     11  C   UNL     1       7.162  -3.862   1.452  0.00  0.00    +0.000 C 
BRANCH  11  12
ATOM     12  N   UNL     1       6.679  -2.491   1.234  0.00  0.00    +0.000 NA
ATOM     13  H   UNL     1       7.388  -1.826   1.539  0.00  0.00    +0.000 HD
BRANCH  12  14
ATOM     14  C   UNL     1       5.444  -2.284   1.989  0.00  0.00    +0.000 C 
BRANCH  14  15
ATOM     15  C   UNL     1       4.916  -0.872   1.754  0.00  0.00    +0.000 C 
BRANCH  15  16
ATOM     16  C   UNL     1       3.629  -0.649   2.548  0.00  0.00    +0.000 C 
BRANCH  16  17
ATOM     17  C   UNL     1       3.089   0.759   2.326  0.00  0.00    +0.000 C 
BRANCH  17  18
ATOM     18  N   UNL     1       1.865   0.950   3.093  0.00  0.00    +0.000 NA
ATOM     19  H   UNL     1       1.542   1.910   2.979  0.00  0.00    +0.000 HD
ATOM     20  H   UNL     1       2.059   0.828   4.086  0.00  0.00    +0.000 HD
ENDBRANCH  17  18
ENDBRANCH  16  17
ENDBRANCH  15  16
ENDBRANCH  14  15
ENDBRANCH  12  14
ENDBRANCH  11  12
ENDBRANCH  10  11
ENDBRANCH   1  10
BRANCH   3  21
ATOM     21  C   UNL     1      11.421  -7.921   2.190  0.00  0.00    +0.000 C 
BRANCH  21  22
ATOM     22  C   UNL     1      11.274  -8.157   3.670  0.00  0.00    +0.000 A 
ATOM     23  N   UNL     1      10.641  -9.280   4.075  0.00  0.00    +0.000 NA
ATOM     24  C   UNL     1      10.556  -9.480   5.405  0.00  0.00    +0.000 A 
ATOM     25  C   UNL     1      11.086  -8.622   6.338  0.00  0.00    +0.000 A 
ATOM     26  C   UNL     1      11.721  -7.515   5.829  0.00  0.00    +0.000 A 
ATOM     27  N   UNL     1      11.833  -7.260   4.511  0.00  0.00    +0.000 NA
ENDBRANCH  21  22
ENDBRANCH   3  21
TORSDOF 10
