REMARK  Name = 
REMARK  6 active torsions:
REMARK  status: ('A' for Active; 'I' for Inactive)
REMARK    1  A    between atoms: C_2  and  C_3
REMARK    2  A    between atoms: N_7  and  C_8
REMARK    3  A    between atoms: C_8  and  C_9
REMARK    4  A    between atoms: C_9  and  C_12
REMARK    5  A    between atoms: C_16  and  N_17
REMARK    6  A    between atoms: N_17  and  C_18
REMARK                            x       y       z     vdW  Elec       q    Type
REMARK                         _______ _______ _______ _____ _____    ______ ____
ROOT
ATOM      1  C   UNL     1       5.791   1.066  -0.064  0.00  0.00    +0.000 C 
ATOM      2  F   UNL     1       4.502   1.156   0.384  0.00  0.00    +0.000 F 
ATOM      3  F   UNL     1       6.386   0.147   0.762  0.00  0.00    +0.000 F 
ENDROOT
BRANCH   1   4
ATOM      4  C   UNL     1       6.492   2.409  -0.013  0.00  0.00    +0.000 A 
ATOM      5  C   UNL     1       5.788   3.593  -0.269  0.00  0.00    +0.000 A 
ATOM      6  C   UNL     1       6.434   4.825  -0.189  0.00  0.00    +0.000 A 
ATOM      7  C   UNL     1       7.791   4.885   0.142  0.00  0.00    +0.000 A 
ATOM      8  C   UNL     1       8.518   3.718   0.405  0.00  0.00    +0.000 A 
ATOM      9  C   UNL     1       7.855   2.489   0.325  0.00  0.00    +0.000 A 
BRANCH   8  10
ATOM     10  N   UNL     1       9.845   3.826   0.855  0.00  0.00    +0.000 N 
ATOM     11  H   UNL     1      10.423   4.448   0.293  0.00  0.00    +0.000 HD
BRANCH  10  12
ATOM     12  C   UNL     1      10.531   2.894   1.701  0.00  0.00    +0.000 C 
ATOM     13  C   UNL     1      11.996   3.275   2.011  0.00  0.00    +0.000 C 
ATOM     14  N   UNL     1      12.373   1.852   1.819  0.00  0.00    +0.000 NA
ATOM     15  C   UNL     1      11.152   1.676   0.994  0.00  0.00    +0.000 C 
ATOM     16  H   UNL     1      12.348   1.314   2.686  0.00  0.00    +0.000 HD
ENDBRANCH  10  12
ENDBRANCH   8  10
ENDBRANCH   1   4
BRANCH   1  17
ATOM     17  C   UNL     1       5.777   0.476  -1.495  0.00  0.00    +0.000 C 
BRANCH  17  22
ATOM     18  C   UNL     1       4.788  -2.831  -5.109  0.00  0.00    +0.000 A 
ATOM     19  C   UNL     1       5.368  -1.590  -5.027  0.00  0.00    +0.000 A 
ATOM     20  N   UNL     1       5.494  -0.900  -3.873  0.00  0.00    +0.000 NA
ATOM     21  C   UNL     1       5.032  -1.480  -2.755  0.00  0.00    +0.000 A 
ATOM     22  N   UNL     1       5.063  -0.796  -1.569  0.00  0.00    +0.000 N 
ATOM     23  N   UNL     1       4.484  -2.702  -2.729  0.00  0.00    +0.000 NA
ATOM     24  C   UNL     1       4.356  -3.348  -3.910  0.00  0.00    +0.000 A 
ATOM     25  H   UNL     1       5.010  -1.394  -0.753  0.00  0.00    +0.000 HD
BRANCH  18  27
ATOM     26  N   UNL     1       4.514  -4.082  -7.353  0.00  0.00    +0.000 NA
ATOM     27  C   UNL     1       4.637  -3.522  -6.340  0.00  0.00    +0.000 C 
ENDBRANCH  18  27
ENDBRANCH  17  22
ENDBRANCH   1  17
TORSDOF 6
