REMARK  Name = 
REMARK  8 active torsions:
REMARK  status: ('A' for Active; 'I' for Inactive)
REMARK    1  A    between atoms: C_1  and  O_2
REMARK    2  A    between atoms: O_2  and  C_3
REMARK    3  A    between atoms: C_5  and  C_6
REMARK    4  A    between atoms: C_11  and  C_12
REMARK    5  A    between atoms: C_12  and  C_13
REMARK    6  A    between atoms: C_15  and  C_16
REMARK    7  A    between atoms: C_19  and  S_20
REMARK    8  A    between atoms: S_20  and  C_21
REMARK                            x       y       z     vdW  Elec       q    Type
REMARK                         _______ _______ _______ _____ _____    ______ ____
ROOT
ATOM      1  C   UNL     1       4.500   0.099   1.799  0.00  0.00    +0.000 C 
ATOM      2  C   UNL     1       5.999   0.266   2.010  0.00  0.00    +0.000 C 
ATOM      3  C   UNL     1       3.645   0.479   3.002  0.00  0.00    +0.000 C 
ATOM      4  C   UNL     1       3.664   1.394   1.813  0.00  0.00    +0.000 C 
ENDROOT
BRANCH   1  10
ATOM      5  C   UNL     1       3.622  -1.434  -0.174  0.00  0.00    +0.000 A 
ATOM      6  C   UNL     1       3.331  -2.721  -0.668  0.00  0.00    +0.000 A 
ATOM      7  C   UNL     1       3.567  -3.881   0.077  0.00  0.00    +0.000 A 
ATOM      8  C   UNL     1       4.118  -3.743   1.346  0.00  0.00    +0.000 A 
ATOM      9  C   UNL     1       4.378  -2.457   1.857  0.00  0.00    +0.000 A 
ATOM     10  C   UNL     1       4.128  -1.259   1.132  0.00  0.00    +0.000 A 
BRANCH   7  11
ATOM     11  C   UNL     1       3.219  -5.183  -0.577  0.00  0.00    +0.000 C 
ATOM     12  N   UNL     1       3.463  -6.349   0.091  0.00  0.00    +0.000 N 
ATOM     13  O   UNL     1       2.717  -5.230  -1.691  0.00  0.00    +0.000 OA
ATOM     14  H   UNL     1       3.885  -6.426   1.003  0.00  0.00    +0.000 HD
ATOM     15  H   UNL     1       3.211  -7.198  -0.390  0.00  0.00    +0.000 HD
ENDBRANCH   7  11
BRANCH   5  17
ATOM     16  C   UNL     1       2.584  -0.437  -2.062  0.00  0.00    +0.000 C 
ATOM     17  O   UNL     1       3.501  -0.323  -0.971  0.00  0.00    +0.000 OA
ENDBRANCH   5  17
ENDBRANCH   1  10
BRANCH   4  18
ATOM     18  C   UNL     1       2.416   1.681   0.997  0.00  0.00    +0.000 A 
ATOM     19  C   UNL     1       1.136   1.209   1.333  0.00  0.00    +0.000 A 
ATOM     20  C   UNL     1       0.040   1.376   0.478  0.00  0.00    +0.000 A 
ATOM     21  C   UNL     1       0.205   2.048  -0.732  0.00  0.00    +0.000 A 
ATOM     22  C   UNL     1       1.418   2.668  -1.026  0.00  0.00    +0.000 A 
ATOM     23  C   UNL     1       2.505   2.487  -0.159  0.00  0.00    +0.000 A 
BRANCH  21  24
ATOM     24  S   UNL     1      -0.984   1.796  -2.034  0.00  0.00    +0.000 S 
ATOM     25  C   UNL     1      -1.762   3.354  -2.321  0.00  0.00    +0.000 C 
ATOM     26  O   UNL     1      -0.222   1.455  -3.222  0.00  0.00    +0.000 OA
ATOM     27  O   UNL     1      -1.999   0.890  -1.529  0.00  0.00    +0.000 OA
ENDBRANCH  21  24
ENDBRANCH   4  18
TORSDOF 5
