REMARK  Name = 
REMARK  4 active torsions:
REMARK  status: ('A' for Active; 'I' for Inactive)
REMARK    1  A    between atoms: C_1  and  C_2
REMARK    2  A    between atoms: C_2  and  N_3
REMARK    3  A    between atoms: C_2  and  C_13
REMARK    4  A    between atoms: C_8  and  C_9
REMARK                            x       y       z     vdW  Elec       q    Type
REMARK                         _______ _______ _______ _____ _____    ______ ____
ROOT
ATOM      1  N   UNL     1       2.745   1.262  -0.633  0.00  0.00    +0.000 N 
ATOM      2  C   UNL     1       3.007   1.301  -1.990  0.00  0.00    +0.000 A 
ATOM      3  N   UNL     1       3.959   2.166  -2.371  0.00  0.00    +0.000 NA
ATOM      4  C   UNL     1       4.213   2.275  -3.689  0.00  0.00    +0.000 A 
ATOM      5  C   UNL     1       3.556   1.548  -4.645  0.00  0.00    +0.000 A 
ATOM      6  C   UNL     1       2.611   0.684  -4.143  0.00  0.00    +0.000 A 
ATOM      7  N   UNL     1       2.320   0.532  -2.831  0.00  0.00    +0.000 NA
ATOM      8  H   UNL     1       3.541   1.727  -0.210  0.00  0.00    +0.000 HD
ENDROOT
BRANCH   6   9
ATOM      9  C   UNL     1       1.813  -0.165  -5.078  0.00  0.00    +0.000 C 
ATOM     10  N   UNL     1       0.890  -0.983  -4.482  0.00  0.00    +0.000 N 
ATOM     11  O   UNL     1       1.966  -0.134  -6.294  0.00  0.00    +0.000 OA
ATOM     12  H   UNL     1       0.769  -0.942  -3.476  0.00  0.00    +0.000 HD
ATOM     13  H   UNL     1       0.287  -1.557  -5.050  0.00  0.00    +0.000 HD
ENDBRANCH   6   9
BRANCH   1  15
ATOM     14  C   UNL     1       0.824  -0.164  -0.077  0.00  0.00    +0.000 C 
ATOM     15  C   UNL     1       2.353  -0.018  -0.039  0.00  0.00    +0.000 C 
BRANCH  15  16
ATOM     16  C   UNL     1       2.892  -0.109   1.425  0.00  0.00    +0.000 C 
ATOM     17  C   UNL     1       2.313   0.988   2.342  0.00  0.00    +0.000 C 
ATOM     18  C   UNL     1       2.929   0.988   3.738  0.00  0.00    +0.000 C 
ATOM     19  C   UNL     1       4.447   1.067   3.670  0.00  0.00    +0.000 C 
ATOM     20  C   UNL     1       5.011  -0.096   2.863  0.00  0.00    +0.000 C 
ATOM     21  C   UNL     1       4.437  -0.119   1.450  0.00  0.00    +0.000 C 
ENDBRANCH  15  16
ENDBRANCH   1  15
TORSDOF 3
