REMARK  Name = 
REMARK  10 active torsions:
REMARK  status: ('A' for Active; 'I' for Inactive)
REMARK    1  A    between atoms: C_1  and  O_2
REMARK    2  A    between atoms: O_2  and  C_3
REMARK    3  A    between atoms: C_10  and  C_11
REMARK    4  A    between atoms: N_13  and  C_14
REMARK    5  A    between atoms: C_14  and  C_15
REMARK    6  A    between atoms: C_18  and  C_19
REMARK    7  A    between atoms: C_19  and  N_20
REMARK    8  A    between atoms: N_20  and  C_21
REMARK    9  A    between atoms: N_20  and  C_22
REMARK   10  A    between atoms: C_22  and  C_23
REMARK                            x       y       z     vdW  Elec       q    Type
REMARK                         _______ _______ _______ _____ _____    ______ ____
ROOT
ATOM      1  C   UNL     1       1.832  -0.618   3.350  0.00  0.00    +0.000 A 
ATOM      2  C   UNL     1       0.555  -1.146   3.586  0.00  0.00    +0.000 A 
ATOM      3  C   UNL     1      -0.526  -0.300   3.845  0.00  0.00    +0.000 A 
ATOM      4  C   UNL     1      -0.348   1.090   3.885  0.00  0.00    +0.000 A 
ATOM      5  C   UNL     1       0.913   1.620   3.583  0.00  0.00    +0.000 A 
ATOM      6  C   UNL     1       1.990   0.774   3.309  0.00  0.00    +0.000 A 
ENDROOT
BRANCH   1   7
ATOM      7  C   UNL     1       3.001  -1.530   3.081  0.00  0.00    +0.000 C 
BRANCH   7  10
ATOM      8  C   UNL     1       4.064  -2.604   1.130  0.00  0.00    +0.000 C 
ATOM      9  O   UNL     1       4.896  -3.182   1.829  0.00  0.00    +0.000 OA
ATOM     10  N   UNL     1       3.121  -1.782   1.672  0.00  0.00    +0.000 N 
ATOM     11  H   UNL     1       2.481  -1.282   1.069  0.00  0.00    +0.000 HD
BRANCH   8  19
ATOM     12  C   UNL     1       1.989  -1.400  -1.339  0.00  0.00    +0.000 A 
ATOM     13  N   UNL     1       1.352  -1.074  -2.480  0.00  0.00    +0.000 NA
ATOM     14  C   UNL     1       1.824  -1.570  -3.626  0.00  0.00    +0.000 A 
ATOM     15  N   UNL     1       2.875  -2.369  -3.779  0.00  0.00    +0.000 NA
ATOM     16  C   UNL     1       3.487  -2.664  -2.619  0.00  0.00    +0.000 A 
ATOM     17  S   UNL     1       4.851  -3.673  -2.625  0.00  0.00    +0.000 S 
ATOM     18  C   UNL     1       5.006  -3.562  -0.935  0.00  0.00    +0.000 A 
ATOM     19  C   UNL     1       4.038  -2.765  -0.335  0.00  0.00    +0.000 A 
ATOM     20  C   UNL     1       3.127  -2.228  -1.348  0.00  0.00    +0.000 A 
BRANCH  12  22
ATOM     21  C   UNL     1       0.135  -0.520  -0.216  0.00  0.00    +0.000 C 
ATOM     22  O   UNL     1       1.521  -0.849  -0.164  0.00  0.00    +0.000 OA
ENDBRANCH  12  22
ENDBRANCH   8  19
ENDBRANCH   7  10
ENDBRANCH   1   7
BRANCH   4  23
ATOM     23  C   UNL     1      -1.486   2.007   4.287  0.00  0.00    +0.000 C 
BRANCH  23  24
ATOM     24  N   UNL     1      -2.031   1.700   5.626  0.00  0.00    +0.000 NA
ATOM     25  C   UNL     1      -1.009   1.888   6.668  0.00  0.00    +0.000 C 
BRANCH  24  26
ATOM     26  C   UNL     1      -3.187   2.568   5.926  0.00  0.00    +0.000 C 
BRANCH  26  27
ATOM     27  C   UNL     1      -4.374   2.364   5.013  0.00  0.00    +0.000 A 
ATOM     28  C   UNL     1      -4.998   1.113   4.898  0.00  0.00    +0.000 A 
ATOM     29  C   UNL     1      -6.167   0.972   4.145  0.00  0.00    +0.000 A 
ATOM     30  C   UNL     1      -6.713   2.072   3.484  0.00  0.00    +0.000 A 
ATOM     31  C   UNL     1      -6.069   3.306   3.543  0.00  0.00    +0.000 A 
ATOM     32  C   UNL     1      -4.911   3.442   4.303  0.00  0.00    +0.000 A 
ATOM     33  F   UNL     1      -4.311   4.641   4.349  0.00  0.00    +0.000 F 
ENDBRANCH  26  27
ENDBRANCH  24  26
ENDBRANCH  23  24
ENDBRANCH   4  23
TORSDOF 8
