REMARK  Name = 
REMARK  3 active torsions:
REMARK  status: ('A' for Active; 'I' for Inactive)
REMARK    1  A    between atoms: C_2  and  C_4
REMARK    2  A    between atoms: N_8  and  C_9
REMARK    3  A    between atoms: C_9  and  C_10
REMARK                            x       y       z     vdW  Elec       q    Type
REMARK                         _______ _______ _______ _____ _____    ______ ____
ROOT
ATOM      1  C   UNL     1       3.243  -0.174  -1.279  0.00  0.00    +0.000 A 
ATOM      2  C   UNL     1       3.578  -1.512  -1.301  0.00  0.00    +0.000 A 
ATOM      3  C   UNL     1       4.228  -2.032  -2.421  0.00  0.00    +0.000 A 
ATOM      4  C   UNL     1       4.514  -1.182  -3.509  0.00  0.00    +0.000 A 
ATOM      5  N   UNL     1       5.146  -1.728  -4.614  0.00  0.00    +0.000 N 
ATOM      6  N   UNL     1       4.146   0.105  -3.502  0.00  0.00    +0.000 NA
ATOM      7  C   UNL     1       3.527   0.595  -2.399  0.00  0.00    +0.000 A 
ATOM      8  H   UNL     1       6.042  -2.149  -4.422  0.00  0.00    +0.000 HD
ENDROOT
BRANCH   1  10
ATOM      9  N   UNL     1       2.866  -0.082   1.110  0.00  0.00    +0.000 N 
ATOM     10  C   UNL     1       2.584   0.459  -0.113  0.00  0.00    +0.000 C 
ATOM     11  O   UNL     1       1.853   1.430  -0.234  0.00  0.00    +0.000 OA
ATOM     12  H   UNL     1       2.496   0.402   1.918  0.00  0.00    +0.000 HD
ATOM     13  H   UNL     1       3.646  -0.708   1.258  0.00  0.00    +0.000 HD
ENDBRANCH   1  10
BRANCH   5  14
ATOM     14  C   UNL     1       4.967  -1.097  -5.920  0.00  0.00    +0.000 C 
BRANCH  14  15
ATOM     15  C   UNL     1       5.222  -2.144  -6.990  0.00  0.00    +0.000 A 
ATOM     16  C   UNL     1       4.175  -2.963  -7.445  0.00  0.00    +0.000 A 
ATOM     17  C   UNL     1       4.406  -3.937  -8.419  0.00  0.00    +0.000 A 
ATOM     18  C   UNL     1       5.683  -4.102  -8.949  0.00  0.00    +0.000 A 
ATOM     19  C   UNL     1       6.733  -3.300  -8.504  0.00  0.00    +0.000 A 
ATOM     20  C   UNL     1       6.506  -2.330  -7.524  0.00  0.00    +0.000 A 
ENDBRANCH  14  15
ENDBRANCH   5  14
TORSDOF 3
