REMARK  Name = 
REMARK  6 active torsions:
REMARK  status: ('A' for Active; 'I' for Inactive)
REMARK    1  A    between atoms: C_1  and  O_2
REMARK    2  A    between atoms: O_2  and  C_3
REMARK    3  A    between atoms: C_7  and  N_8
REMARK    4  A    between atoms: N_8  and  C_9
REMARK    5  A    between atoms: C_9  and  C_10
REMARK    6  A    between atoms: C_14  and  C_15
REMARK                            x       y       z     vdW  Elec       q    Type
REMARK                         _______ _______ _______ _____ _____    ______ ____
ROOT
ATOM      1  C   UNL     1       7.256   0.571   4.322  0.00  0.00    +0.000 A 
ATOM      2  C   UNL     1       7.607   1.871   4.695  0.00  0.00    +0.000 A 
ATOM      3  C   UNL     1       8.489   2.081   5.750  0.00  0.00    +0.000 A 
ATOM      4  C   UNL     1       9.002   0.993   6.462  0.00  0.00    +0.000 A 
ATOM      5  C   UNL     1       8.667  -0.332   6.124  0.00  0.00    +0.000 A 
ATOM      6  C   UNL     1       7.833  -0.515   5.004  0.00  0.00    +0.000 A 
ENDROOT
BRANCH   5   7
ATOM      7  C   UNL     1       9.063  -1.472   6.989  0.00  0.00    +0.000 A 
ATOM      8  C   UNL     1      10.232  -1.453   7.775  0.00  0.00    +0.000 A 
ATOM      9  C   UNL     1      10.508  -2.463   8.706  0.00  0.00    +0.000 A 
ATOM     10  C   UNL     1       9.628  -3.531   8.852  0.00  0.00    +0.000 A 
ATOM     11  C   UNL     1       8.492  -3.589   8.053  0.00  0.00    +0.000 A 
ATOM     12  F   UNL     1       7.645  -4.616   8.191  0.00  0.00    +0.000 F 
ATOM     13  C   UNL     1       8.211  -2.583   7.137  0.00  0.00    +0.000 A 
ENDBRANCH   5   7
BRANCH   1  14
ATOM     14  C   UNL     1       6.243   0.333   3.225  0.00  0.00    +0.000 C 
BRANCH  14  15
ATOM     15  N   UNL     1       6.916   0.338   1.938  0.00  0.00    +0.000 N 
ATOM     16  H   UNL     1       7.685  -0.326   1.911  0.00  0.00    +0.000 HD
BRANCH  15  21
ATOM     17  C   UNL     1       3.978  -0.132  -0.097  0.00  0.00    +0.000 A 
ATOM     18  C   UNL     1       4.531  -0.162  -1.367  0.00  0.00    +0.000 A 
ATOM     19  N   UNL     1       5.861  -0.047  -1.579  0.00  0.00    +0.000 NA
ATOM     20  C   UNL     1       6.600   0.107  -0.453  0.00  0.00    +0.000 A 
ATOM     21  C   UNL     1       6.062   0.131   0.841  0.00  0.00    +0.000 A 
ATOM     22  N   UNL     1       4.730   0.014   1.020  0.00  0.00    +0.000 NA
BRANCH  17  24
ATOM     23  C   UNL     1       2.152  -0.250   1.353  0.00  0.00    +0.000 C 
ATOM     24  O   UNL     1       2.606  -0.250   0.004  0.00  0.00    +0.000 OA
ENDBRANCH  17  24
ENDBRANCH  15  21
ENDBRANCH  14  15
ENDBRANCH   1  14
TORSDOF 5
