REMARK  Name = 
REMARK  10 active torsions:
REMARK  status: ('A' for Active; 'I' for Inactive)
REMARK    1  A    between atoms: C_1  and  O_2
REMARK    2  A    between atoms: O_2  and  C_3
REMARK    3  A    between atoms: C_10  and  C_11
REMARK    4  A    between atoms: N_13  and  C_14
REMARK    5  A    between atoms: C_14  and  C_15
REMARK    6  A    between atoms: C_18  and  C_19
REMARK    7  A    between atoms: C_19  and  N_20
REMARK    8  A    between atoms: N_20  and  C_21
REMARK    9  A    between atoms: N_20  and  C_22
REMARK   10  A    between atoms: C_22  and  C_23
REMARK                            x       y       z     vdW  Elec       q    Type
REMARK                         _______ _______ _______ _____ _____    ______ ____
ROOT
ATOM      1  C   UNL     1       3.338  -3.180   0.458  0.00  0.00    +0.000 C 
ENDROOT
BRANCH   1   2
ATOM      2  C   UNL     1       2.305  -2.965   1.533  0.00  0.00    +0.000 A 
ATOM      3  C   UNL     1       1.439  -4.004   1.899  0.00  0.00    +0.000 A 
ATOM      4  C   UNL     1       0.463  -3.803   2.876  0.00  0.00    +0.000 A 
ATOM      5  C   UNL     1       0.331  -2.559   3.507  0.00  0.00    +0.000 A 
ATOM      6  C   UNL     1       1.175  -1.509   3.119  0.00  0.00    +0.000 A 
ATOM      7  C   UNL     1       2.151  -1.710   2.140  0.00  0.00    +0.000 A 
BRANCH   5   8
ATOM      8  C   UNL     1      -0.693  -2.359   4.606  0.00  0.00    +0.000 C 
BRANCH   8   9
ATOM      9  N   UNL     1      -0.504  -3.274   5.749  0.00  0.00    +0.000 NA
ATOM     10  C   UNL     1       0.794  -3.046   6.399  0.00  0.00    +0.000 C 
BRANCH   9  11
ATOM     11  C   UNL     1      -1.573  -3.097   6.749  0.00  0.00    +0.000 C 
BRANCH  11  12
ATOM     12  C   UNL     1      -2.958  -3.466   6.260  0.00  0.00    +0.000 A 
ATOM     13  C   UNL     1      -3.230  -4.758   5.788  0.00  0.00    +0.000 A 
ATOM     14  C   UNL     1      -4.526  -5.117   5.414  0.00  0.00    +0.000 A 
ATOM     15  C   UNL     1      -5.561  -4.188   5.502  0.00  0.00    +0.000 A 
ATOM     16  C   UNL     1      -5.298  -2.892   5.943  0.00  0.00    +0.000 A 
ATOM     17  C   UNL     1      -4.003  -2.532   6.320  0.00  0.00    +0.000 A 
ENDBRANCH  11  12
ENDBRANCH   9  11
ENDBRANCH   8   9
ENDBRANCH   5   8
ENDBRANCH   1   2
BRANCH   1  20
ATOM     18  C   UNL     1       3.512  -2.990  -1.990  0.00  0.00    +0.000 C 
ATOM     19  O   UNL     1       4.682  -3.357  -1.975  0.00  0.00    +0.000 OA
ATOM     20  N   UNL     1       2.785  -2.883  -0.838  0.00  0.00    +0.000 N 
ATOM     21  H   UNL     1       1.803  -2.646  -0.877  0.00  0.00    +0.000 HD
BRANCH  18  29
ATOM     22  C   UNL     1       0.329  -1.897  -2.742  0.00  0.00    +0.000 A 
ATOM     23  N   UNL     1      -0.787  -1.382  -3.298  0.00  0.00    +0.000 NA
ATOM     24  C   UNL     1      -0.777  -1.125  -4.608  0.00  0.00    +0.000 A 
ATOM     25  N   UNL     1       0.225  -1.332  -5.457  0.00  0.00    +0.000 NA
ATOM     26  C   UNL     1       1.320  -1.837  -4.864  0.00  0.00    +0.000 A 
ATOM     27  S   UNL     1       2.694  -2.179  -5.800  0.00  0.00    +0.000 S 
ATOM     28  C   UNL     1       3.558  -2.699  -4.433  0.00  0.00    +0.000 A 
ATOM     29  C   UNL     1       2.837  -2.620  -3.247  0.00  0.00    +0.000 A 
ATOM     30  C   UNL     1       1.481  -2.137  -3.514  0.00  0.00    +0.000 A 
BRANCH  22  32
ATOM     31  C   UNL     1      -0.904  -1.857  -0.737  0.00  0.00    +0.000 C 
ATOM     32  O   UNL     1       0.307  -2.213  -1.400  0.00  0.00    +0.000 OA
ENDBRANCH  22  32
ENDBRANCH  18  29
ENDBRANCH   1  20
TORSDOF 8
