REMARK  Name = 
REMARK  13 active torsions:
REMARK  status: ('A' for Active; 'I' for Inactive)
REMARK    1  A    between atoms: C_1  and  N_2
REMARK    2  A    between atoms: N_2  and  C_3
REMARK    3  A    between atoms: N_2  and  C_4
REMARK    4  A    between atoms: C_4  and  C_5
REMARK    5  A    between atoms: C_6  and  C_7
REMARK    6  A    between atoms: C_9  and  C_10
REMARK    7  A    between atoms: C_16  and  O_17
REMARK    8  A    between atoms: O_17  and  C_18
REMARK    9  A    between atoms: C_18  and  C_19
REMARK   10  A    between atoms: C_19  and  C_20
REMARK   11  A    between atoms: C_19  and  C_21
REMARK   12  A    between atoms: C_19  and  C_22
REMARK   13  A    between atoms: C_25  and  C_26
REMARK                            x       y       z     vdW  Elec       q    Type
REMARK                         _______ _______ _______ _____ _____    ______ ____
ROOT
ATOM      1  C   UNL     1       3.589  -1.817   4.438  0.00  0.00    +0.000 A 
ATOM      2  C   UNL     1       4.157  -0.762   5.174  0.00  0.00    +0.000 A 
ATOM      3  C   UNL     1       4.629  -0.945   6.478  0.00  0.00    +0.000 A 
ATOM      4  C   UNL     1       4.519  -2.214   7.054  0.00  0.00    +0.000 A 
ATOM      5  C   UNL     1       3.942  -3.267   6.334  0.00  0.00    +0.000 A 
ATOM      6  C   UNL     1       3.464  -3.086   5.025  0.00  0.00    +0.000 A 
ENDROOT
BRANCH   3   7
ATOM      7  C   UNL     1       5.250   0.200   7.237  0.00  0.00    +0.000 C 
ATOM      8  F   UNL     1       5.283   1.364   6.529  0.00  0.00    +0.000 F 
ATOM      9  F   UNL     1       4.583   0.485   8.389  0.00  0.00    +0.000 F 
ATOM     10  F   UNL     1       6.538  -0.051   7.599  0.00  0.00    +0.000 F 
ENDBRANCH   3   7
BRANCH   1  12
ATOM     11  C   UNL     1       2.936  -1.213   1.957  0.00  0.00    +0.000 C 
ATOM     12  C   UNL     1       3.200  -1.476   3.098  0.00  0.00    +0.000 C 
BRANCH  11  13
ATOM     13  C   UNL     1       2.630  -0.962   0.541  0.00  0.00    +0.000 C 
BRANCH  13  15
ATOM     14  C   UNL     1       0.586   0.316   0.909  0.00  0.00    +0.000 C 
ATOM     15  N   UNL     1       1.904   0.285   0.280  0.00  0.00    +0.000 NA
ATOM     16  C   UNL     1       2.690   1.464   0.629  0.00  0.00    +0.000 C 
ENDBRANCH  13  15
ENDBRANCH  11  13
ENDBRANCH   1  12
BRANCH   6  17
ATOM     17  O   UNL     1       2.925  -4.238   4.505  0.00  0.00    +0.000 OA
BRANCH  17  18
ATOM     18  C   UNL     1       2.498  -4.236   3.143  0.00  0.00    +0.000 C 
BRANCH  18  19
ATOM     19  C   UNL     1       2.009  -5.633   2.660  0.00  0.00    +0.000 C 
ATOM     20  C   UNL     1       0.834  -6.071   3.559  0.00  0.00    +0.000 C 
ATOM     21  C   UNL     1       1.487  -5.418   1.215  0.00  0.00    +0.000 C 
BRANCH  19  22
ATOM     22  C   UNL     1       3.106  -6.716   2.634  0.00  0.00    +0.000 A 
ATOM     23  C   UNL     1       4.435  -6.452   3.005  0.00  0.00    +0.000 A 
ATOM     24  C   UNL     1       5.422  -7.439   2.941  0.00  0.00    +0.000 A 
ATOM     25  C   UNL     1       5.107  -8.725   2.504  0.00  0.00    +0.000 A 
ATOM     26  C   UNL     1       3.793  -9.015   2.128  0.00  0.00    +0.000 A 
ATOM     27  C   UNL     1       2.807  -8.022   2.198  0.00  0.00    +0.000 A 
BRANCH  25  28
ATOM     28  C   UNL     1       6.201  -9.726   2.422  0.00  0.00    +0.000 C 
ATOM     29  N   UNL     1       5.859 -11.046   2.506  0.00  0.00    +0.000 N 
ATOM     30  O   UNL     1       7.373  -9.387   2.308  0.00  0.00    +0.000 OA
ATOM     31  H   UNL     1       4.937 -11.369   2.754  0.00  0.00    +0.000 HD
ATOM     32  H   UNL     1       6.622 -11.710   2.527  0.00  0.00    +0.000 HD
ENDBRANCH  25  28
ENDBRANCH  19  22
ENDBRANCH  18  19
ENDBRANCH  17  18
ENDBRANCH   6  17
TORSDOF 9
