REMARK  Name = 
REMARK  8 active torsions:
REMARK  status: ('A' for Active; 'I' for Inactive)
REMARK    1  A    between atoms: C_1  and  C_2
REMARK    2  A    between atoms: N_4  and  C_5
REMARK    3  A    between atoms: C_7  and  C_8
REMARK    4  A    between atoms: C_8  and  C_9
REMARK    5  A    between atoms: C_9  and  N_10
REMARK    6  A    between atoms: C_15  and  C_16
REMARK    7  A    between atoms: C_21  and  C_22
REMARK    8  A    between atoms: C_28  and  C_29
REMARK                            x       y       z     vdW  Elec       q    Type
REMARK                         _______ _______ _______ _____ _____    ______ ____
ROOT
ATOM      1  C   UNL     1       1.745   1.359  -3.352  0.00  0.00    +0.000 A 
ATOM      2  C   UNL     1       2.146   2.646  -3.757  0.00  0.00    +0.000 A 
ATOM      3  C   UNL     1       1.411   3.412  -4.683  0.00  0.00    +0.000 A 
ATOM      4  C   UNL     1       0.214   2.878  -5.179  0.00  0.00    +0.000 A 
ATOM      5  C   UNL     1      -0.221   1.610  -4.805  0.00  0.00    +0.000 A 
ATOM      6  C   UNL     1       0.548   0.871  -3.900  0.00  0.00    +0.000 A 
ENDROOT
BRANCH   1  10
ATOM      7  C   UNL     1       1.765   1.299   0.560  0.00  0.00    +0.000 C 
ATOM      8  C   UNL     1       2.973   0.591  -0.052  0.00  0.00    +0.000 C 
ATOM      9  C   UNL     1       3.355   1.164  -1.437  0.00  0.00    +0.000 C 
ATOM     10  N   UNL     1       2.485   0.598  -2.474  0.00  0.00    +0.000 N 
ATOM     11  C   UNL     1       2.475  -0.871  -2.487  0.00  0.00    +0.000 C 
ATOM     12  C   UNL     1       2.063  -1.416  -1.108  0.00  0.00    +0.000 C 
ATOM     13  C   UNL     1       0.560  -1.338  -0.854  0.00  0.00    +0.000 C 
ATOM     14  O   UNL     1       2.827  -0.841  -0.032  0.00  0.00    +0.000 OA
ENDBRANCH   1  10
BRANCH   5  15
ATOM     15  C   UNL     1      -1.480   1.018  -5.384  0.00  0.00    +0.000 C 
ATOM     16  F   UNL     1      -2.109   1.836  -6.273  0.00  0.00    +0.000 F 
ATOM     17  F   UNL     1      -1.244  -0.144  -6.051  0.00  0.00    +0.000 F 
ATOM     18  F   UNL     1      -2.405   0.722  -4.430  0.00  0.00    +0.000 F 
ENDBRANCH   5  15
BRANCH   3  19
ATOM     19  C   UNL     1       1.954   4.751  -5.157  0.00  0.00    +0.000 C 
BRANCH  19  20
ATOM     20  C   UNL     1       1.055   5.448  -6.188  0.00  0.00    +0.000 C 
BRANCH  20  21
ATOM     21  N   UNL     1       1.610   6.717  -6.670  0.00  0.00    +0.000 N 
ATOM     22  C   UNL     1       0.749   7.319  -7.624  0.00  0.00    +0.000 A 
ATOM     23  C   UNL     1       1.121   8.529  -8.176  0.00  0.00    +0.000 A 
ATOM     24  C   UNL     1       0.251   9.096  -9.080  0.00  0.00    +0.000 A 
ATOM     25  N   UNL     1      -0.911   8.536  -9.454  0.00  0.00    +0.000 NA
ATOM     26  C   UNL     1      -1.182   7.354  -8.856  0.00  0.00    +0.000 A 
ATOM     27  N   UNL     1      -0.408   6.728  -7.953  0.00  0.00    +0.000 NA
ATOM     28  H   UNL     1       2.525   6.591  -7.096  0.00  0.00    +0.000 HD
BRANCH  26  29
ATOM     29  C   UNL     1      -2.463   6.664  -9.265  0.00  0.00    +0.000 C 
ATOM     30  N   UNL     1      -3.237   7.338 -10.183  0.00  0.00    +0.000 N 
ATOM     31  O   UNL     1      -2.818   5.574  -8.833  0.00  0.00    +0.000 OA
ATOM     32  H   UNL     1      -2.941   8.241 -10.534  0.00  0.00    +0.000 HD
ATOM     33  H   UNL     1      -4.108   6.927 -10.482  0.00  0.00    +0.000 HD
ENDBRANCH  26  29
ENDBRANCH  20  21
ENDBRANCH  19  20
ENDBRANCH   3  19
TORSDOF 6
