REMARK  Name = 
REMARK  5 active torsions:
REMARK  status: ('A' for Active; 'I' for Inactive)
REMARK    1  A    between atoms: C_1  and  C_2
REMARK    2  A    between atoms: C_4  and  O_5
REMARK    3  A    between atoms: O_5  and  C_6
REMARK    4  A    between atoms: C_6  and  C_7
REMARK    5  A    between atoms: C_15  and  C_16
REMARK                            x       y       z     vdW  Elec       q    Type
REMARK                         _______ _______ _______ _____ _____    ______ ____
ROOT
ATOM      1  C   UNL     1      -2.564  -0.031   0.003  0.00  0.00    +0.000 C 
ATOM      2  C   UNL     1      -1.061   0.023   0.004  0.00  0.00    +0.000 A 
ATOM      3  C   UNL     1      -0.337  -1.180  -0.016  0.00  0.00    +0.000 A 
ATOM      4  C   UNL     1       1.048  -1.138  -0.059  0.00  0.00    +0.000 A 
ATOM      5  N   UNL     1       1.758   0.007  -0.054  0.00  0.00    +0.000 NA
ATOM      6  C   UNL     1       1.046   1.159  -0.024  0.00  0.00    +0.000 A 
ATOM      7  C   UNL     1      -0.344   1.233   0.012  0.00  0.00    +0.000 A 
ENDROOT
BRANCH   7   8
ATOM      8  C   UNL     1      -1.009   2.564   0.008  0.00  0.00    +0.000 C 
ATOM      9  N   UNL     1      -0.340   3.616   0.571  0.00  0.00    +0.000 N 
ATOM     10  O   UNL     1      -2.124   2.737  -0.469  0.00  0.00    +0.000 OA
ATOM     11  H   UNL     1       0.477   3.522   1.158  0.00  0.00    +0.000 HD
ATOM     12  H   UNL     1      -0.849   4.491   0.620  0.00  0.00    +0.000 HD
ENDBRANCH   7   8
BRANCH   4  13
ATOM     13  O   UNL     1       1.712  -2.348  -0.080  0.00  0.00    +0.000 OA
BRANCH  13  14
ATOM     14  C   UNL     1       3.031  -2.224  -0.621  0.00  0.00    +0.000 C 
BRANCH  14  15
ATOM     15  C   UNL     1       3.740  -3.553  -0.593  0.00  0.00    +0.000 A 
ATOM     16  C   UNL     1       3.604  -4.456   0.466  0.00  0.00    +0.000 A 
ATOM     17  C   UNL     1       4.334  -5.642   0.463  0.00  0.00    +0.000 A 
ATOM     18  C   UNL     1       5.192  -5.883  -0.597  0.00  0.00    +0.000 A 
ATOM     19  N   UNL     1       5.367  -5.030  -1.627  0.00  0.00    +0.000 NA
ATOM     20  C   UNL     1       4.644  -3.887  -1.598  0.00  0.00    +0.000 A 
ENDBRANCH  14  15
ENDBRANCH  13  14
ENDBRANCH   4  13
TORSDOF 4
