REMARK  Name = 
REMARK  10 active torsions:
REMARK  status: ('A' for Active; 'I' for Inactive)
REMARK    1  A    between atoms: C_1  and  O_2
REMARK    2  A    between atoms: O_2  and  C_3
REMARK    3  A    between atoms: C_8  and  C_9
REMARK    4  A    between atoms: N_11  and  C_12
REMARK    5  A    between atoms: C_12  and  C_13
REMARK    6  A    between atoms: C_16  and  CA_17
REMARK    7  A    between atoms: CA_17  and  C_18
REMARK    8  A    between atoms: CA_17  and  N_20
REMARK    9  A    between atoms: C_18  and  O_19
REMARK   10  A    between atoms: C_21  and  C_23
REMARK                            x       y       z     vdW  Elec       q    Type
REMARK                         _______ _______ _______ _____ _____    ______ ____
ROOT
ATOM      1  C   UNL     1      -3.224  -6.339   1.044  0.00  0.00    +0.000 A 
ATOM      2  C   UNL     1      -2.260  -5.505   0.467  0.00  0.00    +0.000 A 
ATOM      3  C   UNL     1      -0.895  -5.712   0.709  0.00  0.00    +0.000 A 
ATOM      4  C   UNL     1      -0.453  -6.760   1.534  0.00  0.00    +0.000 A 
ATOM      5  C   UNL     1      -1.429  -7.608   2.086  0.00  0.00    +0.000 A 
ATOM      6  C   UNL     1      -2.793  -7.402   1.845  0.00  0.00    +0.000 A 
ENDROOT
BRANCH   1   7
ATOM      7  C   UNL     1      -4.692  -6.108   0.799  0.00  0.00    +0.000 C 
BRANCH   7  10
ATOM      8  C   UNL     1      -6.482  -6.668  -0.782  0.00  0.00    +0.000 C 
ATOM      9  O   UNL     1      -7.304  -6.049  -0.112  0.00  0.00    +0.000 OA
ATOM     10  N   UNL     1      -5.166  -6.772  -0.390  0.00  0.00    +0.000 N 
ATOM     11  H   UNL     1      -4.519  -7.292  -0.974  0.00  0.00    +0.000 HD
BRANCH   8  17
ATOM     12  C   UNL     1      -6.051  -8.066  -2.916  0.00  0.00    +0.000 A 
ATOM     13  C   UNL     1      -6.564  -8.570  -4.124  0.00  0.00    +0.000 A 
ATOM     14  C   UNL     1      -7.896  -8.355  -4.490  0.00  0.00    +0.000 A 
ATOM     15  C   UNL     1      -8.737  -7.633  -3.654  0.00  0.00    +0.000 A 
ATOM     16  C   UNL     1      -8.242  -7.119  -2.457  0.00  0.00    +0.000 A 
ATOM     17  C   UNL     1      -6.898  -7.314  -2.075  0.00  0.00    +0.000 A 
BRANCH  12  19
ATOM     18  C   UNL     1      -3.933  -9.104  -3.323  0.00  0.00    +0.000 C 
ATOM     19  O   UNL     1      -4.754  -8.268  -2.513  0.00  0.00    +0.000 OA
ENDBRANCH  12  19
ENDBRANCH   8  17
ENDBRANCH   7  10
ENDBRANCH   1   7
BRANCH   4  20
ATOM     20  CA  UNL     1       1.029  -7.035   1.805  0.00  0.00    +0.000 C 
BRANCH  20  21
ATOM     21  N   UNL     1       1.901  -6.062   1.157  0.00  0.00    +0.000 N 
ATOM     22  C   UNL     1       2.740  -6.393   0.120  0.00  0.00    +0.000 C 
ATOM     23  O   UNL     1       2.804  -7.524  -0.345  0.00  0.00    +0.000 OA
ATOM     24  H   UNL     1       1.987  -5.165   1.617  0.00  0.00    +0.000 HD
BRANCH  22  25
ATOM     25  C   UNL     1       3.511  -5.275  -0.426  0.00  0.00    +0.000 A 
ATOM     26  C   UNL     1       3.058  -3.964  -0.437  0.00  0.00    +0.000 A 
ATOM     27  S   UNL     1       4.102  -2.895  -1.265  0.00  0.00    +0.000 S 
ATOM     28  C   UNL     1       5.187  -4.153  -1.635  0.00  0.00    +0.000 A 
ATOM     29  N   UNL     1       6.301  -3.920  -2.378  0.00  0.00    +0.000 NA
ATOM     30  C   UNL     1       7.021  -4.971  -2.595  0.00  0.00    +0.000 A 
ATOM     31  N   UNL     1       6.740  -6.225  -2.118  0.00  0.00    +0.000 N 
ATOM     32  C   UNL     1       5.679  -6.489  -1.279  0.00  0.00    +0.000 A 
ATOM     33  O   UNL     1       5.586  -7.570  -0.708  0.00  0.00    +0.000 OA
ATOM     34  C   UNL     1       4.786  -5.359  -1.092  0.00  0.00    +0.000 A 
ATOM     35  H   UNL     1       7.382  -6.990  -2.261  0.00  0.00    +0.000 HD
ENDBRANCH  22  25
ENDBRANCH  20  21
BRANCH  20  36
ATOM     36  C   UNL     1       1.369  -7.045   3.314  0.00  0.00    +0.000 C 
BRANCH  36  37
ATOM     37  O   UNL     1       1.198  -5.743   3.888  0.00  0.00    +0.000 OA
ATOM     38  H   UNL     1       0.252  -5.523   3.810  0.00  0.00    +0.000 HD
ENDBRANCH  36  37
ENDBRANCH  20  36
ENDBRANCH   4  20
TORSDOF 9
