REMARK  Name = 
REMARK  8 active torsions:
REMARK  status: ('A' for Active; 'I' for Inactive)
REMARK    1  A    between atoms: C_1  and  O_2
REMARK    2  A    between atoms: O_2  and  C_3
REMARK    3  A    between atoms: C_10  and  C_11
REMARK    4  A    between atoms: N_13  and  C_14
REMARK    5  A    between atoms: C_14  and  C_15
REMARK    6  A    between atoms: C_18  and  N_19
REMARK    7  A    between atoms: N_19  and  C_20
REMARK    8  A    between atoms: C_20  and  C_21
REMARK                            x       y       z     vdW  Elec       q    Type
REMARK                         _______ _______ _______ _____ _____    ______ ____
ROOT
ATOM      1  C   UNL     1       3.315  -3.257   0.297  0.00  0.00    +0.000 C 
ENDROOT
BRANCH   1   2
ATOM      2  C   UNL     1       2.326  -3.079   1.418  0.00  0.00    +0.000 A 
ATOM      3  C   UNL     1       1.613  -4.181   1.896  0.00  0.00    +0.000 A 
ATOM      4  C   UNL     1       0.713  -4.044   2.958  0.00  0.00    +0.000 A 
ATOM      5  C   UNL     1       0.471  -2.806   3.560  0.00  0.00    +0.000 A 
ATOM      6  C   UNL     1       1.165  -1.699   3.049  0.00  0.00    +0.000 A 
ATOM      7  C   UNL     1       2.076  -1.827   1.989  0.00  0.00    +0.000 A 
BRANCH   5   8
ATOM      8  N   UNL     1      -0.299  -2.632   4.714  0.00  0.00    +0.000 N 
ATOM      9  H   UNL     1      -0.839  -1.770   4.676  0.00  0.00    +0.000 HD
BRANCH   8  10
ATOM     10  C   UNL     1      -1.005  -3.753   5.324  0.00  0.00    +0.000 C 
BRANCH  10  11
ATOM     11  C   UNL     1      -1.226  -3.529   6.834  0.00  0.00    +0.000 C 
ATOM     12  C   UNL     1      -1.871  -4.781   7.458  0.00  0.00    +0.000 C 
ATOM     13  C   UNL     1      -3.343  -4.925   7.063  0.00  0.00    +0.000 C 
ATOM     14  N   UNL     1      -4.120  -3.727   7.385  0.00  0.00    +0.000 NA
ATOM     15  C   UNL     1      -3.554  -2.525   6.770  0.00  0.00    +0.000 C 
ATOM     16  C   UNL     1      -2.098  -2.313   7.177  0.00  0.00    +0.000 C 
ATOM     17  H   UNL     1      -4.128  -3.605   8.398  0.00  0.00    +0.000 HD
ENDBRANCH  10  11
ENDBRANCH   8  10
ENDBRANCH   5   8
ENDBRANCH   1   2
BRANCH   1  20
ATOM     18  C   UNL     1       3.139  -3.744  -2.116  0.00  0.00    +0.000 C 
ATOM     19  O   UNL     1       4.108  -4.500  -2.081  0.00  0.00    +0.000 OA
ATOM     20  N   UNL     1       2.665  -3.143  -0.984  0.00  0.00    +0.000 N 
ATOM     21  H   UNL     1       1.925  -2.460  -1.050  0.00  0.00    +0.000 HD
BRANCH  18  29
ATOM     22  C   UNL     1       0.432  -1.776  -2.925  0.00  0.00    +0.000 A 
ATOM     23  N   UNL     1      -0.525  -1.036  -3.519  0.00  0.00    +0.000 NA
ATOM     24  C   UNL     1      -0.634  -1.103  -4.849  0.00  0.00    +0.000 A 
ATOM     25  N   UNL     1       0.098  -1.844  -5.677  0.00  0.00    +0.000 NA
ATOM     26  C   UNL     1       1.047  -2.556  -5.045  0.00  0.00    +0.000 A 
ATOM     27  S   UNL     1       2.074  -3.565  -5.944  0.00  0.00    +0.000 S 
ATOM     28  C   UNL     1       2.917  -4.035  -4.547  0.00  0.00    +0.000 A 
ATOM     29  C   UNL     1       2.451  -3.439  -3.381  0.00  0.00    +0.000 A 
ATOM     30  C   UNL     1       1.310  -2.576  -3.679  0.00  0.00    +0.000 A 
BRANCH  22  32
ATOM     31  C   UNL     1      -0.666  -1.376  -0.901  0.00  0.00    +0.000 C 
ATOM     32  O   UNL     1       0.564  -1.681  -1.556  0.00  0.00    +0.000 OA
ENDBRANCH  22  32
ENDBRANCH  18  29
ENDBRANCH   1  20
TORSDOF 7
