REMARK  Name = 
REMARK  5 active torsions:
REMARK  status: ('A' for Active; 'I' for Inactive)
REMARK    1  A    between atoms: N_1  and  C_2
REMARK    2  A    between atoms: C_2  and  C_3
REMARK    3  A    between atoms: C_3  and  C_4
REMARK    4  A    between atoms: C_7  and  C_8
REMARK    5  A    between atoms: C_8  and  N_9
REMARK                            x       y       z     vdW  Elec       q    Type
REMARK                         _______ _______ _______ _____ _____    ______ ____
ROOT
ATOM      1  C   UNL     1       4.345  -0.166   1.382  0.00  0.00    +0.000 A 
ATOM      2  C   UNL     1       5.004   1.068   1.326  0.00  0.00    +0.000 A 
ATOM      3  C   UNL     1       6.399   1.133   1.388  0.00  0.00    +0.000 A 
ATOM      4  C   UNL     1       7.162  -0.036   1.515  0.00  0.00    +0.000 A 
ATOM      5  C   UNL     1       6.499  -1.271   1.546  0.00  0.00    +0.000 A 
ATOM      6  C   UNL     1       5.105  -1.336   1.472  0.00  0.00    +0.000 A 
ENDROOT
BRANCH   1   7
ATOM      7  C   UNL     1       2.838  -0.228   1.329  0.00  0.00    +0.000 C 
BRANCH   7   8
ATOM      8  C   UNL     1       2.323  -0.339  -0.109  0.00  0.00    +0.000 C 
BRANCH   8   9
ATOM      9  N   UNL     1       0.862  -0.383  -0.144  0.00  0.00    +0.000 NA
ATOM     10  H   UNL     1       0.552  -0.425  -1.114  0.00  0.00    +0.000 HD
ATOM     11  H   UNL     1       0.484   0.483   0.238  0.00  0.00    +0.000 HD
ENDBRANCH   8   9
ENDBRANCH   7   8
ENDBRANCH   1   7
BRANCH   4  12
ATOM     12  C   UNL     1       8.665   0.020   1.622  0.00  0.00    +0.000 C 
BRANCH  12  13
ATOM     13  N   UNL     1       9.131   0.100   3.004  0.00  0.00    +0.000 N 
ATOM     14  C   UNL     1       9.422  -0.992   3.789  0.00  0.00    +0.000 A 
ATOM     15  C   UNL     1       9.989  -0.543   4.960  0.00  0.00    +0.000 A 
ATOM     16  C   UNL     1      10.063   0.876   4.889  0.00  0.00    +0.000 A 
ATOM     17  C   UNL     1      10.564   1.866   5.742  0.00  0.00    +0.000 A 
ATOM     18  N   UNL     1      10.516   3.175   5.390  0.00  0.00    +0.000 NA
ATOM     19  C   UNL     1       9.961   3.505   4.205  0.00  0.00    +0.000 A 
ATOM     20  C   UNL     1       9.429   2.603   3.296  0.00  0.00    +0.000 A 
ATOM     21  C   UNL     1       9.506   1.258   3.662  0.00  0.00    +0.000 A 
ENDBRANCH  12  13
ENDBRANCH   4  12
TORSDOF 5
