REMARK  Name = 
REMARK  4 active torsions:
REMARK  status: ('A' for Active; 'I' for Inactive)
REMARK    1  A    between atoms: C_2  and  C_4
REMARK    2  A    between atoms: C_7  and  O_8
REMARK    3  A    between atoms: O_8  and  C_9
REMARK    4  A    between atoms: C_9  and  C_10
REMARK                            x       y       z     vdW  Elec       q    Type
REMARK                         _______ _______ _______ _____ _____    ______ ____
ROOT
ATOM      1  C   UNL     1       2.848   0.309  -1.515  0.00  0.00    +0.000 A 
ATOM      2  C   UNL     1       4.164  -0.107  -1.291  0.00  0.00    +0.000 A 
ATOM      3  C   UNL     1       5.051  -0.167  -2.367  0.00  0.00    +0.000 A 
ATOM      4  C   UNL     1       4.597   0.220  -3.621  0.00  0.00    +0.000 A 
ATOM      5  N   UNL     1       3.329   0.607  -3.868  0.00  0.00    +0.000 NA
ATOM      6  C   UNL     1       2.477   0.626  -2.813  0.00  0.00    +0.000 A 
ENDROOT
BRANCH   1   8
ATOM      7  N   UNL     1       2.279   0.694   0.813  0.00  0.00    +0.000 N 
ATOM      8  C   UNL     1       1.834   0.413  -0.447  0.00  0.00    +0.000 C 
ATOM      9  O   UNL     1       0.638   0.303  -0.689  0.00  0.00    +0.000 OA
ATOM     10  H   UNL     1       1.565   0.880   1.508  0.00  0.00    +0.000 HD
ATOM     11  H   UNL     1       3.208   1.049   0.994  0.00  0.00    +0.000 HD
ENDBRANCH   1   8
BRANCH   4  12
ATOM     12  O   UNL     1       5.498   0.161  -4.665  0.00  0.00    +0.000 OA
BRANCH  12  13
ATOM     13  C   UNL     1       5.132   1.044  -5.729  0.00  0.00    +0.000 C 
BRANCH  13  14
ATOM     14  C   UNL     1       6.099   0.873  -6.878  0.00  0.00    +0.000 A 
ATOM     15  C   UNL     1       6.155  -0.342  -7.576  0.00  0.00    +0.000 A 
ATOM     16  C   UNL     1       7.024  -0.500  -8.656  0.00  0.00    +0.000 A 
ATOM     17  C   UNL     1       7.844   0.555  -9.052  0.00  0.00    +0.000 A 
ATOM     18  C   UNL     1       7.794   1.769  -8.369  0.00  0.00    +0.000 A 
ATOM     19  C   UNL     1       6.925   1.929  -7.287  0.00  0.00    +0.000 A 
ENDBRANCH  13  14
ENDBRANCH  12  13
ENDBRANCH   4  12
TORSDOF 4
