REMARK  Name = 
REMARK  7 active torsions:
REMARK  status: ('A' for Active; 'I' for Inactive)
REMARK    1  A    between atoms: N_1  and  C_2
REMARK    2  A    between atoms: C_2  and  C_3
REMARK    3  A    between atoms: C_3  and  O_4
REMARK    4  A    between atoms: O_4  and  C_5
REMARK    5  A    between atoms: C_8  and  C_9
REMARK    6  A    between atoms: C_9  and  N_10
REMARK    7  A    between atoms: C_16  and  C_17
REMARK                            x       y       z     vdW  Elec       q    Type
REMARK                         _______ _______ _______ _____ _____    ______ ____
ROOT
ATOM      1  N   UNL     1       6.625   7.457  -0.848  0.00  0.00    +0.000 N 
ATOM      2  C   UNL     1       6.970   7.865   0.419  0.00  0.00    +0.000 A 
ATOM      3  C   UNL     1       6.432   9.114   0.628  0.00  0.00    +0.000 A 
ATOM      4  C   UNL     1       5.726   9.487  -0.548  0.00  0.00    +0.000 A 
ATOM      5  C   UNL     1       5.015  10.634  -0.932  0.00  0.00    +0.000 A 
ATOM      6  N   UNL     1       4.437  10.719  -2.156  0.00  0.00    +0.000 NA
ATOM      7  C   UNL     1       4.552   9.653  -2.996  0.00  0.00    +0.000 A 
ATOM      8  C   UNL     1       5.231   8.475  -2.706  0.00  0.00    +0.000 A 
ATOM      9  C   UNL     1       5.837   8.422  -1.449  0.00  0.00    +0.000 A 
ENDROOT
BRANCH   7  10
ATOM     10  C   UNL     1       3.914   9.797  -4.347  0.00  0.00    +0.000 C 
ATOM     11  N   UNL     1       3.302  10.994  -4.589  0.00  0.00    +0.000 N 
ATOM     12  O   UNL     1       3.944   8.909  -5.188  0.00  0.00    +0.000 OA
ATOM     13  H   UNL     1       3.309  11.714  -3.873  0.00  0.00    +0.000 HD
ATOM     14  H   UNL     1       2.874  11.165  -5.487  0.00  0.00    +0.000 HD
ENDBRANCH   7  10
BRANCH   1  15
ATOM     15  C   UNL     1       7.172   6.269  -1.500  0.00  0.00    +0.000 C 
BRANCH  15  19
ATOM     16  C   UNL     1       4.894   2.672  -0.722  0.00  0.00    +0.000 A 
ATOM     17  C   UNL     1       4.570   3.500  -1.796  0.00  0.00    +0.000 A 
ATOM     18  C   UNL     1       5.303   4.665  -2.040  0.00  0.00    +0.000 A 
ATOM     19  C   UNL     1       6.373   5.025  -1.214  0.00  0.00    +0.000 A 
ATOM     20  C   UNL     1       6.694   4.193  -0.132  0.00  0.00    +0.000 A 
ATOM     21  C   UNL     1       5.960   3.025   0.108  0.00  0.00    +0.000 A 
BRANCH  16  22
ATOM     22  O   UNL     1       4.250   1.508  -0.391  0.00  0.00    +0.000 OA
BRANCH  22  23
ATOM     23  C   UNL     1       3.129   1.166  -1.212  0.00  0.00    +0.000 C 
BRANCH  23  24
ATOM     24  C   UNL     1       2.498  -0.136  -0.709  0.00  0.00    +0.000 C 
BRANCH  24  25
ATOM     25  N   UNL     1       1.354  -0.526  -1.536  0.00  0.00    +0.000 NA
ATOM     26  H   UNL     1       0.968  -1.401  -1.183  0.00  0.00    +0.000 HD
ATOM     27  H   UNL     1       1.667  -0.719  -2.487  0.00  0.00    +0.000 HD
ENDBRANCH  24  25
ENDBRANCH  23  24
ENDBRANCH  22  23
ENDBRANCH  16  22
ENDBRANCH  15  19
ENDBRANCH   1  15
TORSDOF 7
