REMARK  Name = 
REMARK  7 active torsions:
REMARK  status: ('A' for Active; 'I' for Inactive)
REMARK    1  A    between atoms: N_1  and  C_2
REMARK    2  A    between atoms: C_2  and  N_3
REMARK    3  A    between atoms: C_2  and  C_16
REMARK    4  A    between atoms: C_4  and  C_6
REMARK    5  A    between atoms: C_19  and  C_20
REMARK    6  A    between atoms: C_20  and  N_21
REMARK    7  A    between atoms: C_22  and  C_24
REMARK                            x       y       z     vdW  Elec       q    Type
REMARK                         _______ _______ _______ _____ _____    ______ ____
ROOT
ATOM      1  C   UNL     1       2.431   0.011  -0.096  0.00  0.00    +0.000 C 
ENDROOT
BRANCH   1   2
ATOM      2  C   UNL     1       2.823   1.380   0.425  0.00  0.00    +0.000 A 
ATOM      3  C   UNL     1       2.459   2.529  -0.292  0.00  0.00    +0.000 A 
ATOM      4  C   UNL     1       2.753   3.805   0.202  0.00  0.00    +0.000 A 
ATOM      5  C   UNL     1       3.429   3.964   1.419  0.00  0.00    +0.000 A 
ATOM      6  C   UNL     1       3.800   2.822   2.136  0.00  0.00    +0.000 A 
ATOM      7  C   UNL     1       3.512   1.547   1.640  0.00  0.00    +0.000 A 
BRANCH   5   8
ATOM      8  C   UNL     1       3.764   5.337   1.936  0.00  0.00    +0.000 C 
BRANCH   8   9
ATOM      9  N   UNL     1       2.741   5.882   2.794  0.00  0.00    +0.000 N 
ATOM     10  C   UNL     1       2.855   7.163   3.288  0.00  0.00    +0.000 C 
ATOM     11  O   UNL     1       3.869   7.845   3.156  0.00  0.00    +0.000 OA
ATOM     12  H   UNL     1       1.810   5.474   2.818  0.00  0.00    +0.000 HD
BRANCH  10  13
ATOM     13  C   UNL     1       1.642   7.662   4.081  0.00  0.00    +0.000 C 
ATOM     14  C   UNL     1       1.705   7.266   5.542  0.00  0.00    +0.000 C 
ATOM     15  C   UNL     1       0.263   7.400   5.987  0.00  0.00    +0.000 C 
ATOM     16  C   UNL     1      -0.559   7.106   4.740  0.00  0.00    +0.000 C 
ATOM     17  N   UNL     1       0.385   7.018   3.621  0.00  0.00    +0.000 NA
ATOM     18  H   UNL     1       0.024   7.528   2.813  0.00  0.00    +0.000 HD
ENDBRANCH  10  13
ENDBRANCH   8   9
ENDBRANCH   5   8
ENDBRANCH   1   2
BRANCH   1  19
ATOM     19  N   UNL     1       1.691  -0.722   0.887  0.00  0.00    +0.000 N 
ATOM     20  C   UNL     1       0.779  -1.690   0.560  0.00  0.00    +0.000 C 
ATOM     21  O   UNL     1       0.587  -2.049  -0.599  0.00  0.00    +0.000 OA
ATOM     22  H   UNL     1       1.608  -0.280   1.795  0.00  0.00    +0.000 HD
BRANCH  20  23
ATOM     23  C   UNL     1       0.103  -2.350   1.685  0.00  0.00    +0.000 A 
ATOM     24  C   UNL     1      -0.399  -3.635   1.521  0.00  0.00    +0.000 A 
ATOM     25  S   UNL     1      -1.109  -4.278   2.930  0.00  0.00    +0.000 S 
ATOM     26  C   UNL     1      -0.812  -2.848   3.800  0.00  0.00    +0.000 A 
ATOM     27  N   UNL     1      -1.201  -2.723   5.098  0.00  0.00    +0.000 NA
ATOM     28  C   UNL     1      -0.933  -1.578   5.630  0.00  0.00    +0.000 A 
ATOM     29  N   UNL     1      -0.307  -0.543   4.982  0.00  0.00    +0.000 N 
ATOM     30  C   UNL     1       0.137  -0.638   3.685  0.00  0.00    +0.000 A 
ATOM     31  O   UNL     1       0.754   0.278   3.152  0.00  0.00    +0.000 OA
ATOM     32  C   UNL     1      -0.158  -1.900   3.033  0.00  0.00    +0.000 A 
ATOM     33  H   UNL     1      -0.112   0.323   5.461  0.00  0.00    +0.000 HD
ENDBRANCH  20  23
ENDBRANCH   1  19
BRANCH   1  34
ATOM     34  N   UNL     1       3.592  -0.807  -0.380  0.00  0.00    +0.000 NA
ATOM     35  H   UNL     1       3.241  -1.703  -0.717  0.00  0.00    +0.000 HD
ATOM     36  H   UNL     1       4.063  -1.006   0.495  0.00  0.00    +0.000 HD
ENDBRANCH   1  34
TORSDOF 7
