REMARK  Name = 
REMARK  5 active torsions:
REMARK  status: ('A' for Active; 'I' for Inactive)
REMARK    1  A    between atoms: C_1  and  C_2
REMARK    2  A    between atoms: C_7  and  C_8
REMARK    3  A    between atoms: C_8  and  O_9
REMARK    4  A    between atoms: O_9  and  C_10
REMARK    5  A    between atoms: C_13  and  C_14
REMARK                            x       y       z     vdW  Elec       q    Type
REMARK                         _______ _______ _______ _____ _____    ______ ____
ROOT
ATOM      1  C   UNL     1       3.211  -3.370  -0.391  0.00  0.00    +0.000 A 
ATOM      2  C   UNL     1       4.509  -3.089  -0.827  0.00  0.00    +0.000 A 
ATOM      3  C   UNL     1       5.314  -4.107  -1.357  0.00  0.00    +0.000 A 
ATOM      4  C   UNL     1       4.828  -5.419  -1.441  0.00  0.00    +0.000 A 
ATOM      5  C   UNL     1       3.548  -5.690  -0.962  0.00  0.00    +0.000 A 
ATOM      6  F   UNL     1       3.032  -6.929  -1.006  0.00  0.00    +0.000 F 
ATOM      7  C   UNL     1       2.747  -4.683  -0.430  0.00  0.00    +0.000 A 
ENDROOT
BRANCH   4   8
ATOM      8  C   UNL     1       5.691  -6.472  -2.042  0.00  0.00    +0.000 C 
ATOM      9  N   UNL     1       5.191  -7.740  -2.126  0.00  0.00    +0.000 N 
ATOM     10  O   UNL     1       6.811  -6.215  -2.458  0.00  0.00    +0.000 OA
ATOM     11  H   UNL     1       4.267  -7.998  -1.797  0.00  0.00    +0.000 HD
ATOM     12  H   UNL     1       5.772  -8.455  -2.541  0.00  0.00    +0.000 HD
ENDBRANCH   4   8
BRANCH   1  13
ATOM     13  O   UNL     1       2.477  -2.302   0.056  0.00  0.00    +0.000 OA
BRANCH  13  14
ATOM     14  C   UNL     1       1.057  -2.486   0.014  0.00  0.00    +0.000 C 
BRANCH  14  21
ATOM     15  C   UNL     1       0.005  -1.132   2.524  0.00  0.00    +0.000 C 
ATOM     16  C   UNL     1      -0.113  -0.507   1.161  0.00  0.00    +0.000 A 
ATOM     17  C   UNL     1      -0.739   0.744   1.042  0.00  0.00    +0.000 A 
ATOM     18  C   UNL     1      -0.882   1.364  -0.200  0.00  0.00    +0.000 A 
ATOM     19  C   UNL     1      -0.401   0.741  -1.346  0.00  0.00    +0.000 A 
ATOM     20  C   UNL     1       0.225  -0.498  -1.246  0.00  0.00    +0.000 A 
ATOM     21  C   UNL     1       0.372  -1.141  -0.002  0.00  0.00    +0.000 A 
ENDBRANCH  14  21
ENDBRANCH  13  14
ENDBRANCH   1  13
TORSDOF 4
