REMARK  Name = 
REMARK  5 active torsions:
REMARK  status: ('A' for Active; 'I' for Inactive)
REMARK    1  A    between atoms: C_2  and  C_18
REMARK    2  A    between atoms: N_3  and  C_4
REMARK    3  A    between atoms: C_4  and  C_5
REMARK    4  A    between atoms: N_8  and  C_9
REMARK    5  A    between atoms: C_9  and  C_10
REMARK                            x       y       z     vdW  Elec       q    Type
REMARK                         _______ _______ _______ _____ _____    ______ ____
ROOT
ATOM      1  O   UNL     1       0.103   0.890   3.943  0.00  0.00    +0.000 OA
ATOM      2  C   UNL     1      -0.142   1.536   2.929  0.00  0.00    +0.000 C 
ATOM      3  N   UNL     1       0.815   1.837   1.991  0.00  0.00    +0.000 N 
ATOM      4  H   UNL     1       0.522   2.244   1.111  0.00  0.00    +0.000 HD
ENDROOT
BRANCH   2   5
ATOM      5  C   UNL     1      -1.478   2.090   2.667  0.00  0.00    +0.000 A 
ATOM      6  C   UNL     1      -2.359   2.315   3.715  0.00  0.00    +0.000 A 
ATOM      7  S   UNL     1      -3.821   3.051   3.230  0.00  0.00    +0.000 S 
ATOM      8  C   UNL     1      -3.348   3.048   1.595  0.00  0.00    +0.000 A 
ATOM      9  N   UNL     1      -4.153   3.562   0.627  0.00  0.00    +0.000 NA
ATOM     10  C   UNL     1      -3.684   3.456  -0.571  0.00  0.00    +0.000 A 
ATOM     11  N   UNL     1      -2.487   2.870  -0.892  0.00  0.00    +0.000 N 
ATOM     12  C   UNL     1      -1.627   2.367   0.053  0.00  0.00    +0.000 A 
ATOM     13  O   UNL     1      -0.539   1.900  -0.267  0.00  0.00    +0.000 OA
ATOM     14  C   UNL     1      -2.101   2.474   1.420  0.00  0.00    +0.000 A 
ATOM     15  H   UNL     1      -2.177   2.816  -1.851  0.00  0.00    +0.000 HD
ENDBRANCH   2   5
BRANCH   3  16
ATOM     16  C   UNL     1       2.169   1.332   2.036  0.00  0.00    +0.000 C 
BRANCH  16  17
ATOM     17  C   UNL     1       3.119   2.217   2.858  0.00  0.00    +0.000 C 
ATOM     18  C   UNL     1       3.214   3.660   2.339  0.00  0.00    +0.000 C 
ATOM     19  C   UNL     1       3.884   3.739   0.966  0.00  0.00    +0.000 C 
ATOM     20  N   UNL     1       5.221   3.130   0.954  0.00  0.00    +0.000 NA
ATOM     21  C   UNL     1       5.237   1.765   1.508  0.00  0.00    +0.000 C 
ATOM     22  C   UNL     1       4.538   1.637   2.868  0.00  0.00    +0.000 C 
BRANCH  20  23
ATOM     23  C   UNL     1       5.804   3.117  -0.408  0.00  0.00    +0.000 C 
BRANCH  23  24
ATOM     24  C   UNL     1       6.012   4.502  -1.074  0.00  0.00    +0.000 C 
ATOM     25  C   UNL     1       6.658   4.318  -2.463  0.00  0.00    +0.000 C 
ATOM     26  C   UNL     1       7.070   5.638  -3.116  0.00  0.00    +0.000 C 
ATOM     27  C   UNL     1       7.935   6.478  -2.185  0.00  0.00    +0.000 C 
ATOM     28  C   UNL     1       7.208   6.740  -0.873  0.00  0.00    +0.000 C 
ATOM     29  C   UNL     1       6.847   5.431  -0.178  0.00  0.00    +0.000 C 
ENDBRANCH  23  24
ENDBRANCH  20  23
ENDBRANCH  16  17
ENDBRANCH   3  16
TORSDOF 5
