REMARK  Name = 
REMARK  6 active torsions:
REMARK  status: ('A' for Active; 'I' for Inactive)
REMARK    1  A    between atoms: N_1  and  C_2
REMARK    2  A    between atoms: C_2  and  C_3
REMARK    3  A    between atoms: C_3  and  O_4
REMARK    4  A    between atoms: O_4  and  C_5
REMARK    5  A    between atoms: C_8  and  C_9
REMARK    6  A    between atoms: C_9  and  C_10
REMARK                            x       y       z     vdW  Elec       q    Type
REMARK                         _______ _______ _______ _____ _____    ______ ____
ROOT
ATOM      1  C   UNL     1       5.052  -1.593  -1.994  0.00  0.00    +0.000 A 
ATOM      2  C   UNL     1       4.591  -1.542  -3.299  0.00  0.00    +0.000 A 
ATOM      3  C   UNL     1       5.201  -2.355  -4.253  0.00  0.00    +0.000 A 
ATOM      4  C   UNL     1       6.251  -3.204  -3.875  0.00  0.00    +0.000 A 
ATOM      5  C   UNL     1       6.608  -3.195  -2.530  0.00  0.00    +0.000 A 
ATOM      6  N   UNL     1       6.041  -2.418  -1.591  0.00  0.00    +0.000 NA
ENDROOT
BRANCH   1   7
ATOM      7  O   UNL     1       4.454  -0.775  -1.056  0.00  0.00    +0.000 OA
BRANCH   7   8
ATOM      8  C   UNL     1       5.356  -0.490   0.025  0.00  0.00    +0.000 C 
BRANCH   8   9
ATOM      9  C   UNL     1       4.665   0.381   1.077  0.00  0.00    +0.000 C 
BRANCH   9  10
ATOM     10  N   UNL     1       4.198   1.653   0.521  0.00  0.00    +0.000 NA
ATOM     11  H   UNL     1       3.688   2.166   1.237  0.00  0.00    +0.000 HD
ATOM     12  H   UNL     1       3.527   1.441  -0.219  0.00  0.00    +0.000 HD
ENDBRANCH   9  10
ENDBRANCH   8   9
ENDBRANCH   7   8
ENDBRANCH   1   7
BRANCH   4  13
ATOM     13  C   UNL     1       7.025  -4.049  -4.850  0.00  0.00    +0.000 C 
BRANCH  13  14
ATOM     14  C   UNL     1       6.372  -5.393  -4.901  0.00  0.00    +0.000 A 
ATOM     15  C   UNL     1       6.669  -6.488  -4.109  0.00  0.00    +0.000 A 
ATOM     16  N   UNL     1       5.851  -7.525  -4.474  0.00  0.00    +0.000 N 
ATOM     17  C   UNL     1       5.019  -7.134  -5.496  0.00  0.00    +0.000 A 
ATOM     18  C   UNL     1       4.009  -7.842  -6.158  0.00  0.00    +0.000 A 
ATOM     19  C   UNL     1       3.315  -7.170  -7.162  0.00  0.00    +0.000 A 
ATOM     20  F   UNL     1       2.315  -7.800  -7.794  0.00  0.00    +0.000 F 
ATOM     21  C   UNL     1       3.626  -5.866  -7.524  0.00  0.00    +0.000 A 
ATOM     22  C   UNL     1       4.649  -5.179  -6.862  0.00  0.00    +0.000 A 
ATOM     23  C   UNL     1       5.345  -5.812  -5.809  0.00  0.00    +0.000 A 
ATOM     24  H   UNL     1       5.847  -8.442  -4.048  0.00  0.00    +0.000 HD
ENDBRANCH  13  14
ENDBRANCH   4  13
TORSDOF 6
