REMARK  Name = 
REMARK  10 active torsions:
REMARK  status: ('A' for Active; 'I' for Inactive)
REMARK    1  A    between atoms: C_1  and  C_2
REMARK    2  A    between atoms: C_2  and  N_3
REMARK    3  A    between atoms: C_2  and  C_20
REMARK    4  A    between atoms: N_3  and  C_4
REMARK    5  A    between atoms: C_4  and  C_5
REMARK    6  A    between atoms: C_8  and  C_9
REMARK    7  A    between atoms: C_9  and  N_10
REMARK    8  A    between atoms: N_10  and  C_11
REMARK    9  A    between atoms: C_11  and  C_12
REMARK   10  A    between atoms: N_15  and  C_16
REMARK                            x       y       z     vdW  Elec       q    Type
REMARK                         _______ _______ _______ _____ _____    ______ ____
ROOT
ATOM      1  C   UNL     1      -2.859   6.415 -14.083  0.00  0.00    +0.000 C 
ENDROOT
BRANCH   1   2
ATOM      2  C   UNL     1      -1.504   5.844 -13.712  0.00  0.00    +0.000 A 
ATOM      3  C   UNL     1      -1.087   5.800 -12.373  0.00  0.00    +0.000 A 
ATOM      4  C   UNL     1       0.171   5.298 -12.032  0.00  0.00    +0.000 A 
ATOM      5  C   UNL     1       1.037   4.806 -13.018  0.00  0.00    +0.000 A 
ATOM      6  C   UNL     1       0.620   4.845 -14.356  0.00  0.00    +0.000 A 
ATOM      7  C   UNL     1      -0.634   5.361 -14.699  0.00  0.00    +0.000 A 
BRANCH   5   8
ATOM      8  C   UNL     1       2.402   4.274 -12.642  0.00  0.00    +0.000 C 
BRANCH   8   9
ATOM      9  N   UNL     1       2.302   3.139 -11.716  0.00  0.00    +0.000 NA
ATOM     10  H   UNL     1       1.757   2.406 -12.171  0.00  0.00    +0.000 HD
BRANCH   9  11
ATOM     11  C   UNL     1       3.629   2.629 -11.370  0.00  0.00    +0.000 C 
BRANCH  11  12
ATOM     12  C   UNL     1       3.560   1.395 -10.462  0.00  0.00    +0.000 C 
ATOM     13  C   UNL     1       4.960   0.861 -10.112  0.00  0.00    +0.000 C 
ATOM     14  C   UNL     1       4.966   0.715  -8.597  0.00  0.00    +0.000 C 
ATOM     15  N   UNL     1       3.545   0.582  -8.285  0.00  0.00    +0.000 NA
ATOM     16  C   UNL     1       3.274   0.707  -6.862  0.00  0.00    +0.000 C 
ATOM     17  C   UNL     1       2.894   1.615  -9.101  0.00  0.00    +0.000 C 
ENDBRANCH  11  12
ENDBRANCH   9  11
ENDBRANCH   8   9
ENDBRANCH   5   8
ENDBRANCH   1   2
BRANCH   1  18
ATOM     18  N   UNL     1      -2.920   7.833 -13.746  0.00  0.00    +0.000 NA
ATOM     19  H   UNL     1      -2.697   7.933 -12.757  0.00  0.00    +0.000 HD
BRANCH  18  21
ATOM     20  C   UNL     1      -4.617   8.499 -15.455  0.00  0.00    +0.000 C 
ATOM     21  C   UNL     1      -4.224   8.467 -13.976  0.00  0.00    +0.000 C 
BRANCH  21  22
ATOM     22  C   UNL     1      -4.115   9.880 -13.421  0.00  0.00    +0.000 A 
ATOM     23  C   UNL     1      -2.972  10.668 -13.490  0.00  0.00    +0.000 A 
ATOM     24  S   UNL     1      -3.139  12.181 -12.724  0.00  0.00    +0.000 S 
ATOM     25  C   UNL     1      -4.758  11.857 -12.313  0.00  0.00    +0.000 A 
ATOM     26  N   UNL     1      -5.504  12.766 -11.631  0.00  0.00    +0.000 NA
ATOM     27  C   UNL     1      -6.719  12.394 -11.408  0.00  0.00    +0.000 A 
ATOM     28  N   UNL     1      -7.260  11.196 -11.805  0.00  0.00    +0.000 N 
ATOM     29  C   UNL     1      -6.544  10.238 -12.491  0.00  0.00    +0.000 A 
ATOM     30  O   UNL     1      -7.054   9.180 -12.840  0.00  0.00    +0.000 OA
ATOM     31  C   UNL     1      -5.166  10.615 -12.756  0.00  0.00    +0.000 A 
ATOM     32  H   UNL     1      -8.225  10.975 -11.610  0.00  0.00    +0.000 HD
ENDBRANCH  21  22
ENDBRANCH  18  21
ENDBRANCH   1  18
TORSDOF 8
