REMARK  Name = 
REMARK  4 active torsions:
REMARK  status: ('A' for Active; 'I' for Inactive)
REMARK    1  A    between atoms: C_2  and  C_4
REMARK    2  A    between atoms: N_8  and  C_9
REMARK    3  A    between atoms: C_9  and  C_10
REMARK    4  A    between atoms: C_14  and  N_15
REMARK                            x       y       z     vdW  Elec       q    Type
REMARK                         _______ _______ _______ _____ _____    ______ ____
ROOT
ATOM      1  C   UNL     1       2.796   0.404   2.568  0.00  0.00    +0.000 A 
ATOM      2  C   UNL     1       2.462  -0.333   3.696  0.00  0.00    +0.000 A 
ATOM      3  C   UNL     1       3.416  -1.179   4.261  0.00  0.00    +0.000 A 
ATOM      4  C   UNL     1       4.682  -1.289   3.692  0.00  0.00    +0.000 A 
ATOM      5  N   UNL     1       5.705  -2.018   4.267  0.00  0.00    +0.000 N 
ATOM      6  N   UNL     1       5.010  -0.592   2.584  0.00  0.00    +0.000 NA
ATOM      7  C   UNL     1       4.068   0.230   2.041  0.00  0.00    +0.000 A 
ATOM      8  H   UNL     1       6.487  -2.034   3.619  0.00  0.00    +0.000 HD
ENDROOT
BRANCH   1  10
ATOM      9  N   UNL     1       0.898   1.921   2.702  0.00  0.00    +0.000 N 
ATOM     10  C   UNL     1       1.855   1.336   1.914  0.00  0.00    +0.000 C 
ATOM     11  O   UNL     1       1.940   1.599   0.722  0.00  0.00    +0.000 OA
ATOM     12  H   UNL     1       0.328   2.629   2.263  0.00  0.00    +0.000 HD
ATOM     13  H   UNL     1       0.961   1.931   3.713  0.00  0.00    +0.000 HD
ENDBRANCH   1  10
BRANCH   5  14
ATOM     14  C   UNL     1       5.436  -3.283   4.928  0.00  0.00    +0.000 C 
BRANCH  14  15
ATOM     15  C   UNL     1       6.514  -3.631   5.924  0.00  0.00    +0.000 A 
ATOM     16  C   UNL     1       6.761  -4.967   6.223  0.00  0.00    +0.000 A 
ATOM     17  N   UNL     1       7.663  -5.385   7.130  0.00  0.00    +0.000 NA
ATOM     18  C   UNL     1       8.350  -4.414   7.779  0.00  0.00    +0.000 A 
ATOM     19  C   UNL     1       8.195  -3.035   7.598  0.00  0.00    +0.000 A 
ATOM     20  C   UNL     1       7.230  -2.666   6.654  0.00  0.00    +0.000 A 
BRANCH  19  21
ATOM     21  N   UNL     1       8.941  -2.121   8.312  0.00  0.00    +0.000 N 
ATOM     22  C   UNL     1       8.458  -0.782   8.676  0.00  0.00    +0.000 C 
ATOM     23  C   UNL     1       9.334   0.306   8.039  0.00  0.00    +0.000 C 
ATOM     24  O   UNL     1      10.727   0.107   8.335  0.00  0.00    +0.000 OA
ATOM     25  C   UNL     1      11.162  -1.166   7.831  0.00  0.00    +0.000 C 
ATOM     26  C   UNL     1      10.390  -2.325   8.483  0.00  0.00    +0.000 C 
ENDBRANCH  19  21
ENDBRANCH  14  15
ENDBRANCH   5  14
TORSDOF 4
