REMARK  Name = 
REMARK  6 active torsions:
REMARK  status: ('A' for Active; 'I' for Inactive)
REMARK    1  A    between atoms: C_1  and  O_2
REMARK    2  A    between atoms: O_2  and  C_3
REMARK    3  A    between atoms: N_10  and  C_11
REMARK    4  A    between atoms: C_11  and  C_12
REMARK    5  A    between atoms: C_15  and  C_16
REMARK    6  A    between atoms: C_16  and  N_17
REMARK                            x       y       z     vdW  Elec       q    Type
REMARK                         _______ _______ _______ _____ _____    ______ ____
ROOT
ATOM      1  C   UNL     1       3.047   0.592  -1.040  0.00  0.00    +0.000 A 
ATOM      2  C   UNL     1       2.548   1.848  -1.381  0.00  0.00    +0.000 A 
ATOM      3  C   UNL     1       3.153   2.619  -2.384  0.00  0.00    +0.000 A 
ATOM      4  C   UNL     1       4.275   2.095  -3.045  0.00  0.00    +0.000 A 
ATOM      5  C   UNL     1       4.781   0.830  -2.730  0.00  0.00    +0.000 A 
ATOM      6  C   UNL     1       5.884   0.585  -3.591  0.00  0.00    +0.000 A 
ATOM      7  C   UNL     1       6.046   1.693  -4.387  0.00  0.00    +0.000 A 
ATOM      8  N   UNL     1       5.089   2.617  -4.038  0.00  0.00    +0.000 N 
ATOM      9  C   UNL     1       4.168   0.084  -1.703  0.00  0.00    +0.000 A 
ENDROOT
BRANCH   1  11
ATOM     10  C   UNL     1       1.171  -0.049   0.251  0.00  0.00    +0.000 C 
ATOM     11  O   UNL     1       2.552  -0.211  -0.048  0.00  0.00    +0.000 OA
ENDBRANCH   1  11
BRANCH   8  12
ATOM     12  C   UNL     1       5.036   3.979  -4.574  0.00  0.00    +0.000 C 
BRANCH  12  13
ATOM     13  C   UNL     1       4.211   4.051  -5.832  0.00  0.00    +0.000 A 
ATOM     14  C   UNL     1       2.856   4.399  -5.776  0.00  0.00    +0.000 A 
ATOM     15  C   UNL     1       2.056   4.326  -6.920  0.00  0.00    +0.000 A 
ATOM     16  C   UNL     1       2.593   3.912  -8.147  0.00  0.00    +0.000 A 
ATOM     17  C   UNL     1       3.964   3.631  -8.214  0.00  0.00    +0.000 A 
ATOM     18  C   UNL     1       4.766   3.707  -7.072  0.00  0.00    +0.000 A 
BRANCH  16  19
ATOM     19  C   UNL     1       1.665   3.631  -9.304  0.00  0.00    +0.000 C 
BRANCH  19  20
ATOM     20  N   UNL     1       2.262   3.880 -10.612  0.00  0.00    +0.000 NA
ATOM     21  H   UNL     1       2.464   4.875 -10.693  0.00  0.00    +0.000 HD
ATOM     22  H   UNL     1       1.574   3.666 -11.332  0.00  0.00    +0.000 HD
ENDBRANCH  19  20
ENDBRANCH  16  19
ENDBRANCH  12  13
ENDBRANCH   8  12
TORSDOF 5
