REMARK  Name = 
REMARK  4 active torsions:
REMARK  status: ('A' for Active; 'I' for Inactive)
REMARK    1  A    between atoms: C_2  and  C_3
REMARK    2  A    between atoms: C_6  and  N_7
REMARK    3  A    between atoms: N_7  and  C_8
REMARK    4  A    between atoms: C_8  and  C_9
REMARK                            x       y       z     vdW  Elec       q    Type
REMARK                         _______ _______ _______ _____ _____    ______ ____
ROOT
ATOM      1  N   UNL     1       7.563  -0.046  -0.215  0.00  0.00    +0.000 N 
ATOM      2  H   UNL     1       7.169   0.495  -0.975  0.00  0.00    +0.000 HD
ENDROOT
BRANCH   1   6
ATOM      3  C   UNL     1       4.960  -0.374   2.945  0.00  0.00    +0.000 A 
ATOM      4  C   UNL     1       5.585  -1.494   2.433  0.00  0.00    +0.000 A 
ATOM      5  N   UNL     1       6.457  -1.427   1.401  0.00  0.00    +0.000 NA
ATOM      6  C   UNL     1       6.690  -0.210   0.867  0.00  0.00    +0.000 A 
ATOM      7  C   UNL     1       6.061   0.913   1.416  0.00  0.00    +0.000 A 
ATOM      8  N   UNL     1       5.187   0.866   2.454  0.00  0.00    +0.000 NA
BRANCH   3  10
ATOM      9  N   UNL     1       3.273  -0.638   4.896  0.00  0.00    +0.000 NA
ATOM     10  C   UNL     1       4.025  -0.492   4.028  0.00  0.00    +0.000 C 
ENDBRANCH   3  10
ENDBRANCH   1   6
BRANCH   1  11
ATOM     11  C   UNL     1       8.705  -0.915  -0.514  0.00  0.00    +0.000 C 
ATOM     12  C   UNL     1       8.512  -2.072  -1.483  0.00  0.00    +0.000 C 
ATOM     13  C   UNL     1       8.860  -2.359  -0.060  0.00  0.00    +0.000 C 
BRANCH  11  14
ATOM     14  C   UNL     1      10.012  -0.140  -0.594  0.00  0.00    +0.000 A 
ATOM     15  C   UNL     1      10.764   0.091   0.570  0.00  0.00    +0.000 A 
ATOM     16  C   UNL     1      12.079   0.545   0.493  0.00  0.00    +0.000 A 
ATOM     17  C   UNL     1      12.646   0.813  -0.748  0.00  0.00    +0.000 A 
ATOM     18  C   UNL     1      11.880   0.700  -1.906  0.00  0.00    +0.000 A 
ATOM     19  C   UNL     1      10.564   0.249  -1.824  0.00  0.00    +0.000 A 
ENDBRANCH  11  14
ENDBRANCH   1  11
TORSDOF 4
