REMARK  Name = 
REMARK  7 active torsions:
REMARK  status: ('A' for Active; 'I' for Inactive)
REMARK    1  A    between atoms: C_1  and  N_2
REMARK    2  A    between atoms: N_2  and  C_3
REMARK    3  A    between atoms: C_3  and  C_4
REMARK    4  A    between atoms: C_7  and  C_8
REMARK    5  A    between atoms: C_8  and  C_9
REMARK    6  A    between atoms: C_9  and  C_10
REMARK    7  A    between atoms: C_19  and  C_21
REMARK                            x       y       z     vdW  Elec       q    Type
REMARK                         _______ _______ _______ _____ _____    ______ ____
ROOT
ATOM      1  C   UNL     1       3.046   0.037   1.239  0.00  0.00    +0.000 C 
ENDROOT
BRANCH   1   2
ATOM      2  C   UNL     1       2.198  -0.312   2.434  0.00  0.00    +0.000 A 
ATOM      3  C   UNL     1       1.981  -1.650   2.794  0.00  0.00    +0.000 A 
ATOM      4  C   UNL     1       1.152  -1.969   3.870  0.00  0.00    +0.000 A 
ATOM      5  C   UNL     1       0.538  -0.954   4.616  0.00  0.00    +0.000 A 
ATOM      6  C   UNL     1       0.768   0.383   4.265  0.00  0.00    +0.000 A 
ATOM      7  C   UNL     1       1.589   0.701   3.181  0.00  0.00    +0.000 A 
BRANCH   5   8
ATOM      8  C   UNL     1      -0.408  -1.276   5.746  0.00  0.00    +0.000 C 
BRANCH   8   9
ATOM      9  C   UNL     1       0.247  -2.084   6.864  0.00  0.00    +0.000 C 
BRANCH   9  10
ATOM     10  C   UNL     1      -0.733  -2.361   7.988  0.00  0.00    +0.000 C 
ATOM     11  O   UNL     1      -1.875  -1.905   7.988  0.00  0.00    +0.000 OA
ATOM     12  N   UNL     1      -0.278  -3.178   8.999  0.00  0.00    +0.000 N 
ATOM     13  C   UNL     1       1.048  -3.743   9.161  0.00  0.00    +0.000 C 
ATOM     14  C   UNL     1       0.776  -5.041   9.899  0.00  0.00    +0.000 C 
ATOM     15  C   UNL     1      -0.383  -4.682  10.823  0.00  0.00    +0.000 C 
ATOM     16  C   UNL     1      -1.164  -3.613  10.063  0.00  0.00    +0.000 C 
ENDBRANCH   9  10
ENDBRANCH   8   9
ENDBRANCH   5   8
ENDBRANCH   1   2
BRANCH   1  18
ATOM     17  C   UNL     1       0.927  -0.063  -0.146  0.00  0.00    +0.000 C 
ATOM     18  N   UNL     1       2.350   0.244  -0.037  0.00  0.00    +0.000 N 
ATOM     19  C   UNL     1       2.908   0.951  -1.116  0.00  0.00    +0.000 C 
ATOM     20  O   UNL     1       2.227   1.267  -2.090  0.00  0.00    +0.000 OA
BRANCH  19  21
ATOM     21  C   UNL     1       4.340   1.278  -1.104  0.00  0.00    +0.000 A 
ATOM     22  C   UNL     1       5.344   0.393  -0.745  0.00  0.00    +0.000 A 
ATOM     23  S   UNL     1       6.916   1.038  -0.911  0.00  0.00    +0.000 S 
ATOM     24  C   UNL     1       6.312   2.472  -1.599  0.00  0.00    +0.000 A 
ATOM     25  N   UNL     1       7.152   3.429  -2.075  0.00  0.00    +0.000 NA
ATOM     26  C   UNL     1       6.552   4.427  -2.636  0.00  0.00    +0.000 A 
ATOM     27  N   UNL     1       5.190   4.572  -2.723  0.00  0.00    +0.000 N 
ATOM     28  C   UNL     1       4.300   3.698  -2.133  0.00  0.00    +0.000 A 
ATOM     29  O   UNL     1       3.116   3.984  -2.019  0.00  0.00    +0.000 OA
ATOM     30  C   UNL     1       4.929   2.497  -1.607  0.00  0.00    +0.000 A 
ATOM     31  H   UNL     1       4.785   5.411  -3.110  0.00  0.00    +0.000 HD
ENDBRANCH  19  21
ENDBRANCH   1  18
TORSDOF 6
