REMARK  Name = 
REMARK  6 active torsions:
REMARK  status: ('A' for Active; 'I' for Inactive)
REMARK    1  A    between atoms: C_1  and  N_2
REMARK    2  A    between atoms: N_2  and  C_3
REMARK    3  A    between atoms: C_3  and  C_4
REMARK    4  A    between atoms: C_8  and  C_9
REMARK    5  A    between atoms: C_9  and  N_10
REMARK    6  A    between atoms: C_15  and  N_16
REMARK                            x       y       z     vdW  Elec       q    Type
REMARK                         _______ _______ _______ _____ _____    ______ ____
ROOT
ATOM      1  N   UNL     1       7.274  -0.275  -4.866  0.00  0.00    +0.000 N 
ATOM      2  C   UNL     1       8.125   0.752  -5.185  0.00  0.00    +0.000 A 
ATOM      3  N   UNL     1       7.896   1.225  -6.392  0.00  0.00    +0.000 NA
ATOM      4  C   UNL     1       6.860   0.468  -6.880  0.00  0.00    +0.000 A 
ATOM      5  C   UNL     1       6.222   0.490  -8.124  0.00  0.00    +0.000 A 
ATOM      6  C   UNL     1       5.203  -0.453  -8.311  0.00  0.00    +0.000 A 
ATOM      7  C   UNL     1       4.867  -1.338  -7.287  0.00  0.00    +0.000 A 
ATOM      8  N   UNL     1       5.471  -1.394  -6.070  0.00  0.00    +0.000 NA
ATOM      9  C   UNL     1       6.448  -0.470  -5.940  0.00  0.00    +0.000 A 
ENDROOT
BRANCH   6  10
ATOM     10  N   UNL     1       4.502  -0.533  -9.584  0.00  0.00    +0.000 N 
ATOM     11  O   UNL     1       4.845   0.248 -10.482  0.00  0.00    +0.000 OA
ATOM     12  O   UNL     1       3.607  -1.383  -9.697  0.00  0.00    +0.000 OA
ENDBRANCH   6  10
BRANCH   1  13
ATOM     13  C   UNL     1       7.389  -1.139  -3.708  0.00  0.00    +0.000 C 
BRANCH  13  18
ATOM     14  C   UNL     1       4.494  -0.250  -1.364  0.00  0.00    +0.000 A 
ATOM     15  C   UNL     1       5.191  -0.042  -0.166  0.00  0.00    +0.000 A 
ATOM     16  C   UNL     1       6.584  -0.100  -0.136  0.00  0.00    +0.000 A 
ATOM     17  C   UNL     1       7.298  -0.402  -1.296  0.00  0.00    +0.000 A 
ATOM     18  C   UNL     1       6.627  -0.651  -2.501  0.00  0.00    +0.000 A 
ATOM     19  C   UNL     1       5.225  -0.555  -2.524  0.00  0.00    +0.000 A 
BRANCH  14  20
ATOM     20  C   UNL     1       2.981  -0.219  -1.402  0.00  0.00    +0.000 C 
BRANCH  20  22
ATOM     21  C   UNL     1       0.992   1.083  -1.032  0.00  0.00    +0.000 C 
ATOM     22  N   UNL     1       2.446   1.076  -0.981  0.00  0.00    +0.000 NA
ATOM     23  H   UNL     1       2.747   1.269  -0.028  0.00  0.00    +0.000 HD
ENDBRANCH  20  22
ENDBRANCH  14  20
ENDBRANCH  13  18
ENDBRANCH   1  13
TORSDOF 5
