REMARK  Name = 
REMARK  4 active torsions:
REMARK  status: ('A' for Active; 'I' for Inactive)
REMARK    1  A    between atoms: C_2  and  C_4
REMARK    2  A    between atoms: N_8  and  C_9
REMARK    3  A    between atoms: C_9  and  C_10
REMARK    4  A    between atoms: C_14  and  C_15
REMARK                            x       y       z     vdW  Elec       q    Type
REMARK                         _______ _______ _______ _____ _____    ______ ____
ROOT
ATOM      1  C   UNL     1       5.096  -5.966  -0.232  0.00  0.00    +0.000 C 
ENDROOT
BRANCH   1   6
ATOM      2  C   UNL     1       7.707  -2.432  -2.934  0.00  0.00    +0.000 A 
ATOM      3  C   UNL     1       7.291  -3.710  -3.286  0.00  0.00    +0.000 A 
ATOM      4  C   UNL     1       6.597  -4.479  -2.353  0.00  0.00    +0.000 A 
ATOM      5  C   UNL     1       6.335  -3.964  -1.088  0.00  0.00    +0.000 A 
ATOM      6  N   UNL     1       5.619  -4.627  -0.134  0.00  0.00    +0.000 N 
ATOM      7  N   UNL     1       6.768  -2.740  -0.728  0.00  0.00    +0.000 NA
ATOM      8  C   UNL     1       7.444  -2.001  -1.644  0.00  0.00    +0.000 A 
ATOM      9  H   UNL     1       5.612  -4.163   0.765  0.00  0.00    +0.000 HD
BRANCH   2  11
ATOM     10  N   UNL     1       8.173  -1.723  -5.204  0.00  0.00    +0.000 N 
ATOM     11  C   UNL     1       8.413  -1.537  -3.870  0.00  0.00    +0.000 C 
ATOM     12  O   UNL     1       9.153  -0.645  -3.473  0.00  0.00    +0.000 OA
ATOM     13  H   UNL     1       8.577  -1.042  -5.833  0.00  0.00    +0.000 HD
ATOM     14  H   UNL     1       7.390  -2.262  -5.544  0.00  0.00    +0.000 HD
ENDBRANCH   2  11
ENDBRANCH   1   6
BRANCH   1  15
ATOM     15  C   UNL     1       6.082  -7.048   0.150  0.00  0.00    +0.000 A 
ATOM     16  C   UNL     1       7.362  -6.789   0.655  0.00  0.00    +0.000 A 
ATOM     17  C   UNL     1       8.195  -7.835   1.043  0.00  0.00    +0.000 A 
ATOM     18  C   UNL     1       7.755  -9.156   0.945  0.00  0.00    +0.000 A 
ATOM     19  C   UNL     1       6.481  -9.455   0.445  0.00  0.00    +0.000 A 
ATOM     20  C   UNL     1       5.662  -8.388   0.042  0.00  0.00    +0.000 A 
BRANCH  19  21
ATOM     21  C   UNL     1       5.976 -10.846   0.443  0.00  0.00    +0.000 C 
ATOM     22  C   UNL     1       5.152 -11.327  -0.509  0.00  0.00    +0.000 C 
ATOM     23  C   UNL     1       4.589 -12.720  -0.492  0.00  0.00    +0.000 C 
ATOM     24  N   UNL     1       5.211 -13.616   0.486  0.00  0.00    +0.000 NA
ATOM     25  C   UNL     1       5.418 -12.922   1.761  0.00  0.00    +0.000 C 
ATOM     26  C   UNL     1       6.376 -11.734   1.599  0.00  0.00    +0.000 C 
ATOM     27  H   UNL     1       6.119 -13.898   0.119  0.00  0.00    +0.000 HD
ENDBRANCH  19  21
ENDBRANCH   1  15
TORSDOF 4
