REMARK  Name = 
REMARK  5 active torsions:
REMARK  status: ('A' for Active; 'I' for Inactive)
REMARK    1  A    between atoms: C_1  and  C_2
REMARK    2  A    between atoms: N_8  and  C_9
REMARK    3  A    between atoms: C_9  and  C_10
REMARK    4  A    between atoms: C_17  and  C_18
REMARK    5  A    between atoms: C_18  and  N_19
REMARK                            x       y       z     vdW  Elec       q    Type
REMARK                         _______ _______ _______ _____ _____    ______ ____
ROOT
ATOM      1  C   UNL     1       1.059   0.073  -0.098  0.00  0.00    +0.000 C 
ATOM      2  C   UNL     1       2.563  -0.004  -0.083  0.00  0.00    +0.000 A 
ATOM      3  C   UNL     1       3.287   1.206  -0.132  0.00  0.00    +0.000 A 
ATOM      4  C   UNL     1       4.689   1.171  -0.055  0.00  0.00    +0.000 A 
ATOM      5  C   UNL     1       5.384  -0.037   0.020  0.00  0.00    +0.000 A 
ATOM      6  C   UNL     1       6.769   0.269   0.072  0.00  0.00    +0.000 A 
ATOM      7  C   UNL     1       6.895   1.639   0.062  0.00  0.00    +0.000 A 
ATOM      8  N   UNL     1       5.633   2.180  -0.008  0.00  0.00    +0.000 N 
ATOM      9  C   UNL     1       4.654  -1.240   0.046  0.00  0.00    +0.000 A 
ATOM     10  C   UNL     1       3.242  -1.234   0.013  0.00  0.00    +0.000 A 
ENDROOT
BRANCH   8  11
ATOM     11  C   UNL     1       5.355   3.608   0.099  0.00  0.00    +0.000 C 
BRANCH  11  12
ATOM     12  C   UNL     1       5.405   4.295  -1.239  0.00  0.00    +0.000 A 
ATOM     13  C   UNL     1       4.242   4.489  -1.991  0.00  0.00    +0.000 A 
ATOM     14  C   UNL     1       4.343   5.108  -3.227  0.00  0.00    +0.000 A 
ATOM     15  N   UNL     1       5.506   5.545  -3.755  0.00  0.00    +0.000 NA
ATOM     16  C   UNL     1       6.617   5.352  -3.017  0.00  0.00    +0.000 A 
ATOM     17  C   UNL     1       6.620   4.741  -1.772  0.00  0.00    +0.000 A 
ENDBRANCH  11  12
ENDBRANCH   8  11
BRANCH  10  18
ATOM     18  C   UNL     1       2.530  -2.563   0.146  0.00  0.00    +0.000 C 
BRANCH  18  19
ATOM     19  N   UNL     1       2.894  -3.491  -0.920  0.00  0.00    +0.000 NA
ATOM     20  H   UNL     1       2.601  -3.094  -1.811  0.00  0.00    +0.000 HD
ATOM     21  H   UNL     1       2.374  -4.358  -0.800  0.00  0.00    +0.000 HD
ENDBRANCH  18  19
ENDBRANCH  10  18
TORSDOF 4
