REMARK  Name = 
REMARK  6 active torsions:
REMARK  status: ('A' for Active; 'I' for Inactive)
REMARK    1  A    between atoms: C_2  and  C_3
REMARK    2  A    between atoms: C_6  and  N_7
REMARK    3  A    between atoms: N_7  and  C_8
REMARK    4  A    between atoms: C_8  and  C_9
REMARK    5  A    between atoms: C_9  and  C_12
REMARK    6  A    between atoms: C_14  and  N_15
REMARK                            x       y       z     vdW  Elec       q    Type
REMARK                         _______ _______ _______ _____ _____    ______ ____
ROOT
ATOM      1  C   UNL     1       6.008  -1.086   0.327  0.00  0.00    +0.000 C 
ATOM      2  F   UNL     1       5.361  -0.977  -0.870  0.00  0.00    +0.000 F 
ATOM      3  F   UNL     1       6.841   0.005   0.374  0.00  0.00    +0.000 F 
ENDROOT
BRANCH   1   4
ATOM      4  C   UNL     1       6.775  -2.385   0.427  0.00  0.00    +0.000 A 
ATOM      5  C   UNL     1       8.175  -2.390   0.560  0.00  0.00    +0.000 A 
ATOM      6  C   UNL     1       8.927  -3.580   0.589  0.00  0.00    +0.000 A 
ATOM      7  C   UNL     1       8.219  -4.786   0.499  0.00  0.00    +0.000 A 
ATOM      8  C   UNL     1       6.827  -4.806   0.386  0.00  0.00    +0.000 A 
ATOM      9  C   UNL     1       6.122  -3.611   0.342  0.00  0.00    +0.000 A 
ATOM     10  F   UNL     1       4.788  -3.659   0.221  0.00  0.00    +0.000 F 
BRANCH   6  11
ATOM     11  N   UNL     1      10.299  -3.537   0.675  0.00  0.00    +0.000 N 
ATOM     12  C   UNL     1      11.177  -4.541   0.055  0.00  0.00    +0.000 C 
ATOM     13  C   UNL     1      11.987  -5.278   1.130  0.00  0.00    +0.000 C 
ATOM     14  O   UNL     1      12.710  -4.358   1.967  0.00  0.00    +0.000 OA
ATOM     15  C   UNL     1      11.800  -3.460   2.623  0.00  0.00    +0.000 C 
ATOM     16  C   UNL     1      10.983  -2.633   1.614  0.00  0.00    +0.000 C 
ENDBRANCH   6  11
ENDBRANCH   1   4
BRANCH   1  17
ATOM     17  C   UNL     1       4.983  -0.921   1.480  0.00  0.00    +0.000 C 
BRANCH  17  18
ATOM     18  N   UNL     1       4.261   0.368   1.458  0.00  0.00    +0.000 N 
ATOM     19  H   UNL     1       4.803   1.157   1.112  0.00  0.00    +0.000 HD
BRANCH  18  23
ATOM     20  C   UNL     1       1.284   1.305   4.298  0.00  0.00    +0.000 A 
ATOM     21  C   UNL     1       1.959   0.090   4.384  0.00  0.00    +0.000 A 
ATOM     22  C   UNL     1       2.964  -0.221   3.461  0.00  0.00    +0.000 A 
ATOM     23  C   UNL     1       3.341   0.679   2.456  0.00  0.00    +0.000 A 
ATOM     24  C   UNL     1       2.644   1.893   2.381  0.00  0.00    +0.000 A 
ATOM     25  C   UNL     1       1.627   2.209   3.293  0.00  0.00    +0.000 A 
BRANCH  20  27
ATOM     26  N   UNL     1      -0.605   1.860   5.986  0.00  0.00    +0.000 NA
ATOM     27  C   UNL     1       0.238   1.615   5.230  0.00  0.00    +0.000 C 
ENDBRANCH  20  27
ENDBRANCH  18  23
ENDBRANCH  17  18
ENDBRANCH   1  17
TORSDOF 6
