REMARK  Name = 
REMARK  5 active torsions:
REMARK  status: ('A' for Active; 'I' for Inactive)
REMARK    1  A    between atoms: C_2  and  C_18
REMARK    2  A    between atoms: N_3  and  C_4
REMARK    3  A    between atoms: C_4  and  C_5
REMARK    4  A    between atoms: C_8  and  C_9
REMARK    5  A    between atoms: C_9  and  C_10
REMARK                            x       y       z     vdW  Elec       q    Type
REMARK                         _______ _______ _______ _____ _____    ______ ____
ROOT
ATOM      1  O   UNL     1       0.207  -2.555   2.609  0.00  0.00    +0.000 OA
ATOM      2  C   UNL     1      -0.026  -1.401   2.958  0.00  0.00    +0.000 C 
ATOM      3  N   UNL     1       0.908  -0.403   2.851  0.00  0.00    +0.000 N 
ATOM      4  H   UNL     1       0.786   0.454   3.382  0.00  0.00    +0.000 HD
ENDROOT
BRANCH   2   5
ATOM      5  C   UNL     1      -1.338  -1.005   3.473  0.00  0.00    +0.000 A 
ATOM      6  C   UNL     1      -2.480  -1.698   3.101  0.00  0.00    +0.000 A 
ATOM      7  S   UNL     1      -3.902  -1.096   3.830  0.00  0.00    +0.000 S 
ATOM      8  C   UNL     1      -3.032   0.090   4.682  0.00  0.00    +0.000 A 
ATOM      9  N   UNL     1      -3.652   0.946   5.540  0.00  0.00    +0.000 NA
ATOM     10  C   UNL     1      -2.859   1.770   6.140  0.00  0.00    +0.000 A 
ATOM     11  N   UNL     1      -1.503   1.827   5.948  0.00  0.00    +0.000 N 
ATOM     12  C   UNL     1      -0.843   1.035   5.049  0.00  0.00    +0.000 A 
ATOM     13  O   UNL     1       0.344   1.197   4.812  0.00  0.00    +0.000 OA
ATOM     14  C   UNL     1      -1.682   0.052   4.387  0.00  0.00    +0.000 A 
ATOM     15  H   UNL     1      -0.937   2.521   6.420  0.00  0.00    +0.000 HD
ENDBRANCH   2   5
BRANCH   3  16
ATOM     16  C   UNL     1       2.254  -0.664   2.402  0.00  0.00    +0.000 C 
BRANCH  16  17
ATOM     17  C   UNL     1       3.184  -0.978   3.543  0.00  0.00    +0.000 A 
ATOM     18  C   UNL     1       3.337  -2.288   3.982  0.00  0.00    +0.000 A 
ATOM     19  N   UNL     1       4.178  -2.636   4.985  0.00  0.00    +0.000 NA
ATOM     20  C   UNL     1       4.859  -1.617   5.571  0.00  0.00    +0.000 A 
ATOM     21  C   UNL     1       4.675  -0.300   5.157  0.00  0.00    +0.000 A 
ATOM     22  N   UNL     1       3.851   0.046   4.139  0.00  0.00    +0.000 NA
BRANCH  20  23
ATOM     23  C   UNL     1       5.813  -1.957   6.688  0.00  0.00    +0.000 C 
BRANCH  23  24
ATOM     24  C   UNL     1       5.184  -1.929   8.061  0.00  0.00    +0.000 A 
ATOM     25  C   UNL     1       4.133  -2.795   8.382  0.00  0.00    +0.000 A 
ATOM     26  C   UNL     1       3.557  -2.711   9.639  0.00  0.00    +0.000 A 
ATOM     27  N   UNL     1       3.964  -1.849  10.595  0.00  0.00    +0.000 NA
ATOM     28  C   UNL     1       4.997  -1.040  10.278  0.00  0.00    +0.000 A 
ATOM     29  C   UNL     1       5.633  -1.044   9.045  0.00  0.00    +0.000 A 
ENDBRANCH  23  24
ENDBRANCH  20  23
ENDBRANCH  16  17
ENDBRANCH   3  16
TORSDOF 5
