REMARK  Name = 
REMARK  9 active torsions:
REMARK  status: ('A' for Active; 'I' for Inactive)
REMARK    1  A    between atoms: C_1  and  C_2
REMARK    2  A    between atoms: C_2  and  N_3
REMARK    3  A    between atoms: C_2  and  C_17
REMARK    4  A    between atoms: C_4  and  C_6
REMARK    5  A    between atoms: N_12  and  C_13
REMARK    6  A    between atoms: C_20  and  C_21
REMARK    7  A    between atoms: C_21  and  N_22
REMARK    8  A    between atoms: N_22  and  C_23
REMARK    9  A    between atoms: C_23  and  C_24
REMARK                            x       y       z     vdW  Elec       q    Type
REMARK                         _______ _______ _______ _____ _____    ______ ____
ROOT
ATOM      1  C   UNL     1       1.663   0.955   0.919  0.00  0.00    +0.000 C 
ATOM      2  C   UNL     1       2.376   0.037  -0.080  0.00  0.00    +0.000 C 
ENDROOT
BRANCH   2   3
ATOM      3  C   UNL     1       2.892  -1.220   0.599  0.00  0.00    +0.000 A 
ATOM      4  C   UNL     1       2.474  -2.473   0.132  0.00  0.00    +0.000 A 
ATOM      5  C   UNL     1       2.857  -3.644   0.788  0.00  0.00    +0.000 A 
ATOM      6  C   UNL     1       3.682  -3.595   1.921  0.00  0.00    +0.000 A 
ATOM      7  C   UNL     1       4.149  -2.349   2.357  0.00  0.00    +0.000 A 
ATOM      8  C   UNL     1       3.763  -1.175   1.700  0.00  0.00    +0.000 A 
BRANCH   6   9
ATOM      9  C   UNL     1       4.019  -4.860   2.676  0.00  0.00    +0.000 C 
BRANCH   9  10
ATOM     10  N   UNL     1       4.720  -5.814   1.825  0.00  0.00    +0.000 NA
ATOM     11  H   UNL     1       5.575  -5.387   1.471  0.00  0.00    +0.000 HD
BRANCH  10  12
ATOM     12  C   UNL     1       5.061  -7.032   2.558  0.00  0.00    +0.000 C 
BRANCH  12  13
ATOM     13  C   UNL     1       5.767  -8.022   1.663  0.00  0.00    +0.000 A 
ATOM     14  C   UNL     1       7.049  -8.494   1.976  0.00  0.00    +0.000 A 
ATOM     15  C   UNL     1       7.689  -9.415   1.145  0.00  0.00    +0.000 A 
ATOM     16  C   UNL     1       7.053  -9.880  -0.006  0.00  0.00    +0.000 A 
ATOM     17  C   UNL     1       5.776  -9.422  -0.327  0.00  0.00    +0.000 A 
ATOM     18  C   UNL     1       5.137  -8.501   0.504  0.00  0.00    +0.000 A 
ENDBRANCH  12  13
ENDBRANCH  10  12
ENDBRANCH   9  10
ENDBRANCH   6   9
ENDBRANCH   2   3
BRANCH   2  19
ATOM     19  N   UNL     1       3.464   0.735  -0.732  0.00  0.00    +0.000 N 
ATOM     20  C   UNL     1       3.298   1.500  -1.857  0.00  0.00    +0.000 C 
ATOM     21  O   UNL     1       2.261   1.505  -2.511  0.00  0.00    +0.000 OA
ATOM     22  H   UNL     1       4.273   0.906  -0.148  0.00  0.00    +0.000 HD
BRANCH  20  23
ATOM     23  C   UNL     1       4.469   2.288  -2.263  0.00  0.00    +0.000 A 
ATOM     24  C   UNL     1       4.658   2.632  -3.594  0.00  0.00    +0.000 A 
ATOM     25  S   UNL     1       6.087   3.525  -3.868  0.00  0.00    +0.000 S 
ATOM     26  C   UNL     1       6.474   3.524  -2.210  0.00  0.00    +0.000 A 
ATOM     27  N   UNL     1       7.586   4.151  -1.748  0.00  0.00    +0.000 NA
ATOM     28  C   UNL     1       7.740   4.095  -0.464  0.00  0.00    +0.000 A 
ATOM     29  N   UNL     1       6.887   3.465   0.417  0.00  0.00    +0.000 N 
ATOM     30  C   UNL     1       7.158   3.447   1.838  0.00  0.00    +0.000 C 
ATOM     31  C   UNL     1       5.757   2.789  -0.026  0.00  0.00    +0.000 A 
ATOM     32  O   UNL     1       5.016   2.175   0.738  0.00  0.00    +0.000 OA
ATOM     33  C   UNL     1       5.539   2.837  -1.462  0.00  0.00    +0.000 A 
ENDBRANCH  20  23
ENDBRANCH   2  19
TORSDOF 7
