REMARK  Name = 
REMARK  5 active torsions:
REMARK  status: ('A' for Active; 'I' for Inactive)
REMARK    1  A    between atoms: C_2  and  C_5
REMARK    2  A    between atoms: C_9  and  C_10
REMARK    3  A    between atoms: C_10  and  O_11
REMARK    4  A    between atoms: O_11  and  C_12
REMARK    5  A    between atoms: C_17  and  C_18
REMARK                            x       y       z     vdW  Elec       q    Type
REMARK                         _______ _______ _______ _____ _____    ______ ____
ROOT
ATOM      1  C   UNL     1      -0.908   5.466  -0.248  0.00  0.00    +0.000 A 
ATOM      2  C   UNL     1      -0.731   6.523  -1.132  0.00  0.00    +0.000 A 
ATOM      3  C   UNL     1      -1.725   7.498  -1.249  0.00  0.00    +0.000 A 
ATOM      4  C   UNL     1      -2.904   7.410  -0.493  0.00  0.00    +0.000 A 
ATOM      5 CL   UNL     1      -4.063   8.676  -0.688  0.00  0.00    +0.000 Cl
ATOM      6  C   UNL     1      -3.117   6.330   0.376  0.00  0.00    +0.000 A 
ATOM      7  C   UNL     1      -2.107   5.357   0.460  0.00  0.00    +0.000 A 
ENDROOT
BRANCH   6   8
ATOM      8  C   UNL     1      -4.368   6.132   1.222  0.00  0.00    +0.000 C 
ATOM      9  C   UNL     1      -4.039   6.045   2.728  0.00  0.00    +0.000 C 
ATOM     10  C   UNL     1      -5.252   5.619   3.541  0.00  0.00    +0.000 C 
ATOM     11  O   UNL     1      -5.800   4.408   3.026  0.00  0.00    +0.000 OA
ATOM     12  C   UNL     1      -6.300   4.573   1.702  0.00  0.00    +0.000 C 
ATOM     13  C   UNL     1      -5.166   4.905   0.744  0.00  0.00    +0.000 C 
ENDBRANCH   6   8
BRANCH   1  14
ATOM     14  O   UNL     1       0.120   4.573  -0.111  0.00  0.00    +0.000 OA
BRANCH  14  15
ATOM     15  C   UNL     1       0.153   3.917   1.167  0.00  0.00    +0.000 C 
BRANCH  15  20
ATOM     16  C   UNL     1       3.940   3.554   1.323  0.00  0.00    +0.000 A 
ATOM     17  C   UNL     1       4.000   2.453   2.165  0.00  0.00    +0.000 A 
ATOM     18  N   UNL     1       2.912   1.827   2.671  0.00  0.00    +0.000 NA
ATOM     19  C   UNL     1       1.704   2.315   2.311  0.00  0.00    +0.000 A 
ATOM     20  C   UNL     1       1.529   3.399   1.463  0.00  0.00    +0.000 A 
ATOM     21  C   UNL     1       2.676   4.036   0.980  0.00  0.00    +0.000 A 
BRANCH  16  23
ATOM     22  F   UNL     1       6.329   3.599   1.236  0.00  0.00    +0.000 F 
ATOM     23  C   UNL     1       5.184   4.198   0.806  0.00  0.00    +0.000 C 
ATOM     24  F   UNL     1       5.295   5.503   1.172  0.00  0.00    +0.000 F 
ATOM     25  F   UNL     1       5.249   4.187  -0.555  0.00  0.00    +0.000 F 
ENDBRANCH  16  23
ENDBRANCH  15  20
ENDBRANCH  14  15
ENDBRANCH   1  14
TORSDOF 5
