REMARK  Name = 
REMARK  4 active torsions:
REMARK  status: ('A' for Active; 'I' for Inactive)
REMARK    1  A    between atoms: C_2  and  C_4
REMARK    2  A    between atoms: C_7  and  C_8
REMARK    3  A    between atoms: C_8  and  N_9
REMARK    4  A    between atoms: C_14  and  C_15
REMARK                            x       y       z     vdW  Elec       q    Type
REMARK                         _______ _______ _______ _____ _____    ______ ____
ROOT
ATOM      1  N   UNL     1       5.283  -5.012   2.893  0.00  0.00    +0.000 N 
ATOM      2  C   UNL     1       4.983  -5.702   4.041  0.00  0.00    +0.000 A 
ATOM      3  C   UNL     1       4.549  -6.956   3.680  0.00  0.00    +0.000 A 
ATOM      4  C   UNL     1       4.599  -7.043   2.262  0.00  0.00    +0.000 A 
ATOM      5  C   UNL     1       4.240  -8.045   1.336  0.00  0.00    +0.000 A 
ATOM      6  C   UNL     1       4.392  -7.799  -0.038  0.00  0.00    +0.000 A 
ATOM      7  C   UNL     1       4.912  -6.581  -0.483  0.00  0.00    +0.000 A 
ATOM      8  C   UNL     1       5.290  -5.583   0.419  0.00  0.00    +0.000 A 
ATOM      9  C   UNL     1       5.104  -5.829   1.789  0.00  0.00    +0.000 A 
ENDROOT
BRANCH   6  10
ATOM     10  C   UNL     1       3.962  -8.785  -1.063  0.00  0.00    +0.000 C 
ATOM     11  N   UNL     1       3.939 -10.103  -0.703  0.00  0.00    +0.000 N 
ATOM     12  O   UNL     1       3.658  -8.442  -2.199  0.00  0.00    +0.000 OA
ATOM     13  H   UNL     1       4.400 -10.447   0.128  0.00  0.00    +0.000 HD
ATOM     14  H   UNL     1       3.745 -10.766  -1.443  0.00  0.00    +0.000 HD
ENDBRANCH   6  10
BRANCH   1  15
ATOM     15  C   UNL     1       5.709  -3.616   2.859  0.00  0.00    +0.000 C 
BRANCH  15  19
ATOM     16  C   UNL     1       2.676  -0.642   2.322  0.00  0.00    +0.000 A 
ATOM     17  C   UNL     1       2.450  -1.913   1.800  0.00  0.00    +0.000 A 
ATOM     18  C   UNL     1       3.406  -2.911   1.993  0.00  0.00    +0.000 A 
ATOM     19  C   UNL     1       4.572  -2.628   2.709  0.00  0.00    +0.000 A 
ATOM     20  N   UNL     1       4.799  -1.389   3.223  0.00  0.00    +0.000 NA
ATOM     21  C   UNL     1       3.857  -0.431   3.016  0.00  0.00    +0.000 A 
BRANCH  16  23
ATOM     22  N   UNL     1       0.430   0.187   1.894  0.00  0.00    +0.000 N 
ATOM     23  C   UNL     1       1.744   0.486   2.123  0.00  0.00    +0.000 C 
ATOM     24  O   UNL     1       2.128   1.647   2.182  0.00  0.00    +0.000 OA
ATOM     25  H   UNL     1      -0.209   0.970   1.836  0.00  0.00    +0.000 HD
ATOM     26  H   UNL     1       0.035  -0.729   2.052  0.00  0.00    +0.000 HD
ENDBRANCH  16  23
ENDBRANCH  15  19
ENDBRANCH   1  15
TORSDOF 4
