REMARK  Name = 
REMARK  5 active torsions:
REMARK  status: ('A' for Active; 'I' for Inactive)
REMARK    1  A    between atoms: N_1  and  C_2
REMARK    2  A    between atoms: C_2  and  C_3
REMARK    3  A    between atoms: C_6  and  O_7
REMARK    4  A    between atoms: O_7  and  C_8
REMARK    5  A    between atoms: C_8  and  C_9
REMARK                            x       y       z     vdW  Elec       q    Type
REMARK                         _______ _______ _______ _____ _____    ______ ____
ROOT
ATOM      1  C   UNL     1       2.925   0.862  -0.980  0.00  0.00    +0.000 A 
ATOM      2  C   UNL     1       2.527   2.207  -0.952  0.00  0.00    +0.000 A 
ATOM      3  C   UNL     1       2.977   3.101  -1.928  0.00  0.00    +0.000 A 
ATOM      4  C   UNL     1       3.838   2.666  -2.936  0.00  0.00    +0.000 A 
ATOM      5  C   UNL     1       4.202   1.320  -2.994  0.00  0.00    +0.000 A 
ATOM      6  C   UNL     1       3.759   0.428  -2.016  0.00  0.00    +0.000 A 
ENDROOT
BRANCH   1   7
ATOM      7  C   UNL     1       2.471  -0.101   0.085  0.00  0.00    +0.000 C 
BRANCH   7   8
ATOM      8  N   UNL     1       1.021  -0.247   0.090  0.00  0.00    +0.000 NA
ATOM      9  H   UNL     1       0.764  -0.996   0.728  0.00  0.00    +0.000 HD
ATOM     10  H   UNL     1       0.719  -0.539  -0.838  0.00  0.00    +0.000 HD
ENDBRANCH   7   8
ENDBRANCH   1   7
BRANCH   4  11
ATOM     11  O   UNL     1       4.265   3.631  -3.809  0.00  0.00    +0.000 OA
BRANCH  11  12
ATOM     12  C   UNL     1       5.463   3.310  -4.519  0.00  0.00    +0.000 C 
BRANCH  12  13
ATOM     13  C   UNL     1       6.114   4.569  -5.035  0.00  0.00    +0.000 A 
ATOM     14  C   UNL     1       6.435   5.608  -4.150  0.00  0.00    +0.000 A 
ATOM     15  C   UNL     1       7.109   6.741  -4.606  0.00  0.00    +0.000 A 
ATOM     16  C   UNL     1       7.469   6.845  -5.948  0.00  0.00    +0.000 A 
ATOM     17  C   UNL     1       7.155   5.816  -6.836  0.00  0.00    +0.000 A 
ATOM     18  C   UNL     1       6.481   4.681  -6.382  0.00  0.00    +0.000 A 
ENDBRANCH  12  13
ENDBRANCH  11  12
ENDBRANCH   4  11
TORSDOF 5
