REMARK  Name = 
REMARK  6 active torsions:
REMARK  status: ('A' for Active; 'I' for Inactive)
REMARK    1  A    between atoms: C_1  and  C_2
REMARK    2  A    between atoms: C_4  and  C_5
REMARK    3  A    between atoms: C_10  and  C_11
REMARK    4  A    between atoms: C_11  and  C_12
REMARK    5  A    between atoms: C_15  and  O_16
REMARK    6  A    between atoms: O_16  and  C_17
REMARK                            x       y       z     vdW  Elec       q    Type
REMARK                         _______ _______ _______ _____ _____    ______ ____
ROOT
ATOM      1  C   UNL     1      -0.664   2.379   0.069  0.00  0.00    +0.000 C 
ATOM      2  C   UNL     1      -1.548   2.940   1.185  0.00  0.00    +0.000 C 
ATOM      3  C   UNL     1      -2.115   2.852  -0.185  0.00  0.00    +0.000 C 
ENDROOT
BRANCH   1  10
ATOM      4  C   UNL     1       0.854   0.913   2.301  0.00  0.00    +0.000 C 
ATOM      5  C   UNL     1       0.188   0.179   1.170  0.00  0.00    +0.000 A 
ATOM      6  C   UNL     1       0.144  -1.225   1.204  0.00  0.00    +0.000 A 
ATOM      7  C   UNL     1      -0.435  -1.901   0.142  0.00  0.00    +0.000 A 
ATOM      8  N   UNL     1      -0.940  -1.288  -0.961  0.00  0.00    +0.000 NA
ATOM      9  C   UNL     1      -0.908   0.064  -0.946  0.00  0.00    +0.000 A 
ATOM     10  C   UNL     1      -0.417   0.868   0.093  0.00  0.00    +0.000 A 
BRANCH   7  11
ATOM     11  C   UNL     1      -0.587  -3.388   0.187  0.00  0.00    +0.000 C 
ATOM     12  N   UNL     1      -1.195  -3.934  -0.921  0.00  0.00    +0.000 N 
ATOM     13  O   UNL     1      -0.225  -4.078   1.127  0.00  0.00    +0.000 OA
ATOM     14  H   UNL     1      -1.521  -3.317  -1.658  0.00  0.00    +0.000 HD
ATOM     15  H   UNL     1      -1.392  -4.924  -0.944  0.00  0.00    +0.000 HD
ENDBRANCH   7  11
ENDBRANCH   1  10
BRANCH   1  16
ATOM     16  C   UNL     1       0.332   3.302  -0.639  0.00  0.00    +0.000 A 
ATOM     17  C   UNL     1       0.320   3.393  -2.043  0.00  0.00    +0.000 A 
ATOM     18  C   UNL     1       0.787   4.533  -2.696  0.00  0.00    +0.000 A 
ATOM     19  C   UNL     1       1.274   5.600  -1.951  0.00  0.00    +0.000 A 
ATOM     20  C   UNL     1       1.512   5.428  -0.587  0.00  0.00    +0.000 A 
ATOM     21  C   UNL     1       1.057   4.277   0.063  0.00  0.00    +0.000 A 
BRANCH  19  22
ATOM     22  O   UNL     1       1.563   6.823  -2.475  0.00  0.00    +0.000 OA
BRANCH  22  23
ATOM     23  C   UNL     1       0.595   7.394  -3.359  0.00  0.00    +0.000 C 
ATOM     24  F   UNL     1      -0.470   6.605  -3.620  0.00  0.00    +0.000 F 
ATOM     25  F   UNL     1       0.129   8.548  -2.825  0.00  0.00    +0.000 F 
ATOM     26  F   UNL     1       1.198   7.691  -4.533  0.00  0.00    +0.000 F 
ENDBRANCH  22  23
ENDBRANCH  19  22
ENDBRANCH   1  16
TORSDOF 5
