REMARK  Name = 
REMARK  8 active torsions:
REMARK  status: ('A' for Active; 'I' for Inactive)
REMARK    1  A    between atoms: C_1  and  O_2
REMARK    2  A    between atoms: O_2  and  C_3
REMARK    3  A    between atoms: C_5  and  C_6
REMARK    4  A    between atoms: C_6  and  N_7
REMARK    5  A    between atoms: C_8  and  C_10
REMARK    6  A    between atoms: C_22  and  C_23
REMARK    7  A    between atoms: C_23  and  N_24
REMARK    8  A    between atoms: C_25  and  C_27
REMARK                            x       y       z     vdW  Elec       q    Type
REMARK                         _______ _______ _______ _____ _____    ______ ____
ROOT
ATOM      1  C   UNL     1       3.078   0.467   1.068  0.00  0.00    +0.000 A 
ATOM      2  C   UNL     1       2.721  -0.137   2.279  0.00  0.00    +0.000 A 
ATOM      3  C   UNL     1       3.499   0.040   3.434  0.00  0.00    +0.000 A 
ATOM      4  C   UNL     1       4.647   0.835   3.367  0.00  0.00    +0.000 A 
ATOM      5  C   UNL     1       5.006   1.446   2.167  0.00  0.00    +0.000 A 
ATOM      6  C   UNL     1       4.218   1.289   1.015  0.00  0.00    +0.000 A 
ENDROOT
BRANCH   1   8
ATOM      7  C   UNL     1       1.061  -0.187  -0.015  0.00  0.00    +0.000 C 
ATOM      8  O   UNL     1       2.402   0.284  -0.112  0.00  0.00    +0.000 OA
ENDBRANCH   1   8
BRANCH   3   9
ATOM      9  C   UNL     1       3.083  -0.605   4.729  0.00  0.00    +0.000 C 
BRANCH   9  10
ATOM     10  N   UNL     1       2.242   0.268   5.511  0.00  0.00    +0.000 N 
ATOM     11  C   UNL     1       0.869   0.186   5.502  0.00  0.00    +0.000 C 
ATOM     12  O   UNL     1       0.299  -0.637   4.784  0.00  0.00    +0.000 OA
ATOM     13  H   UNL     1       2.688   1.081   5.923  0.00  0.00    +0.000 HD
BRANCH  11  14
ATOM     14  C   UNL     1       0.158   1.077   6.422  0.00  0.00    +0.000 A 
ATOM     15  S   UNL     1      -1.432   0.570   6.902  0.00  0.00    +0.000 S 
ATOM     16  C   UNL     1      -1.647   1.911   7.932  0.00  0.00    +0.000 A 
ATOM     17  C   UNL     1      -0.561   2.740   7.882  0.00  0.00    +0.000 A 
ATOM     18  N   UNL     1      -0.490   3.939   8.606  0.00  0.00    +0.000 NA
ATOM     19  C   UNL     1       0.596   4.611   8.415  0.00  0.00    +0.000 A 
ATOM     20  N   UNL     1       1.644   4.251   7.609  0.00  0.00    +0.000 N 
ATOM     21  C   UNL     1       1.694   3.064   6.920  0.00  0.00    +0.000 A 
ATOM     22  O   UNL     1       2.698   2.722   6.308  0.00  0.00    +0.000 OA
ATOM     23  C   UNL     1       0.488   2.278   7.040  0.00  0.00    +0.000 A 
ATOM     24  H   UNL     1       2.468   4.831   7.550  0.00  0.00    +0.000 HD
ENDBRANCH  11  14
ENDBRANCH   9  10
ENDBRANCH   3   9
BRANCH   6  25
ATOM     25  C   UNL     1       4.613   2.028  -0.238  0.00  0.00    +0.000 C 
BRANCH  25  26
ATOM     26  N   UNL     1       5.495   1.249  -1.068  0.00  0.00    +0.000 N 
ATOM     27  C   UNL     1       6.867   1.366  -1.052  0.00  0.00    +0.000 C 
ATOM     28  O   UNL     1       7.442   2.163  -0.309  0.00  0.00    +0.000 OA
ATOM     29  H   UNL     1       5.085   0.502  -1.614  0.00  0.00    +0.000 HD
BRANCH  27  30
ATOM     30  C   UNL     1       7.574   0.490  -1.976  0.00  0.00    +0.000 A 
ATOM     31  C   UNL     1       8.943   0.339  -2.105  0.00  0.00    +0.000 A 
ATOM     32  C   UNL     1       9.301  -0.587  -3.129  0.00  0.00    +0.000 A 
ATOM     33  C   UNL     1       8.195  -1.114  -3.755  0.00  0.00    +0.000 A 
ATOM     34  S   UNL     1       6.740  -0.502  -3.105  0.00  0.00    +0.000 S 
ENDBRANCH  27  30
ENDBRANCH  25  26
ENDBRANCH   6  25
TORSDOF 7
