REMARK  Name = 
REMARK  10 active torsions:
REMARK  status: ('A' for Active; 'I' for Inactive)
REMARK    1  A    between atoms: C_1  and  O_2
REMARK    2  A    between atoms: O_2  and  C_3
REMARK    3  A    between atoms: C_10  and  C_11
REMARK    4  A    between atoms: N_13  and  C_14
REMARK    5  A    between atoms: C_14  and  C_15
REMARK    6  A    between atoms: C_18  and  C_19
REMARK    7  A    between atoms: C_19  and  N_20
REMARK    8  A    between atoms: N_20  and  C_21
REMARK    9  A    between atoms: C_21  and  C_22
REMARK   10  A    between atoms: C_21  and  C_23
REMARK                            x       y       z     vdW  Elec       q    Type
REMARK                         _______ _______ _______ _____ _____    ______ ____
ROOT
ATOM      1  C   UNL     1      -8.496  -3.088   2.957  0.00  0.00    +0.000 A 
ATOM      2  C   UNL     1      -7.260  -2.441   2.814  0.00  0.00    +0.000 A 
ATOM      3  C   UNL     1      -6.082  -3.029   3.297  0.00  0.00    +0.000 A 
ATOM      4  C   UNL     1      -6.116  -4.276   3.936  0.00  0.00    +0.000 A 
ATOM      5  C   UNL     1      -7.356  -4.918   4.074  0.00  0.00    +0.000 A 
ATOM      6  C   UNL     1      -8.530  -4.334   3.593  0.00  0.00    +0.000 A 
ENDROOT
BRANCH   1   7
ATOM      7  C   UNL     1      -9.753  -2.506   2.363  0.00  0.00    +0.000 C 
BRANCH   7  10
ATOM      8  C   UNL     1     -11.045  -2.644   0.272  0.00  0.00    +0.000 C 
ATOM      9  O   UNL     1     -11.904  -1.886   0.719  0.00  0.00    +0.000 OA
ATOM     10  N   UNL     1      -9.950  -2.987   1.015  0.00  0.00    +0.000 N 
ATOM     11  H   UNL     1      -9.227  -3.571   0.618  0.00  0.00    +0.000 HD
BRANCH   8  19
ATOM     12  C   UNL     1      -9.068  -4.773  -1.588  0.00  0.00    +0.000 A 
ATOM     13  N   UNL     1      -8.550  -5.646  -2.477  0.00  0.00    +0.000 NA
ATOM     14  C   UNL     1      -9.245  -5.900  -3.590  0.00  0.00    +0.000 A 
ATOM     15  N   UNL     1     -10.412  -5.367  -3.941  0.00  0.00    +0.000 NA
ATOM     16  C   UNL     1     -10.897  -4.512  -3.026  0.00  0.00    +0.000 A 
ATOM     17  S   UNL     1     -12.372  -3.726  -3.321  0.00  0.00    +0.000 S 
ATOM     18  C   UNL     1     -12.299  -2.926  -1.825  0.00  0.00    +0.000 A 
ATOM     19  C   UNL     1     -11.172  -3.239  -1.071  0.00  0.00    +0.000 A 
ATOM     20  C   UNL     1     -10.314  -4.160  -1.812  0.00  0.00    +0.000 A 
BRANCH  12  22
ATOM     21  C   UNL     1      -7.099  -5.174  -0.364  0.00  0.00    +0.000 C 
ATOM     22  O   UNL     1      -8.338  -4.476  -0.456  0.00  0.00    +0.000 OA
ENDBRANCH  12  22
ENDBRANCH   8  19
ENDBRANCH   7  10
ENDBRANCH   1   7
BRANCH   4  23
ATOM     23  C   UNL     1      -4.866  -5.024   4.358  0.00  0.00    +0.000 C 
BRANCH  23  24
ATOM     24  N   UNL     1      -3.780  -4.167   4.836  0.00  0.00    +0.000 NA
ATOM     25  H   UNL     1      -4.105  -3.681   5.671  0.00  0.00    +0.000 HD
BRANCH  24  26
ATOM     26  C   UNL     1      -2.541  -4.899   5.168  0.00  0.00    +0.000 C 
ATOM     27  C   UNL     1      -1.866  -5.491   3.919  0.00  0.00    +0.000 C 
BRANCH  26  28
ATOM     28  C   UNL     1      -2.696  -5.893   6.316  0.00  0.00    +0.000 A 
ATOM     29  C   UNL     1      -2.648  -5.435   7.644  0.00  0.00    +0.000 A 
ATOM     30  C   UNL     1      -2.747  -6.328   8.716  0.00  0.00    +0.000 A 
ATOM     31  C   UNL     1      -2.906  -7.691   8.479  0.00  0.00    +0.000 A 
ATOM     32  C   UNL     1      -2.980  -8.161   7.172  0.00  0.00    +0.000 A 
ATOM     33  C   UNL     1      -2.881  -7.269   6.100  0.00  0.00    +0.000 A 
ENDBRANCH  26  28
ENDBRANCH  24  26
ENDBRANCH  23  24
ENDBRANCH   4  23
TORSDOF 8
