REMARK  Name = 
REMARK  9 active torsions:
REMARK  status: ('A' for Active; 'I' for Inactive)
REMARK    1  A    between atoms: C_1  and  C_2
REMARK    2  A    between atoms: N_4  and  C_5
REMARK    3  A    between atoms: C_7  and  C_8
REMARK    4  A    between atoms: C_8  and  C_9
REMARK    5  A    between atoms: C_8  and  C_10
REMARK    6  A    between atoms: C_10  and  N_11
REMARK    7  A    between atoms: C_15  and  C_16
REMARK    8  A    between atoms: C_22  and  C_23
REMARK    9  A    between atoms: C_29  and  C_30
REMARK                            x       y       z     vdW  Elec       q    Type
REMARK                         _______ _______ _______ _____ _____    ______ ____
ROOT
ATOM      1  C   UNL     1       1.806   1.362  -3.186  0.00  0.00    +0.000 A 
ATOM      2  C   UNL     1       2.197   2.645  -3.606  0.00  0.00    +0.000 A 
ATOM      3  C   UNL     1       1.453   3.413  -4.520  0.00  0.00    +0.000 A 
ATOM      4  C   UNL     1       0.266   2.876  -5.025  0.00  0.00    +0.000 A 
ATOM      5  C   UNL     1      -0.174   1.610  -4.615  0.00  0.00    +0.000 A 
ATOM      6  C   UNL     1       0.591   0.883  -3.684  0.00  0.00    +0.000 A 
ENDROOT
BRANCH   1  10
ATOM      7  C   UNL     1       1.913  -2.388  -3.018  0.00  0.00    +0.000 C 
ATOM      8  C   UNL     1       2.616  -1.800  -1.797  0.00  0.00    +0.000 C 
ATOM      9  C   UNL     1       2.097  -0.398  -1.414  0.00  0.00    +0.000 C 
ATOM     10  N   UNL     1       2.606   0.636  -2.327  0.00  0.00    +0.000 N 
ATOM     11  C   UNL     1       4.066   0.589  -2.526  0.00  0.00    +0.000 C 
ATOM     12  C   UNL     1       4.514  -0.839  -2.907  0.00  0.00    +0.000 C 
ATOM     13  C   UNL     1       6.036  -0.925  -2.950  0.00  0.00    +0.000 C 
ATOM     14  O   UNL     1       4.049  -1.816  -1.958  0.00  0.00    +0.000 OA
ENDBRANCH   1  10
BRANCH   5  15
ATOM     15  C   UNL     1      -1.429   0.995  -5.186  0.00  0.00    +0.000 C 
ATOM     16  F   UNL     1      -2.050   1.782  -6.108  0.00  0.00    +0.000 F 
ATOM     17  F   UNL     1      -1.183  -0.189  -5.815  0.00  0.00    +0.000 F 
ATOM     18  F   UNL     1      -2.363   0.724  -4.234  0.00  0.00    +0.000 F 
ENDBRANCH   5  15
BRANCH   3  19
ATOM     19  C   UNL     1       1.954   4.773  -5.004  0.00  0.00    +0.000 C 
ATOM     20  C   UNL     1       2.129   5.751  -3.840  0.00  0.00    +0.000 C 
BRANCH  19  21
ATOM     21  C   UNL     1       3.247   4.575  -5.823  0.00  0.00    +0.000 C 
BRANCH  21  22
ATOM     22  N   UNL     1       3.753   5.815  -6.404  0.00  0.00    +0.000 N 
ATOM     23  C   UNL     1       4.913   5.733  -7.174  0.00  0.00    +0.000 A 
ATOM     24  C   UNL     1       5.232   4.640  -7.989  0.00  0.00    +0.000 A 
ATOM     25  N   UNL     1       6.346   4.553  -8.764  0.00  0.00    +0.000 NA
ATOM     26  C   UNL     1       7.139   5.656  -8.716  0.00  0.00    +0.000 A 
ATOM     27  C   UNL     1       6.833   6.756  -7.934  0.00  0.00    +0.000 A 
ATOM     28  N   UNL     1       5.722   6.809  -7.142  0.00  0.00    +0.000 NA
ATOM     29  H   UNL     1       3.883   6.600  -5.772  0.00  0.00    +0.000 HD
BRANCH  26  30
ATOM     30  C   UNL     1       8.371   5.640  -9.548  0.00  0.00    +0.000 C 
ATOM     31  N   UNL     1       8.596   4.498 -10.270  0.00  0.00    +0.000 N 
ATOM     32  O   UNL     1       9.144   6.585  -9.582  0.00  0.00    +0.000 OA
ATOM     33  H   UNL     1       7.939   3.724 -10.227  0.00  0.00    +0.000 HD
ATOM     34  H   UNL     1       9.416   4.437 -10.858  0.00  0.00    +0.000 HD
ENDBRANCH  26  30
ENDBRANCH  21  22
ENDBRANCH  19  21
ENDBRANCH   3  19
TORSDOF 6
