REMARK  Name = 
REMARK  7 active torsions:
REMARK  status: ('A' for Active; 'I' for Inactive)
REMARK    1  A    between atoms: C_1  and  O_2
REMARK    2  A    between atoms: O_2  and  C_3
REMARK    3  A    between atoms: C_5  and  C_6
REMARK    4  A    between atoms: C_6  and  N_7
REMARK    5  A    between atoms: N_7  and  C_8
REMARK    6  A    between atoms: C_11  and  C_12
REMARK    7  A    between atoms: C_21  and  C_22
REMARK                            x       y       z     vdW  Elec       q    Type
REMARK                         _______ _______ _______ _____ _____    ______ ____
ROOT
ATOM      1  C   UNL     1       6.324   0.159  -2.851  0.00  0.00    +0.000 C 
ATOM      2  C   UNL     1       7.762   0.560  -2.607  0.00  0.00    +0.000 C 
ATOM      3  C   UNL     1       7.132   0.893  -3.919  0.00  0.00    +0.000 C 
ENDROOT
BRANCH   1   6
ATOM      4  C   UNL     1       4.022   1.477  -0.046  0.00  0.00    +0.000 A 
ATOM      5  C   UNL     1       5.126   0.938  -0.728  0.00  0.00    +0.000 A 
ATOM      6  C   UNL     1       5.211   0.914  -2.133  0.00  0.00    +0.000 A 
ATOM      7  C   UNL     1       4.177   1.538  -2.843  0.00  0.00    +0.000 A 
ATOM      8  C   UNL     1       3.085   2.108  -2.182  0.00  0.00    +0.000 A 
ATOM      9  C   UNL     1       2.991   2.067  -0.782  0.00  0.00    +0.000 A 
BRANCH   4  11
ATOM     10  C   UNL     1       2.975   1.037   2.050  0.00  0.00    +0.000 C 
ATOM     11  O   UNL     1       4.139   1.411   1.318  0.00  0.00    +0.000 OA
ENDBRANCH   4  11
BRANCH   9  12
ATOM     12  C   UNL     1       1.826   2.656  -0.190  0.00  0.00    +0.000 C 
ATOM     13  N   UNL     1       0.857   3.108   0.258  0.00  0.00    +0.000 NA
ENDBRANCH   9  12
ENDBRANCH   1   6
BRANCH   1  14
ATOM     14  N   UNL     1       5.930  -1.195  -3.272  0.00  0.00    +0.000 N 
ATOM     15  H   UNL     1       5.244  -1.211  -4.021  0.00  0.00    +0.000 HD
BRANCH  14  16
ATOM     16  C   UNL     1       5.836  -2.344  -2.464  0.00  0.00    +0.000 A 
ATOM     17  C   UNL     1       6.388  -2.472  -1.187  0.00  0.00    +0.000 A 
ATOM     18  C   UNL     1       6.359  -3.705  -0.508  0.00  0.00    +0.000 A 
ATOM     19  C   UNL     1       5.800  -4.834  -1.120  0.00  0.00    +0.000 A 
ATOM     20  C   UNL     1       5.253  -4.718  -2.396  0.00  0.00    +0.000 A 
ATOM     21  C   UNL     1       5.274  -3.488  -3.053  0.00  0.00    +0.000 A 
BRANCH  19  22
ATOM     22  C   UNL     1       5.811  -6.189  -0.500  0.00  0.00    +0.000 C 
ATOM     23  N   UNL     1       5.891  -6.268   0.859  0.00  0.00    +0.000 N 
ATOM     24  O   UNL     1       5.720  -7.205  -1.178  0.00  0.00    +0.000 OA
ATOM     25  H   UNL     1       5.721  -5.479   1.462  0.00  0.00    +0.000 HD
ATOM     26  H   UNL     1       5.788  -7.195   1.254  0.00  0.00    +0.000 HD
ENDBRANCH  19  22
ENDBRANCH  14  16
ENDBRANCH   1  14
TORSDOF 6
