REMARK  Name = 
REMARK  6 active torsions:
REMARK  status: ('A' for Active; 'I' for Inactive)
REMARK    1  A    between atoms: C_2  and  C_19
REMARK    2  A    between atoms: N_3  and  C_4
REMARK    3  A    between atoms: C_4  and  C_5
REMARK    4  A    between atoms: C_9  and  C_10
REMARK    5  A    between atoms: C_10  and  O_11
REMARK    6  A    between atoms: O_11  and  C_12
REMARK                            x       y       z     vdW  Elec       q    Type
REMARK                         _______ _______ _______ _____ _____    ______ ____
ROOT
ATOM      1  O   UNL     1       0.292  -0.765   1.444  0.00  0.00    +0.000 OA
ATOM      2  C   UNL     1       1.178  -1.274   2.121  0.00  0.00    +0.000 C 
ATOM      3  N   UNL     1       2.070  -2.208   1.660  0.00  0.00    +0.000 N 
ATOM      4  H   UNL     1       2.899  -2.390   2.211  0.00  0.00    +0.000 HD
ENDROOT
BRANCH   2   5
ATOM      5  C   UNL     1       1.541  -0.814   3.453  0.00  0.00    +0.000 A 
ATOM      6  C   UNL     1       1.614   0.524   3.789  0.00  0.00    +0.000 A 
ATOM      7  S   UNL     1       2.553   0.771   5.204  0.00  0.00    +0.000 S 
ATOM      8  C   UNL     1       2.750  -0.907   5.438  0.00  0.00    +0.000 A 
ATOM      9  N   UNL     1       3.566  -1.422   6.396  0.00  0.00    +0.000 NA
ATOM     10  C   UNL     1       3.555  -2.715   6.460  0.00  0.00    +0.000 A 
ATOM     11  N   UNL     1       2.770  -3.535   5.684  0.00  0.00    +0.000 N 
ATOM     12  C   UNL     1       1.915  -3.062   4.727  0.00  0.00    +0.000 A 
ATOM     13  O   UNL     1       1.149  -3.797   4.114  0.00  0.00    +0.000 OA
ATOM     14  C   UNL     1       1.997  -1.628   4.536  0.00  0.00    +0.000 A 
ATOM     15  H   UNL     1       2.742  -4.533   5.853  0.00  0.00    +0.000 HD
ENDBRANCH   2   5
BRANCH   3  16
ATOM     16  C   UNL     1       2.176  -2.569   0.264  0.00  0.00    +0.000 C 
BRANCH  16  17
ATOM     17  C   UNL     1       3.200  -3.668   0.066  0.00  0.00    +0.000 A 
ATOM     18  N   UNL     1       4.503  -3.311   0.073  0.00  0.00    +0.000 NA
ATOM     19  C   UNL     1       5.399  -4.309  -0.047  0.00  0.00    +0.000 A 
ATOM     20  C   UNL     1       5.051  -5.636  -0.130  0.00  0.00    +0.000 A 
ATOM     21  C   UNL     1       3.700  -5.916  -0.067  0.00  0.00    +0.000 A 
ATOM     22  N   UNL     1       2.766  -4.942   0.033  0.00  0.00    +0.000 NA
BRANCH  21  23
ATOM     23  C   UNL     1       3.215  -7.345  -0.122  0.00  0.00    +0.000 C 
BRANCH  23  24
ATOM     24  O   UNL     1       3.044  -7.717  -1.486  0.00  0.00    +0.000 OA
BRANCH  24  25
ATOM     25  C   UNL     1       2.446  -8.953  -1.580  0.00  0.00    +0.000 A 
ATOM     26  N   UNL     1       1.713  -9.150  -2.683  0.00  0.00    +0.000 NA
ATOM     27  C   UNL     1       1.141 -10.362  -2.800  0.00  0.00    +0.000 A 
ATOM     28  C   UNL     1       1.297 -11.368  -1.875  0.00  0.00    +0.000 A 
ATOM     29  C   UNL     1       2.090 -11.063  -0.794  0.00  0.00    +0.000 A 
ATOM     30  N   UNL     1       2.678  -9.865  -0.619  0.00  0.00    +0.000 NA
ENDBRANCH  24  25
ENDBRANCH  23  24
ENDBRANCH  21  23
ENDBRANCH  16  17
ENDBRANCH   3  16
TORSDOF 6
