REMARK  Name = 
REMARK  8 active torsions:
REMARK  status: ('A' for Active; 'I' for Inactive)
REMARK    1  A    between atoms: C_1  and  C_2
REMARK    2  A    between atoms: C_2  and  N_3
REMARK    3  A    between atoms: N_3  and  C_4
REMARK    4  A    between atoms: C_4  and  C_5
REMARK    5  A    between atoms: C_8  and  C_9
REMARK    6  A    between atoms: C_9  and  N_10
REMARK    7  A    between atoms: N_10  and  C_11
REMARK    8  A    between atoms: C_18  and  C_20
REMARK                            x       y       z     vdW  Elec       q    Type
REMARK                         _______ _______ _______ _____ _____    ______ ____
ROOT
ATOM      1  N   UNL     1      -8.962  -2.307  -7.359  0.00  0.00    +0.000 N 
ATOM      2  C   UNL     1      -9.703  -2.865  -8.426  0.00  0.00    +0.000 C 
ATOM      3  O   UNL     1      -9.235  -2.932  -9.537  0.00  0.00    +0.000 OA
ENDROOT
BRANCH   2   4
ATOM      4  C   UNL     1     -11.065  -3.361  -8.161  0.00  0.00    +0.000 A 
ATOM      5  C   UNL     1     -11.929  -2.828  -7.242  0.00  0.00    +0.000 A 
ATOM      6  S   UNL     1     -13.463  -3.563  -7.213  0.00  0.00    +0.000 S 
ATOM      7  C   UNL     1     -13.024  -4.608  -8.478  0.00  0.00    +0.000 A 
ATOM      8  N   UNL     1     -13.931  -5.460  -9.030  0.00  0.00    +0.000 NA
ATOM      9  C   UNL     1     -13.465  -6.154 -10.020  0.00  0.00    +0.000 A 
ATOM     10  N   UNL     1     -12.171  -6.120 -10.463  0.00  0.00    +0.000 N 
ATOM     11  C   UNL     1     -11.181  -5.354  -9.866  0.00  0.00    +0.000 A 
ATOM     12  O   UNL     1     -10.017  -5.503 -10.149  0.00  0.00    +0.000 OA
ATOM     13  C   UNL     1     -11.702  -4.455  -8.845  0.00  0.00    +0.000 A 
ATOM     14  H   UNL     1     -11.859  -6.711 -11.218  0.00  0.00    +0.000 HD
ENDBRANCH   2   4
BRANCH   1  16
ATOM     15  C   UNL     1      -6.597  -2.903  -8.187  0.00  0.00    +0.000 C 
ATOM     16  C   UNL     1      -7.611  -1.850  -7.729  0.00  0.00    +0.000 C 
ENDBRANCH   1  16
BRANCH   1  17
ATOM     17  C   UNL     1      -9.359  -2.541  -5.970  0.00  0.00    +0.000 C 
BRANCH  17  18
ATOM     18  C   UNL     1      -8.325  -2.503  -4.888  0.00  0.00    +0.000 A 
ATOM     19  C   UNL     1      -8.116  -1.311  -4.178  0.00  0.00    +0.000 A 
ATOM     20  C   UNL     1      -7.376  -1.311  -3.004  0.00  0.00    +0.000 A 
ATOM     21  C   UNL     1      -6.857  -2.513  -2.496  0.00  0.00    +0.000 A 
ATOM     22  C   UNL     1      -6.969  -3.676  -3.275  0.00  0.00    +0.000 A 
ATOM     23  C   UNL     1      -7.679  -3.671  -4.470  0.00  0.00    +0.000 A 
BRANCH  21  24
ATOM     24  C   UNL     1      -6.245  -2.607  -1.123  0.00  0.00    +0.000 C 
BRANCH  24  25
ATOM     25  N   UNL     1      -7.210  -2.273  -0.078  0.00  0.00    +0.000 NA
ATOM     26  H   UNL     1      -8.044  -2.843  -0.178  0.00  0.00    +0.000 HD
BRANCH  25  27
ATOM     27  C   UNL     1      -6.702  -2.350   1.278  0.00  0.00    +0.000 C 
ATOM     28  C   UNL     1      -7.800  -1.979   2.273  0.00  0.00    +0.000 C 
ATOM     29  C   UNL     1      -8.653  -3.237   2.358  0.00  0.00    +0.000 C 
ATOM     30  C   UNL     1      -7.687  -4.368   2.029  0.00  0.00    +0.000 C 
ATOM     31  N   UNL     1      -6.428  -3.723   1.663  0.00  0.00    +0.000 NA
ATOM     32  H   UNL     1      -5.921  -4.238   0.957  0.00  0.00    +0.000 HD
ENDBRANCH  25  27
ENDBRANCH  24  25
ENDBRANCH  21  24
ENDBRANCH  17  18
ENDBRANCH   1  17
TORSDOF 7
