REMARK  Name = 
REMARK  9 active torsions:
REMARK  status: ('A' for Active; 'I' for Inactive)
REMARK    1  A    between atoms: C_2  and  C_22
REMARK    2  A    between atoms: N_3  and  C_4
REMARK    3  A    between atoms: C_4  and  C_5
REMARK    4  A    between atoms: C_8  and  C_9
REMARK    5  A    between atoms: C_9  and  N_10
REMARK    6  A    between atoms: N_10  and  CA_11
REMARK    7  A    between atoms: CA_11  and  C_12
REMARK    8  A    between atoms: CA_11  and  C_14
REMARK    9  A    between atoms: C_12  and  O_13
REMARK                            x       y       z     vdW  Elec       q    Type
REMARK                         _______ _______ _______ _____ _____    ______ ____
ROOT
ATOM      1  C   UNL     1       3.042   0.828   3.501  0.00  0.00    +0.000 A 
ATOM      2  C   UNL     1       3.306   2.153   3.868  0.00  0.00    +0.000 A 
ATOM      3  C   UNL     1       4.160   2.438   4.936  0.00  0.00    +0.000 A 
ATOM      4  C   UNL     1       4.773   1.405   5.661  0.00  0.00    +0.000 A 
ATOM      5  C   UNL     1       4.526   0.080   5.277  0.00  0.00    +0.000 A 
ATOM      6  C   UNL     1       3.674  -0.205   4.204  0.00  0.00    +0.000 A 
ENDROOT
BRANCH   1   7
ATOM      7  C   UNL     1       2.119   0.527   2.350  0.00  0.00    +0.000 C 
BRANCH   7  10
ATOM      8  O   UNL     1       2.265   2.627   0.497  0.00  0.00    +0.000 OA
ATOM      9  C   UNL     1       2.881   1.591   0.265  0.00  0.00    +0.000 C 
ATOM     10  N   UNL     1       2.829   0.503   1.098  0.00  0.00    +0.000 N 
ATOM     11  H   UNL     1       3.479  -0.262   0.959  0.00  0.00    +0.000 HD
BRANCH   9  12
ATOM     12  C   UNL     1       3.681   1.446  -0.959  0.00  0.00    +0.000 A 
ATOM     13  C   UNL     1       3.432   2.278  -2.042  0.00  0.00    +0.000 A 
ATOM     14  S   UNL     1       4.449   1.981  -3.378  0.00  0.00    +0.000 S 
ATOM     15  C   UNL     1       5.291   0.765  -2.537  0.00  0.00    +0.000 A 
ATOM     16  N   UNL     1       6.342   0.121  -3.111  0.00  0.00    +0.000 NA
ATOM     17  C   UNL     1       6.920  -0.745  -2.349  0.00  0.00    +0.000 A 
ATOM     18  N   UNL     1       6.525  -1.041  -1.068  0.00  0.00    +0.000 N 
ATOM     19  C   UNL     1       5.419  -0.476  -0.478  0.00  0.00    +0.000 A 
ATOM     20  O   UNL     1       5.011  -0.868   0.611  0.00  0.00    +0.000 OA
ATOM     21  C   UNL     1       4.775   0.556  -1.270  0.00  0.00    +0.000 A 
ATOM     22  H   UNL     1       6.994  -1.760  -0.537  0.00  0.00    +0.000 HD
ENDBRANCH   9  12
ENDBRANCH   7  10
ENDBRANCH   1   7
BRANCH   4  23
ATOM     23  C   UNL     1       5.718   1.718   6.801  0.00  0.00    +0.000 C 
BRANCH  23  24
ATOM     24  N   UNL     1       5.060   2.534   7.825  0.00  0.00    +0.000 NA
ATOM     25  H   UNL     1       4.215   2.035   8.113  0.00  0.00    +0.000 HD
BRANCH  24  26
ATOM     26  CA  UNL     1       5.888   2.752   9.034  0.00  0.00    +0.000 C 
BRANCH  26  27
ATOM     27  C   UNL     1       5.079   3.457  10.115  0.00  0.00    +0.000 A 
ATOM     28  C   UNL     1       4.003   4.308   9.830  0.00  0.00    +0.000 A 
ATOM     29  C   UNL     1       3.310   4.932  10.864  0.00  0.00    +0.000 A 
ATOM     30  C   UNL     1       3.723   4.696  12.163  0.00  0.00    +0.000 A 
ATOM     31  N   UNL     1       4.760   3.894  12.486  0.00  0.00    +0.000 NA
ATOM     32  C   UNL     1       5.414   3.303  11.459  0.00  0.00    +0.000 A 
ENDBRANCH  26  27
BRANCH  26  33
ATOM     33  C   UNL     1       7.182   3.557   8.735  0.00  0.00    +0.000 C 
BRANCH  33  34
ATOM     34  O   UNL     1       6.899   4.791   8.075  0.00  0.00    +0.000 OA
ATOM     35  H   UNL     1       6.090   4.632   7.552  0.00  0.00    +0.000 HD
ENDBRANCH  33  34
ENDBRANCH  26  33
ENDBRANCH  24  26
ENDBRANCH  23  24
ENDBRANCH   4  23
TORSDOF 9
