REMARK  Name = 
REMARK  8 active torsions:
REMARK  status: ('A' for Active; 'I' for Inactive)
REMARK    1  A    between atoms: N_1  and  C_2
REMARK    2  A    between atoms: C_2  and  C_3
REMARK    3  A    between atoms: C_6  and  O_7
REMARK    4  A    between atoms: O_7  and  C_8
REMARK    5  A    between atoms: C_8  and  C_9
REMARK    6  A    between atoms: C_9  and  O_10
REMARK    7  A    between atoms: C_9  and  C_11
REMARK    8  A    between atoms: C_14  and  C_15
REMARK                            x       y       z     vdW  Elec       q    Type
REMARK                         _______ _______ _______ _____ _____    ______ ____
ROOT
ATOM      1  C   UNL     1       4.620  -1.717   7.363  0.00  0.00    +0.000 C 
ENDROOT
BRANCH   1   2
ATOM      2  C   UNL     1       5.771  -2.684   7.182  0.00  0.00    +0.000 A 
ATOM      3  C   UNL     1       5.663  -4.045   7.495  0.00  0.00    +0.000 A 
ATOM      4  C   UNL     1       6.739  -4.915   7.277  0.00  0.00    +0.000 A 
ATOM      5  C   UNL     1       7.949  -4.442   6.754  0.00  0.00    +0.000 A 
ATOM      6  C   UNL     1       8.080  -3.082   6.481  0.00  0.00    +0.000 A 
ATOM      7  C   UNL     1       7.004  -2.223   6.705  0.00  0.00    +0.000 A 
ATOM      8  F   UNL     1       7.177  -0.918   6.454  0.00  0.00    +0.000 F 
BRANCH   5   9
ATOM      9  C   UNL     1       9.036  -5.433   6.509  0.00  0.00    +0.000 C 
ATOM     10  N   UNL     1      10.219  -4.995   5.985  0.00  0.00    +0.000 N 
ATOM     11  O   UNL     1       8.881  -6.622   6.758  0.00  0.00    +0.000 OA
ATOM     12  H   UNL     1      10.437  -4.046   5.732  0.00  0.00    +0.000 HD
ATOM     13  H   UNL     1      10.924  -5.702   5.815  0.00  0.00    +0.000 HD
ENDBRANCH   5   9
ENDBRANCH   1   2
BRANCH   1  14
ATOM     14  O   UNL     1       3.462  -2.391   7.873  0.00  0.00    +0.000 OA
ATOM     15  H   UNL     1       3.065  -2.848   7.108  0.00  0.00    +0.000 HD
ENDBRANCH   1  14
BRANCH   1  16
ATOM     16  C   UNL     1       4.226  -0.956   6.079  0.00  0.00    +0.000 C 
BRANCH  16  17
ATOM     17  O   UNL     1       3.775  -1.884   5.078  0.00  0.00    +0.000 OA
BRANCH  17  21
ATOM     18  C   UNL     1       2.609  -0.437   1.320  0.00  0.00    +0.000 A 
ATOM     19  C   UNL     1       3.054   0.467   2.293  0.00  0.00    +0.000 A 
ATOM     20  C   UNL     1       3.459   0.023   3.554  0.00  0.00    +0.000 A 
ATOM     21  C   UNL     1       3.425  -1.337   3.870  0.00  0.00    +0.000 A 
ATOM     22  C   UNL     1       2.994  -2.245   2.901  0.00  0.00    +0.000 A 
ATOM     23  C   UNL     1       2.587  -1.802   1.636  0.00  0.00    +0.000 A 
BRANCH  18  24
ATOM     24  C   UNL     1       2.131   0.063  -0.019  0.00  0.00    +0.000 C 
BRANCH  24  25
ATOM     25  N   UNL     1       3.160   0.835  -0.707  0.00  0.00    +0.000 NA
ATOM     26  H   UNL     1       2.833   1.064  -1.644  0.00  0.00    +0.000 HD
ATOM     27  H   UNL     1       3.985   0.249  -0.824  0.00  0.00    +0.000 HD
ENDBRANCH  24  25
ENDBRANCH  18  24
ENDBRANCH  17  21
ENDBRANCH  16  17
ENDBRANCH   1  16
TORSDOF 8
