REMARK  Name = 
REMARK  6 active torsions:
REMARK  status: ('A' for Active; 'I' for Inactive)
REMARK    1  A    between atoms: C_1  and  N_2
REMARK    2  A    between atoms: C_3  and  C_5
REMARK    3  A    between atoms: N_9  and  C_10
REMARK    4  A    between atoms: C_10  and  C_11
REMARK    5  A    between atoms: C_10  and  C_12
REMARK    6  A    between atoms: C_16  and  C_17
REMARK                            x       y       z     vdW  Elec       q    Type
REMARK                         _______ _______ _______ _____ _____    ______ ____
ROOT
ATOM      1  C   UNL     1      10.638   3.361   2.366  0.00  0.00    +0.000 A 
ATOM      2  C   UNL     1      11.332   3.278   1.162  0.00  0.00    +0.000 A 
ATOM      3  C   UNL     1      11.460   2.032   0.535  0.00  0.00    +0.000 A 
ATOM      4  C   UNL     1      10.824   0.915   1.074  0.00  0.00    +0.000 A 
ATOM      5  N   UNL     1      10.803  -0.264   0.328  0.00  0.00    +0.000 N 
ATOM      6  N   UNL     1      10.209   0.977   2.271  0.00  0.00    +0.000 NA
ATOM      7  C   UNL     1      10.155   2.179   2.905  0.00  0.00    +0.000 A 
ATOM      8  H   UNL     1      11.706  -0.724   0.301  0.00  0.00    +0.000 HD
ENDROOT
BRANCH   1  11
ATOM      9  C   UNL     1      10.047   7.056   2.914  0.00  0.00    +0.000 C 
ATOM     10  N   UNL     1      10.285   5.765   2.310  0.00  0.00    +0.000 N 
ATOM     11  C   UNL     1      10.402   4.635   3.086  0.00  0.00    +0.000 C 
ATOM     12  O   UNL     1      10.286   4.635   4.309  0.00  0.00    +0.000 OA
ATOM     13  H   UNL     1      10.230   5.695   1.302  0.00  0.00    +0.000 HD
ENDBRANCH   1  11
BRANCH   5  14
ATOM     14  C   UNL     1       9.650  -1.159   0.502  0.00  0.00    +0.000 C 
ATOM     15  C   UNL     1       8.876  -1.118  -0.825  0.00  0.00    +0.000 C 
BRANCH  14  16
ATOM     16  C   UNL     1      10.084  -2.559   0.933  0.00  0.00    +0.000 A 
ATOM     17  C   UNL     1       9.786  -3.726   0.207  0.00  0.00    +0.000 A 
ATOM     18  C   UNL     1      10.173  -4.987   0.673  0.00  0.00    +0.000 A 
ATOM     19  C   UNL     1      10.891  -5.107   1.860  0.00  0.00    +0.000 A 
ATOM     20  C   UNL     1      11.196  -3.967   2.607  0.00  0.00    +0.000 A 
ATOM     21  C   UNL     1      12.011  -4.051   3.863  0.00  0.00    +0.000 C 
ATOM     22  C   UNL     1      10.764  -2.710   2.154  0.00  0.00    +0.000 A 
ENDBRANCH  14  16
ENDBRANCH   5  14
TORSDOF 3
