REMARK  Name = 
REMARK  7 active torsions:
REMARK  status: ('A' for Active; 'I' for Inactive)
REMARK    1  A    between atoms: C_1  and  O_2
REMARK    2  A    between atoms: O_2  and  C_3
REMARK    3  A    between atoms: C_7  and  C_8
REMARK    4  A    between atoms: C_12  and  C_13
REMARK    5  A    between atoms: C_13  and  N_14
REMARK    6  A    between atoms: N_14  and  C_15
REMARK    7  A    between atoms: C_18  and  C_19
REMARK                            x       y       z     vdW  Elec       q    Type
REMARK                         _______ _______ _______ _____ _____    ______ ____
ROOT
ATOM      1  C   UNL     1       3.649  -6.760   4.938  0.00  0.00    +0.000 C 
ATOM      2  C   UNL     1       2.432  -7.420   5.551  0.00  0.00    +0.000 C 
ATOM      3  C   UNL     1       2.814  -6.052   6.007  0.00  0.00    +0.000 C 
ENDROOT
BRANCH   1   8
ATOM      4  C   UNL     1       3.604  -4.310   1.938  0.00  0.00    +0.000 A 
ATOM      5  C   UNL     1       3.313  -5.201   0.893  0.00  0.00    +0.000 A 
ATOM      6  C   UNL     1       3.159  -6.567   1.130  0.00  0.00    +0.000 A 
ATOM      7  C   UNL     1       3.273  -7.071   2.425  0.00  0.00    +0.000 A 
ATOM      8  C   UNL     1       3.547  -6.229   3.511  0.00  0.00    +0.000 A 
ATOM      9  C   UNL     1       3.727  -4.857   3.231  0.00  0.00    +0.000 A 
BRANCH   4  14
ATOM     10  C   UNL     1       3.510  -0.532   2.386  0.00  0.00    +0.000 A 
ATOM     11  C   UNL     1       4.098  -0.169   1.182  0.00  0.00    +0.000 A 
ATOM     12  N   UNL     1       4.524  -1.046   0.246  0.00  0.00    +0.000 NA
ATOM     13  C   UNL     1       4.351  -2.359   0.531  0.00  0.00    +0.000 A 
ATOM     14  C   UNL     1       3.768  -2.859   1.699  0.00  0.00    +0.000 A 
ATOM     15  C   UNL     1       3.345  -1.895   2.634  0.00  0.00    +0.000 A 
BRANCH  10  17
ATOM     16  C   UNL     1       2.584   0.144   4.468  0.00  0.00    +0.000 C 
ATOM     17  O   UNL     1       3.145   0.495   3.208  0.00  0.00    +0.000 OA
ENDBRANCH  10  17
ENDBRANCH   4  14
ENDBRANCH   1   8
BRANCH   1  18
ATOM     18  N   UNL     1       5.021  -7.051   5.377  0.00  0.00    +0.000 N 
ATOM     19  H   UNL     1       5.633  -6.243   5.440  0.00  0.00    +0.000 HD
BRANCH  18  20
ATOM     20  C   UNL     1       5.731  -8.251   5.198  0.00  0.00    +0.000 A 
ATOM     21  C   UNL     1       5.169  -9.445   4.744  0.00  0.00    +0.000 A 
ATOM     22  C   UNL     1       5.924 -10.630   4.719  0.00  0.00    +0.000 A 
ATOM     23  C   UNL     1       7.252 -10.637   5.163  0.00  0.00    +0.000 A 
ATOM     24  C   UNL     1       7.821  -9.453   5.631  0.00  0.00    +0.000 A 
ATOM     25  C   UNL     1       7.063  -8.280   5.648  0.00  0.00    +0.000 A 
BRANCH  23  26
ATOM     26  C   UNL     1       7.998 -11.924   5.198  0.00  0.00    +0.000 C 
ATOM     27  N   UNL     1       9.364 -11.866   5.207  0.00  0.00    +0.000 N 
ATOM     28  O   UNL     1       7.418 -12.998   5.203  0.00  0.00    +0.000 OA
ATOM     29  H   UNL     1       9.885 -11.032   4.978  0.00  0.00    +0.000 HD
ATOM     30  H   UNL     1       9.855 -12.751   5.173  0.00  0.00    +0.000 HD
ENDBRANCH  23  26
ENDBRANCH  18  20
ENDBRANCH   1  18
TORSDOF 6
