REMARK  Name = 
REMARK  6 active torsions:
REMARK  status: ('A' for Active; 'I' for Inactive)
REMARK    1  A    between atoms: C_2  and  O_3
REMARK    2  A    between atoms: C_2  and  C_4
REMARK    3  A    between atoms: C_4  and  C_5
REMARK    4  A    between atoms: C_5  and  C_6
REMARK    5  A    between atoms: C_9  and  C_10
REMARK    6  A    between atoms: C_10  and  N_11
REMARK                            x       y       z     vdW  Elec       q    Type
REMARK                         _______ _______ _______ _____ _____    ______ ____
ROOT
ATOM      1  C   UNL     1       5.277  -1.967   1.510  0.00  0.00    +0.000 A 
ATOM      2  C   UNL     1       6.056  -1.725   2.649  0.00  0.00    +0.000 A 
ATOM      3  C   UNL     1       6.533  -2.787   3.425  0.00  0.00    +0.000 A 
ATOM      4  C   UNL     1       6.229  -4.117   3.089  0.00  0.00    +0.000 A 
ATOM      5  C   UNL     1       5.441  -4.354   1.959  0.00  0.00    +0.000 A 
ATOM      6  C   UNL     1       4.978  -3.294   1.176  0.00  0.00    +0.000 A 
ENDROOT
BRANCH   1   7
ATOM      7  C   UNL     1       4.717  -0.829   0.683  0.00  0.00    +0.000 C 
BRANCH   7   8
ATOM      8  C   UNL     1       5.787   0.060   0.047  0.00  0.00    +0.000 C 
BRANCH   8  10
ATOM      9  O   UNL     1       3.980   1.300  -0.980  0.00  0.00    +0.000 OA
ATOM     10  C   UNL     1       5.165   1.122  -0.813  0.00  0.00    +0.000 C 
BRANCH  10  11
ATOM     11  O   UNL     1       6.093   1.909  -1.411  0.00  0.00    +0.000 OA
ATOM     12  H   UNL     1       7.019   1.666  -1.199  0.00  0.00    +0.000 HD
ENDBRANCH  10  11
ENDBRANCH   8  10
ENDBRANCH   7   8
ENDBRANCH   1   7
BRANCH   4  13
ATOM     13  C   UNL     1       6.749  -5.265   3.917  0.00  0.00    +0.000 C 
BRANCH  13  14
ATOM     14  N   UNL     1       5.839  -5.680   4.983  0.00  0.00    +0.000 N 
ATOM     15  C   UNL     1       5.587  -4.924   6.106  0.00  0.00    +0.000 A 
ATOM     16  C   UNL     1       4.891  -5.701   7.001  0.00  0.00    +0.000 A 
ATOM     17  C   UNL     1       4.895  -7.025   6.494  0.00  0.00    +0.000 A 
ATOM     18  C   UNL     1       4.566  -8.275   7.050  0.00  0.00    +0.000 A 
ATOM     19  C   UNL     1       4.642  -9.421   6.256  0.00  0.00    +0.000 A 
ATOM     20  C   UNL     1       4.950  -9.318   4.903  0.00  0.00    +0.000 A 
ATOM     21  C   UNL     1       5.305  -8.089   4.332  0.00  0.00    +0.000 A 
ATOM     22  C   UNL     1       5.346  -6.963   5.171  0.00  0.00    +0.000 A 
ENDBRANCH  13  14
ENDBRANCH   4  13
TORSDOF 6
