REMARK  Name = 
REMARK  6 active torsions:
REMARK  status: ('A' for Active; 'I' for Inactive)
REMARK    1  A    between atoms: C_2  and  C_3
REMARK    2  A    between atoms: N_10  and  C_11
REMARK    3  A    between atoms: C_11  and  C_12
REMARK    4  A    between atoms: C_15  and  C_16
REMARK    5  A    between atoms: C_16  and  N_17
REMARK    6  A    between atoms: C_18  and  C_20
REMARK                            x       y       z     vdW  Elec       q    Type
REMARK                         _______ _______ _______ _____ _____    ______ ____
ROOT
ATOM      1  C   UNL     1       0.735  -4.221   0.027  0.00  0.00    +0.000 A 
ATOM      2  C   UNL     1       0.099  -5.468   0.076  0.00  0.00    +0.000 A 
ATOM      3  C   UNL     1      -1.298  -5.557   0.131  0.00  0.00    +0.000 A 
ATOM      4  C   UNL     1      -2.091  -4.402   0.115  0.00  0.00    +0.000 A 
ATOM      5  C   UNL     1      -1.455  -3.154   0.083  0.00  0.00    +0.000 A 
ATOM      6  C   UNL     1      -0.059  -3.065   0.027  0.00  0.00    +0.000 A 
ENDROOT
BRANCH   1   7
ATOM      7  C   UNL     1       2.238  -4.122   0.002  0.00  0.00    +0.000 C 
BRANCH   7  15
ATOM      8  C   UNL     1       5.261  -3.185  -3.611  0.00  0.00    +0.000 A 
ATOM      9  C   UNL     1       5.342  -3.611  -4.929  0.00  0.00    +0.000 A 
ATOM     10  C   UNL     1       4.588  -4.799  -5.038  0.00  0.00    +0.000 A 
ATOM     11  C   UNL     1       4.035  -5.041  -3.801  0.00  0.00    +0.000 A 
ATOM     12  N   UNL     1       4.435  -4.046  -2.918  0.00  0.00    +0.000 N 
ATOM     13  C   UNL     1       4.104  -3.962  -1.553  0.00  0.00    +0.000 C 
ATOM     14  O   UNL     1       4.947  -3.611  -0.745  0.00  0.00    +0.000 OA
ATOM     15  N   UNL     1       2.777  -4.245  -1.334  0.00  0.00    +0.000 N 
ATOM     16  H   UNL     1       2.124  -4.228  -2.108  0.00  0.00    +0.000 HD
BRANCH   8  18
ATOM     17  N   UNL     1       6.292  -1.000  -2.697  0.00  0.00    +0.000 NA
ATOM     18  C   UNL     1       5.836  -2.001  -3.065  0.00  0.00    +0.000 C 
ENDBRANCH   8  18
ENDBRANCH   7  15
ENDBRANCH   1   7
BRANCH   4  19
ATOM     19  C   UNL     1      -3.595  -4.499   0.147  0.00  0.00    +0.000 C 
BRANCH  19  20
ATOM     20  N   UNL     1      -4.130  -4.414   1.480  0.00  0.00    +0.000 N 
ATOM     21  C   UNL     1      -5.488  -4.366   1.681  0.00  0.00    +0.000 C 
ATOM     22  O   UNL     1      -6.276  -4.250   0.743  0.00  0.00    +0.000 OA
ATOM     23  H   UNL     1      -3.556  -4.789   2.237  0.00  0.00    +0.000 HD
BRANCH  21  24
ATOM     24  C   UNL     1      -5.965  -4.404   3.069  0.00  0.00    +0.000 A 
ATOM     25  C   UNL     1      -7.190  -3.836   3.389  0.00  0.00    +0.000 A 
ATOM     26  S   UNL     1      -7.597  -3.972   5.037  0.00  0.00    +0.000 S 
ATOM     27  C   UNL     1      -6.215  -4.919   5.353  0.00  0.00    +0.000 A 
ATOM     28  N   UNL     1      -6.051  -5.502   6.570  0.00  0.00    +0.000 NA
ATOM     29  C   UNL     1      -4.968  -6.212   6.667  0.00  0.00    +0.000 A 
ATOM     30  N   UNL     1      -4.024  -6.338   5.669  0.00  0.00    +0.000 N 
ATOM     31  O   UNL     1      -2.895  -7.099   5.973  0.00  0.00    +0.000 OA
ATOM     32  C   UNL     1      -4.137  -5.762   4.402  0.00  0.00    +0.000 A 
ATOM     33  O   UNL     1      -3.330  -5.833   3.476  0.00  0.00    +0.000 OA
ATOM     34  C   UNL     1      -5.386  -5.013   4.247  0.00  0.00    +0.000 A 
ENDBRANCH  21  24
ENDBRANCH  19  20
ENDBRANCH   4  19
TORSDOF 6
