REMARK  Name = 
REMARK  6 active torsions:
REMARK  status: ('A' for Active; 'I' for Inactive)
REMARK    1  A    between atoms: C_2  and  C_25
REMARK    2  A    between atoms: N_3  and  C_4
REMARK    3  A    between atoms: C_4  and  C_5
REMARK    4  A    between atoms: C_8  and  C_9
REMARK    5  A    between atoms: C_9  and  N_10
REMARK    6  A    between atoms: C_11  and  C_13
REMARK                            x       y       z     vdW  Elec       q    Type
REMARK                         _______ _______ _______ _____ _____    ______ ____
ROOT
ATOM      1  C   UNL     1       3.400  -3.602  -0.182  0.00  0.00    +0.000 A 
ATOM      2  C   UNL     1       4.770  -3.356  -0.252  0.00  0.00    +0.000 A 
ATOM      3  C   UNL     1       5.655  -4.434  -0.282  0.00  0.00    +0.000 A 
ATOM      4  C   UNL     1       5.159  -5.739  -0.264  0.00  0.00    +0.000 A 
ATOM      5  C   UNL     1       3.779  -5.890  -0.188  0.00  0.00    +0.000 A 
ATOM      6  N   UNL     1       2.895  -4.863  -0.153  0.00  0.00    +0.000 NA
ENDROOT
BRANCH   1   7
ATOM      7  C   UNL     1       2.415  -2.454  -0.122  0.00  0.00    +0.000 C 
BRANCH   7  10
ATOM      8  O   UNL     1       3.599  -0.425  -1.729  0.00  0.00    +0.000 OA
ATOM      9  C   UNL     1       2.613  -1.029  -2.141  0.00  0.00    +0.000 C 
ATOM     10  N   UNL     1       1.971  -2.015  -1.426  0.00  0.00    +0.000 N 
ATOM     11  H   UNL     1       1.210  -2.502  -1.889  0.00  0.00    +0.000 HD
BRANCH   9  12
ATOM     12  C   UNL     1       2.017  -0.730  -3.486  0.00  0.00    +0.000 A 
ATOM     13  C   UNL     1       2.608   0.230  -4.299  0.00  0.00    +0.000 A 
ATOM     14  C   UNL     1       2.033   0.488  -5.542  0.00  0.00    +0.000 A 
ATOM     15  C   UNL     1       0.895  -0.216  -5.921  0.00  0.00    +0.000 A 
ATOM     16  C   UNL     1       0.371  -1.152  -5.043  0.00  0.00    +0.000 A 
ATOM     17  N   UNL     1       0.901  -1.432  -3.832  0.00  0.00    +0.000 NA
ENDBRANCH   9  12
ENDBRANCH   7  10
ENDBRANCH   1   7
BRANCH   4  18
ATOM     18  C   UNL     1       6.067  -6.935  -0.280  0.00  0.00    +0.000 C 
BRANCH  18  19
ATOM     19  N   UNL     1       6.437  -7.331   1.055  0.00  0.00    +0.000 N 
ATOM     20  C   UNL     1       7.339  -8.341   1.283  0.00  0.00    +0.000 C 
ATOM     21  O   UNL     1       7.913  -8.917   0.362  0.00  0.00    +0.000 OA
ATOM     22  H   UNL     1       5.827  -7.035   1.811  0.00  0.00    +0.000 HD
BRANCH  20  23
ATOM     23  C   UNL     1       7.629  -8.658   2.687  0.00  0.00    +0.000 A 
ATOM     24  C   UNL     1       8.820  -9.287   3.021  0.00  0.00    +0.000 A 
ATOM     25  S   UNL     1       9.020  -9.533   4.697  0.00  0.00    +0.000 S 
ATOM     26  C   UNL     1       7.497  -8.856   5.033  0.00  0.00    +0.000 A 
ATOM     27  N   UNL     1       7.031  -8.780   6.309  0.00  0.00    +0.000 NA
ATOM     28  C   UNL     1       5.849  -8.270   6.417  0.00  0.00    +0.000 A 
ATOM     29  N   UNL     1       5.093  -7.825   5.364  0.00  0.00    +0.000 N 
ATOM     30  C   UNL     1       5.533  -7.856   4.063  0.00  0.00    +0.000 A 
ATOM     31  O   UNL     1       4.848  -7.412   3.146  0.00  0.00    +0.000 OA
ATOM     32  C   UNL     1       6.853  -8.430   3.885  0.00  0.00    +0.000 A 
ATOM     33  H   UNL     1       4.177  -7.428   5.516  0.00  0.00    +0.000 HD
ENDBRANCH  20  23
ENDBRANCH  18  19
ENDBRANCH   4  18
TORSDOF 6
