REMARK  Name = 
REMARK  7 active torsions:
REMARK  status: ('A' for Active; 'I' for Inactive)
REMARK    1  A    between atoms: C_1  and  C_2
REMARK    2  A    between atoms: C_2  and  N_3
REMARK    3  A    between atoms: C_2  and  C_16
REMARK    4  A    between atoms: C_4  and  C_6
REMARK    5  A    between atoms: C_19  and  O_20
REMARK    6  A    between atoms: O_20  and  C_21
REMARK    7  A    between atoms: C_21  and  C_22
REMARK                            x       y       z     vdW  Elec       q    Type
REMARK                         _______ _______ _______ _____ _____    ______ ____
ROOT
ATOM      1  C   UNL     1       2.409  -0.660   1.302  0.00  0.00    +0.000 C 
ATOM      2  C   UNL     1       2.456   0.182   0.023  0.00  0.00    +0.000 C 
ENDROOT
BRANCH   2   3
ATOM      3  C   UNL     1       3.062   1.559   0.239  0.00  0.00    +0.000 A 
ATOM      4  C   UNL     1       2.618   2.624  -0.559  0.00  0.00    +0.000 A 
ATOM      5  C   UNL     1       3.015   3.935  -0.288  0.00  0.00    +0.000 A 
ATOM      6  C   UNL     1       3.869   4.202   0.781  0.00  0.00    +0.000 A 
ATOM      7  C   UNL     1       4.416   3.141   1.499  0.00  0.00    +0.000 A 
ATOM      8  C   UNL     1       4.023   1.828   1.225  0.00  0.00    +0.000 A 
BRANCH   6   9
ATOM      9  O   UNL     1       4.243   5.457   1.187  0.00  0.00    +0.000 OA
BRANCH   9  10
ATOM     10  C   UNL     1       3.224   6.450   1.017  0.00  0.00    +0.000 C 
BRANCH  10  11
ATOM     11  C   UNL     1       3.658   7.768   1.616  0.00  0.00    +0.000 A 
ATOM     12  C   UNL     1       3.966   7.871   2.972  0.00  0.00    +0.000 A 
ATOM     13  C   UNL     1       4.321   9.115   3.487  0.00  0.00    +0.000 A 
ATOM     14  C   UNL     1       4.361  10.217   2.642  0.00  0.00    +0.000 A 
ATOM     15  C   UNL     1       4.039  10.032   1.309  0.00  0.00    +0.000 A 
ATOM     16  N   UNL     1       3.684   8.841   0.783  0.00  0.00    +0.000 NA
ENDBRANCH  10  11
ENDBRANCH   9  10
ENDBRANCH   6   9
ENDBRANCH   2   3
BRANCH   2  17
ATOM     17  N   UNL     1       3.165  -0.520  -1.023  0.00  0.00    +0.000 N 
ATOM     18  C   UNL     1       2.558  -1.435  -1.843  0.00  0.00    +0.000 C 
ATOM     19  O   UNL     1       1.343  -1.600  -1.869  0.00  0.00    +0.000 OA
ATOM     20  H   UNL     1       4.174  -0.544  -0.921  0.00  0.00    +0.000 HD
BRANCH  18  21
ATOM     21  C   UNL     1       3.453  -2.192  -2.727  0.00  0.00    +0.000 A 
ATOM     22  C   UNL     1       2.990  -2.691  -3.936  0.00  0.00    +0.000 A 
ATOM     23  S   UNL     1       4.180  -3.534  -4.823  0.00  0.00    +0.000 S 
ATOM     24  C   UNL     1       5.335  -3.317  -3.590  0.00  0.00    +0.000 A 
ATOM     25  N   UNL     1       6.581  -3.850  -3.694  0.00  0.00    +0.000 NA
ATOM     26  C   UNL     1       7.337  -3.640  -2.668  0.00  0.00    +0.000 A 
ATOM     27  N   UNL     1       6.964  -2.934  -1.552  0.00  0.00    +0.000 N 
ATOM     28  C   UNL     1       5.737  -2.332  -1.426  0.00  0.00    +0.000 A 
ATOM     29  O   UNL     1       5.470  -1.631  -0.457  0.00  0.00    +0.000 OA
ATOM     30  C   UNL     1       4.834  -2.572  -2.536  0.00  0.00    +0.000 A 
ATOM     31  H   UNL     1       7.613  -2.782  -0.795  0.00  0.00    +0.000 HD
ENDBRANCH  18  21
ENDBRANCH   2  17
TORSDOF 6
