REMARK  Name = 
REMARK  8 active torsions:
REMARK  status: ('A' for Active; 'I' for Inactive)
REMARK    1  A    between atoms: N_1  and  C_2
REMARK    2  A    between atoms: C_2  and  C_3
REMARK    3  A    between atoms: C_3  and  N_4
REMARK    4  A    between atoms: N_4  and  C_5
REMARK    5  A    between atoms: C_5  and  C_6
REMARK    6  A    between atoms: C_9  and  C_10
REMARK    7  A    between atoms: C_10  and  N_11
REMARK    8  A    between atoms: C_12  and  C_14
REMARK                            x       y       z     vdW  Elec       q    Type
REMARK                         _______ _______ _______ _____ _____    ______ ____
ROOT
ATOM      1  C   UNL     1      10.737   1.909  -2.353  0.00  0.00    +0.000 C 
ENDROOT
BRANCH   1   5
ATOM      2  C   UNL     1       6.475   1.823  -2.317  0.00  0.00    +0.000 A 
ATOM      3  C   UNL     1       7.153   1.429  -3.471  0.00  0.00    +0.000 A 
ATOM      4  C   UNL     1       8.545   1.434  -3.491  0.00  0.00    +0.000 A 
ATOM      5  C   UNL     1       9.231   1.853  -2.356  0.00  0.00    +0.000 A 
ATOM      6  N   UNL     1       8.598   2.210  -1.210  0.00  0.00    +0.000 NA
ATOM      7  C   UNL     1       7.247   2.182  -1.217  0.00  0.00    +0.000 A 
BRANCH   2   8
ATOM      8  C   UNL     1       4.974   1.799  -2.241  0.00  0.00    +0.000 C 
BRANCH   8   9
ATOM      9  N   UNL     1       4.412   3.120  -1.942  0.00  0.00    +0.000 NA
ATOM     10  H   UNL     1       4.702   3.375  -0.995  0.00  0.00    +0.000 HD
BRANCH   9  11
ATOM     11  C   UNL     1       2.941   3.087  -1.920  0.00  0.00    +0.000 C 
BRANCH  11  12
ATOM     12  C   UNL     1       2.352   2.217  -0.788  0.00  0.00    +0.000 C 
BRANCH  12  13
ATOM     13  N   UNL     1       2.936   2.555   0.514  0.00  0.00    +0.000 NA
ATOM     14  H   UNL     1       2.536   1.944   1.226  0.00  0.00    +0.000 HD
ATOM     15  H   UNL     1       2.652   3.503   0.768  0.00  0.00    +0.000 HD
ENDBRANCH  12  13
ENDBRANCH  11  12
ENDBRANCH   9  11
ENDBRANCH   8   9
ENDBRANCH   2   8
ENDBRANCH   1   5
BRANCH   1  16
ATOM     16  N   UNL     1      11.324   0.682  -1.870  0.00  0.00    +0.000 N 
ATOM     17  C   UNL     1      11.806  -0.285  -2.710  0.00  0.00    +0.000 C 
ATOM     18  O   UNL     1      11.758  -0.169  -3.934  0.00  0.00    +0.000 OA
ATOM     19  H   UNL     1      11.137   0.465  -0.896  0.00  0.00    +0.000 HD
BRANCH  17  20
ATOM     20  C   UNL     1      12.458  -1.437  -2.076  0.00  0.00    +0.000 A 
ATOM     21  C   UNL     1      13.365  -2.194  -2.806  0.00  0.00    +0.000 A 
ATOM     22  S   UNL     1      14.085  -3.452  -1.908  0.00  0.00    +0.000 S 
ATOM     23  C   UNL     1      13.170  -3.064  -0.527  0.00  0.00    +0.000 A 
ATOM     24  N   UNL     1      13.294  -3.788   0.617  0.00  0.00    +0.000 NA
ATOM     25  C   UNL     1      12.516  -3.407   1.576  0.00  0.00    +0.000 A 
ATOM     26  N   UNL     1      11.630  -2.366   1.493  0.00  0.00    +0.000 N 
ATOM     27  C   UNL     1      11.507  -1.575   0.376  0.00  0.00    +0.000 A 
ATOM     28  O   UNL     1      10.761  -0.604   0.363  0.00  0.00    +0.000 OA
ATOM     29  C   UNL     1      12.342  -1.976  -0.741  0.00  0.00    +0.000 A 
ATOM     30  H   UNL     1      11.060  -2.105   2.285  0.00  0.00    +0.000 HD
ENDBRANCH  17  20
ENDBRANCH   1  16
TORSDOF 8
