REMARK  Name = 
REMARK  5 active torsions:
REMARK  status: ('A' for Active; 'I' for Inactive)
REMARK    1  A    between atoms: C_2  and  C_3
REMARK    2  A    between atoms: C_6  and  N_7
REMARK    3  A    between atoms: N_7  and  C_8
REMARK    4  A    between atoms: C_8  and  C_9
REMARK    5  A    between atoms: C_18  and  N_19
REMARK                            x       y       z     vdW  Elec       q    Type
REMARK                         _______ _______ _______ _____ _____    ______ ____
ROOT
ATOM      1  C   UNL     1       5.767   1.407  -3.599  0.00  0.00    +0.000 A 
ATOM      2  N   UNL     1       7.010   0.879  -3.755  0.00  0.00    +0.000 NA
ATOM      3  C   UNL     1       7.615   0.396  -2.641  0.00  0.00    +0.000 A 
ATOM      4  C   UNL     1       7.056   0.397  -1.365  0.00  0.00    +0.000 A 
ATOM      5  C   UNL     1       5.775   0.953  -1.260  0.00  0.00    +0.000 A 
ATOM      6  C   UNL     1       5.076   1.430  -2.378  0.00  0.00    +0.000 A 
ENDROOT
BRANCH   6   7
ATOM      7  N   UNL     1       3.853   2.092  -2.170  0.00  0.00    +0.000 N 
ATOM      8  H   UNL     1       3.343   1.788  -1.345  0.00  0.00    +0.000 HD
ATOM      9  H   UNL     1       3.248   2.170  -2.984  0.00  0.00    +0.000 HD
ENDBRANCH   6   7
BRANCH   1  11
ATOM     10  N   UNL     1       4.640   2.335  -5.752  0.00  0.00    +0.000 NA
ATOM     11  C   UNL     1       5.172   1.926  -4.805  0.00  0.00    +0.000 C 
ENDBRANCH   1  11
BRANCH   4  12
ATOM     12  N   UNL     1       7.652  -0.149  -0.216  0.00  0.00    +0.000 N 
ATOM     13  H   UNL     1       7.153   0.004   0.653  0.00  0.00    +0.000 HD
BRANCH  12  14
ATOM     14  C   UNL     1       8.897  -0.927  -0.169  0.00  0.00    +0.000 C 
ATOM     15  C   UNL     1       9.101  -2.067  -1.151  0.00  0.00    +0.000 C 
ATOM     16  C   UNL     1       8.804  -2.391   0.271  0.00  0.00    +0.000 C 
BRANCH  14  17
ATOM     17  C   UNL     1      10.080  -0.203   0.478  0.00  0.00    +0.000 A 
ATOM     18  C   UNL     1      10.126  -0.011   1.875  0.00  0.00    +0.000 A 
ATOM     19  C   UNL     1      11.266   0.487   2.514  0.00  0.00    +0.000 A 
ATOM     20  C   UNL     1      12.384   0.828   1.762  0.00  0.00    +0.000 A 
ATOM     21  C   UNL     1      12.346   0.705   0.375  0.00  0.00    +0.000 A 
ATOM     22  C   UNL     1      11.203   0.204  -0.258  0.00  0.00    +0.000 A 
ENDBRANCH  14  17
ENDBRANCH  12  14
ENDBRANCH   4  12
TORSDOF 5
