REMARK  Name = 
REMARK  9 active torsions:
REMARK  status: ('A' for Active; 'I' for Inactive)
REMARK    1  A    between atoms: C_1  and  O_2
REMARK    2  A    between atoms: O_2  and  C_3
REMARK    3  A    between atoms: C_5  and  C_6
REMARK    4  A    between atoms: C_6  and  N_7
REMARK    5  A    between atoms: C_8  and  C_10
REMARK    6  A    between atoms: C_22  and  C_23
REMARK    7  A    between atoms: C_23  and  N_24
REMARK    8  A    between atoms: C_25  and  C_27
REMARK    9  A    between atoms: N_30  and  C_31
REMARK                            x       y       z     vdW  Elec       q    Type
REMARK                         _______ _______ _______ _____ _____    ______ ____
ROOT
ATOM      1  C   UNL     1       3.113   0.950   0.746  0.00  0.00    +0.000 A 
ATOM      2  C   UNL     1       2.704   1.247   2.053  0.00  0.00    +0.000 A 
ATOM      3  C   UNL     1       3.447   2.122   2.860  0.00  0.00    +0.000 A 
ATOM      4  C   UNL     1       4.636   2.660   2.358  0.00  0.00    +0.000 A 
ATOM      5  C   UNL     1       5.026   2.401   1.045  0.00  0.00    +0.000 A 
ATOM      6  C   UNL     1       4.247   1.583   0.211  0.00  0.00    +0.000 A 
ENDROOT
BRANCH   1   8
ATOM      7  C   UNL     1       1.811  -1.013   0.584  0.00  0.00    +0.000 C 
ATOM      8  O   UNL     1       2.425   0.093  -0.077  0.00  0.00    +0.000 OA
ENDBRANCH   1   8
BRANCH   3   9
ATOM      9  C   UNL     1       3.006   2.428   4.267  0.00  0.00    +0.000 C 
BRANCH   9  10
ATOM     10  N   UNL     1       3.542   1.455   5.182  0.00  0.00    +0.000 N 
ATOM     11  C   UNL     1       3.188   1.439   6.505  0.00  0.00    +0.000 C 
ATOM     12  O   UNL     1       2.356   2.217   6.967  0.00  0.00    +0.000 OA
ATOM     13  H   UNL     1       4.385   0.972   4.887  0.00  0.00    +0.000 HD
BRANCH  11  14
ATOM     14  C   UNL     1       3.806   0.394   7.331  0.00  0.00    +0.000 A 
ATOM     15  C   UNL     1       3.192  -0.001   8.512  0.00  0.00    +0.000 A 
ATOM     16  S   UNL     1       4.007  -1.264   9.318  0.00  0.00    +0.000 S 
ATOM     17  C   UNL     1       5.239  -1.291   8.144  0.00  0.00    +0.000 A 
ATOM     18  N   UNL     1       6.287  -2.151   8.251  0.00  0.00    +0.000 NA
ATOM     19  C   UNL     1       7.166  -2.042   7.311  0.00  0.00    +0.000 A 
ATOM     20  N   UNL     1       7.087  -1.157   6.267  0.00  0.00    +0.000 N 
ATOM     21  C   UNL     1       6.032  -0.293   6.102  0.00  0.00    +0.000 A 
ATOM     22  O   UNL     1       5.968   0.455   5.131  0.00  0.00    +0.000 OA
ATOM     23  C   UNL     1       5.023  -0.363   7.142  0.00  0.00    +0.000 A 
ATOM     24  H   UNL     1       7.804  -1.126   5.559  0.00  0.00    +0.000 HD
ENDBRANCH  11  14
ENDBRANCH   9  10
ENDBRANCH   3   9
BRANCH   6  25
ATOM     25  C   UNL     1       4.664   1.406  -1.227  0.00  0.00    +0.000 C 
BRANCH  25  26
ATOM     26  N   UNL     1       5.526   0.266  -1.405  0.00  0.00    +0.000 N 
ATOM     27  C   UNL     1       6.899   0.367  -1.429  0.00  0.00    +0.000 C 
ATOM     28  O   UNL     1       7.500   1.426  -1.305  0.00  0.00    +0.000 OA
ATOM     29  H   UNL     1       5.091  -0.642  -1.379  0.00  0.00    +0.000 HD
BRANCH  27  30
ATOM     30  C   UNL     1       7.595  -0.895  -1.616  0.00  0.00    +0.000 A 
ATOM     31  C   UNL     1       8.993  -1.110  -1.586  0.00  0.00    +0.000 A 
ATOM     32  N   UNL     1       9.331  -2.387  -1.793  0.00  0.00    +0.000 NA
ATOM     33  N   UNL     1       8.149  -2.997  -1.976  0.00  0.00    +0.000 N 
ATOM     34  C   UNL     1       8.092  -4.417  -2.228  0.00  0.00    +0.000 C 
ATOM     35  C   UNL     1       7.080  -2.153  -1.883  0.00  0.00    +0.000 A 
ENDBRANCH  27  30
ENDBRANCH  25  26
ENDBRANCH   6  25
TORSDOF 7
