REMARK  Name = 
REMARK  7 active torsions:
REMARK  status: ('A' for Active; 'I' for Inactive)
REMARK    1  A    between atoms: C_1  and  O_2
REMARK    2  A    between atoms: O_2  and  C_3
REMARK    3  A    between atoms: C_7  and  C_8
REMARK    4  A    between atoms: C_8  and  C_9
REMARK    5  A    between atoms: C_12  and  C_13
REMARK    6  A    between atoms: C_13  and  N_14
REMARK    7  A    between atoms: C_15  and  C_17
REMARK                            x       y       z     vdW  Elec       q    Type
REMARK                         _______ _______ _______ _____ _____    ______ ____
ROOT
ATOM      1  C   UNL     1       8.614   0.549   7.953  0.00  0.00    +0.000 C 
ENDROOT
BRANCH   1   5
ATOM      2  C   UNL     1       6.696   1.349   4.160  0.00  0.00    +0.000 A 
ATOM      3  C   UNL     1       7.268   0.096   4.417  0.00  0.00    +0.000 A 
ATOM      4  C   UNL     1       7.903  -0.160   5.634  0.00  0.00    +0.000 A 
ATOM      5  C   UNL     1       7.983   0.835   6.616  0.00  0.00    +0.000 A 
ATOM      6  C   UNL     1       7.472   2.108   6.332  0.00  0.00    +0.000 A 
ATOM      7  C   UNL     1       6.822   2.360   5.121  0.00  0.00    +0.000 A 
BRANCH   2   8
ATOM      8  C   UNL     1       5.928   1.591   2.882  0.00  0.00    +0.000 C 
BRANCH   8  13
ATOM      9  C   UNL     1       2.298   2.148   2.663  0.00  0.00    +0.000 A 
ATOM     10  C   UNL     1       1.719   0.920   2.924  0.00  0.00    +0.000 A 
ATOM     11  C   UNL     1       2.557  -0.143   3.238  0.00  0.00    +0.000 A 
ATOM     12  C   UNL     1       3.936   0.058   3.261  0.00  0.00    +0.000 A 
ATOM     13  C   UNL     1       4.441   1.325   2.971  0.00  0.00    +0.000 A 
ATOM     14  N   UNL     1       3.630   2.369   2.679  0.00  0.00    +0.000 NA
BRANCH   9  16
ATOM     15  C   UNL     1       2.141   4.416   2.160  0.00  0.00    +0.000 C 
ATOM     16  O   UNL     1       1.445   3.186   2.344  0.00  0.00    +0.000 OA
ENDBRANCH   9  16
ENDBRANCH   8  13
ENDBRANCH   2   8
ENDBRANCH   1   5
BRANCH   1  17
ATOM     17  N   UNL     1      10.025   0.830   7.944  0.00  0.00    +0.000 N 
ATOM     18  C   UNL     1      10.806   0.565   9.038  0.00  0.00    +0.000 C 
ATOM     19  O   UNL     1      10.353   0.035  10.050  0.00  0.00    +0.000 OA
ATOM     20  H   UNL     1      10.362   1.470   7.230  0.00  0.00    +0.000 HD
BRANCH  18  21
ATOM     21  C   UNL     1      12.233   0.885   8.915  0.00  0.00    +0.000 A 
ATOM     22  C   UNL     1      13.158   0.224   9.714  0.00  0.00    +0.000 A 
ATOM     23  S   UNL     1      14.773   0.678   9.409  0.00  0.00    +0.000 S 
ATOM     24  C   UNL     1      14.289   1.815   8.238  0.00  0.00    +0.000 A 
ATOM     25  N   UNL     1      15.206   2.587   7.596  0.00  0.00    +0.000 NA
ATOM     26  C   UNL     1      14.699   3.428   6.756  0.00  0.00    +0.000 A 
ATOM     27  N   UNL     1      13.361   3.560   6.497  0.00  0.00    +0.000 N 
ATOM     28  C   UNL     1      12.400   2.782   7.099  0.00  0.00    +0.000 A 
ATOM     29  O   UNL     1      11.215   2.893   6.809  0.00  0.00    +0.000 OA
ATOM     30  C   UNL     1      12.917   1.829   8.065  0.00  0.00    +0.000 A 
ATOM     31  H   UNL     1      13.026   4.233   5.821  0.00  0.00    +0.000 HD
ENDBRANCH  18  21
ENDBRANCH   1  17
TORSDOF 6
