REMARK  Name = 
REMARK  9 active torsions:
REMARK  status: ('A' for Active; 'I' for Inactive)
REMARK    1  A    between atoms: C_1  and  O_2
REMARK    2  A    between atoms: O_2  and  C_3
REMARK    3  A    between atoms: C_5  and  C_6
REMARK    4  A    between atoms: C_6  and  N_7
REMARK    5  A    between atoms: C_8  and  C_10
REMARK    6  A    between atoms: C_22  and  C_23
REMARK    7  A    between atoms: C_23  and  N_24
REMARK    8  A    between atoms: N_24  and  C_25
REMARK    9  A    between atoms: C_25  and  C_26
REMARK                            x       y       z     vdW  Elec       q    Type
REMARK                         _______ _______ _______ _____ _____    ______ ____
ROOT
ATOM      1  C   UNL     1       3.106  -0.584   0.927  0.00  0.00    +0.000 A 
ATOM      2  C   UNL     1       2.715  -1.912   1.203  0.00  0.00    +0.000 A 
ATOM      3  C   UNL     1       3.494  -2.759   2.012  0.00  0.00    +0.000 A 
ATOM      4  C   UNL     1       4.671  -2.246   2.562  0.00  0.00    +0.000 A 
ATOM      5  C   UNL     1       5.036  -0.916   2.338  0.00  0.00    +0.000 A 
ATOM      6  C   UNL     1       4.241  -0.051   1.560  0.00  0.00    +0.000 A 
ENDROOT
BRANCH   1   8
ATOM      7  C   UNL     1       2.852   0.911  -0.909  0.00  0.00    +0.000 C 
ATOM      8  O   UNL     1       2.248   0.116   0.114  0.00  0.00    +0.000 OA
ENDBRANCH   1   8
BRANCH   3   9
ATOM      9  C   UNL     1       3.075  -4.180   2.316  0.00  0.00    +0.000 C 
BRANCH   9  10
ATOM     10  N   UNL     1       2.290  -4.262   3.526  0.00  0.00    +0.000 N 
ATOM     11  C   UNL     1       1.925  -5.473   4.071  0.00  0.00    +0.000 C 
ATOM     12  O   UNL     1       2.286  -6.539   3.590  0.00  0.00    +0.000 OA
ATOM     13  H   UNL     1       1.783  -3.426   3.795  0.00  0.00    +0.000 HD
BRANCH  11  14
ATOM     14  C   UNL     1       1.122  -5.420   5.304  0.00  0.00    +0.000 A 
ATOM     15  C   UNL     1       1.105  -6.509   6.167  0.00  0.00    +0.000 A 
ATOM     16  S   UNL     1       0.174  -6.257   7.575  0.00  0.00    +0.000 S 
ATOM     17  C   UNL     1      -0.289  -4.704   7.055  0.00  0.00    +0.000 A 
ATOM     18  N   UNL     1      -1.122  -3.932   7.807  0.00  0.00    +0.000 NA
ATOM     19  C   UNL     1      -1.405  -2.787   7.278  0.00  0.00    +0.000 A 
ATOM     20  N   UNL     1      -0.934  -2.346   6.069  0.00  0.00    +0.000 N 
ATOM     21  C   UNL     1      -0.082  -3.087   5.283  0.00  0.00    +0.000 A 
ATOM     22  O   UNL     1       0.332  -2.659   4.216  0.00  0.00    +0.000 OA
ATOM     23  C   UNL     1       0.272  -4.379   5.833  0.00  0.00    +0.000 A 
ATOM     24  H   UNL     1      -1.182  -1.435   5.711  0.00  0.00    +0.000 HD
ENDBRANCH  11  14
ENDBRANCH   9  10
ENDBRANCH   3   9
BRANCH   6  25
ATOM     25  C   UNL     1       4.642   1.408   1.524  0.00  0.00    +0.000 C 
BRANCH  25  26
ATOM     26  N   UNL     1       3.599   2.347   1.950  0.00  0.00    +0.000 NA
ATOM     27  H   UNL     1       2.746   2.153   1.424  0.00  0.00    +0.000 HD
BRANCH  26  28
ATOM     28  C   UNL     1       3.234   2.199   3.365  0.00  0.00    +0.000 C 
BRANCH  28  29
ATOM     29  C   UNL     1       2.141   3.179   3.761  0.00  0.00    +0.000 A 
ATOM     30  C   UNL     1       2.340   4.552   3.607  0.00  0.00    +0.000 A 
ATOM     31  C   UNL     1       1.320   5.428   3.967  0.00  0.00    +0.000 A 
ATOM     32  C   UNL     1       0.132   4.916   4.471  0.00  0.00    +0.000 A 
ATOM     33  C   UNL     1       0.010   3.542   4.589  0.00  0.00    +0.000 A 
ATOM     34  N   UNL     1       0.981   2.666   4.250  0.00  0.00    +0.000 NA
ENDBRANCH  28  29
ENDBRANCH  26  28
ENDBRANCH  25  26
ENDBRANCH   6  25
TORSDOF 8
