REMARK  Name = 
REMARK  7 active torsions:
REMARK  status: ('A' for Active; 'I' for Inactive)
REMARK    1  A    between atoms: C_1  and  C_2
REMARK    2  A    between atoms: C_4  and  C_5
REMARK    3  A    between atoms: C_9  and  C_10
REMARK    4  A    between atoms: C_10  and  N_11
REMARK    5  A    between atoms: N_11  and  C_12
REMARK    6  A    between atoms: C_15  and  C_16
REMARK    7  A    between atoms: C_20  and  C_21
REMARK                            x       y       z     vdW  Elec       q    Type
REMARK                         _______ _______ _______ _____ _____    ______ ____
ROOT
ATOM      1  C   UNL     1      -5.052  -3.889  -1.735  0.00  0.00    +0.000 C 
ENDROOT
BRANCH   1   6
ATOM      2  C   UNL     1      -1.993  -2.400   0.037  0.00  0.00    +0.000 A 
ATOM      3  C   UNL     1      -1.842  -3.336   1.076  0.00  0.00    +0.000 A 
ATOM      4  C   UNL     1      -2.653  -4.472   1.161  0.00  0.00    +0.000 A 
ATOM      5  C   UNL     1      -3.667  -4.683   0.231  0.00  0.00    +0.000 A 
ATOM      6  C   UNL     1      -3.875  -3.759  -0.797  0.00  0.00    +0.000 A 
ATOM      7  C   UNL     1      -3.008  -2.656  -0.906  0.00  0.00    +0.000 A 
BRANCH   2  11
ATOM      8  C   UNL     1      -1.318   2.403  -1.314  0.00  0.00    +0.000 C 
ATOM      9  C   UNL     1      -0.815   1.134  -0.694  0.00  0.00    +0.000 A 
ATOM     10  C   UNL     1      -1.637   0.012  -0.602  0.00  0.00    +0.000 A 
ATOM     11  C   UNL     1      -1.147  -1.185  -0.052  0.00  0.00    +0.000 A 
ATOM     12  C   UNL     1       0.177  -1.168   0.405  0.00  0.00    +0.000 A 
ATOM     13  C   UNL     1       0.923  -0.004   0.292  0.00  0.00    +0.000 A 
ATOM     14  N   UNL     1       0.459   1.139  -0.248  0.00  0.00    +0.000 NA
ENDBRANCH   2  11
ENDBRANCH   1   6
BRANCH   1  15
ATOM     15  N   UNL     1      -4.702  -4.660  -2.923  0.00  0.00    +0.000 N 
ATOM     16  H   UNL     1      -4.326  -5.568  -2.673  0.00  0.00    +0.000 HD
BRANCH  15  17
ATOM     17  C   UNL     1      -5.790  -4.829  -3.801  0.00  0.00    +0.000 A 
ATOM     18  N   UNL     1      -6.955  -4.200  -3.520  0.00  0.00    +0.000 NA
ATOM     19  C   UNL     1      -8.004  -4.352  -4.363  0.00  0.00    +0.000 A 
ATOM     20  C   UNL     1      -7.967  -5.107  -5.517  0.00  0.00    +0.000 A 
ATOM     21  C   UNL     1      -6.755  -5.728  -5.822  0.00  0.00    +0.000 A 
ATOM     22  C   UNL     1      -5.648  -5.603  -4.962  0.00  0.00    +0.000 A 
ATOM     23  C   UNL     1      -4.353  -6.262  -5.342  0.00  0.00    +0.000 C 
BRANCH  20  24
ATOM     24  C   UNL     1      -9.128  -5.292  -6.420  0.00  0.00    +0.000 C 
ATOM     25  N   UNL     1     -10.325  -4.717  -6.092  0.00  0.00    +0.000 N 
ATOM     26  O   UNL     1      -9.033  -5.960  -7.444  0.00  0.00    +0.000 OA
ATOM     27  H   UNL     1     -10.521  -4.171  -5.270  0.00  0.00    +0.000 HD
ATOM     28  H   UNL     1     -11.095  -4.892  -6.728  0.00  0.00    +0.000 HD
ENDBRANCH  20  24
ENDBRANCH  15  17
ENDBRANCH   1  15
TORSDOF 5
