REMARK  Name = 
REMARK  10 active torsions:
REMARK  status: ('A' for Active; 'I' for Inactive)
REMARK    1  A    between atoms: C_1  and  C_2
REMARK    2  A    between atoms: C_2  and  C_3
REMARK    3  A    between atoms: C_2  and  C_4
REMARK    4  A    between atoms: C_2  and  N_5
REMARK    5  A    between atoms: N_5  and  C_6
REMARK    6  A    between atoms: N_5  and  C_17
REMARK    7  A    between atoms: C_6  and  C_7
REMARK    8  A    between atoms: C_7  and  C_8
REMARK    9  A    between atoms: C_12  and  C_13
REMARK   10  A    between atoms: C_20  and  C_21
REMARK                            x       y       z     vdW  Elec       q    Type
REMARK                         _______ _______ _______ _____ _____    ______ ____
ROOT
ATOM      1  N   UNL     1       2.970  -1.321   0.181  0.00  0.00    +0.000 N 
ENDROOT
BRANCH   1   2
ATOM      2  C   UNL     1       4.341  -1.675   0.295  0.00  0.00    +0.000 A 
ATOM      3  C   UNL     1       5.350  -0.753   0.644  0.00  0.00    +0.000 A 
ATOM      4  C   UNL     1       6.722  -1.058   0.663  0.00  0.00    +0.000 A 
ATOM      5  C   UNL     1       7.148  -2.333   0.378  0.00  0.00    +0.000 A 
ATOM      6  C   UNL     1       6.204  -3.305   0.071  0.00  0.00    +0.000 A 
ATOM      7  C   UNL     1       4.833  -2.962   0.016  0.00  0.00    +0.000 A 
BRANCH   5   8
ATOM      8  C   UNL     1       8.543  -2.660   0.386  0.00  0.00    +0.000 C 
ATOM      9  N   UNL     1       9.672  -2.923   0.385  0.00  0.00    +0.000 NA
ENDBRANCH   5   8
ENDBRANCH   1   2
BRANCH   1  11
ATOM     10  C   UNL     1       1.048   0.379  -0.355  0.00  0.00    +0.000 C 
ATOM     11  C   UNL     1       2.546   0.130  -0.055  0.00  0.00    +0.000 C 
ATOM     12  C   UNL     1       3.264   0.624  -1.334  0.00  0.00    +0.000 C 
ATOM     13  C   UNL     1       2.791   1.054   1.164  0.00  0.00    +0.000 C 
ENDBRANCH   1  11
BRANCH   1  14
ATOM     14  C   UNL     1       1.994  -2.435   0.420  0.00  0.00    +0.000 C 
BRANCH  14  15
ATOM     15  C   UNL     1       0.817  -2.529  -0.559  0.00  0.00    +0.000 C 
BRANCH  15  16
ATOM     16  C   UNL     1      -0.074  -3.747  -0.544  0.00  0.00    +0.000 A 
ATOM     17  C   UNL     1      -1.211  -3.729  -1.368  0.00  0.00    +0.000 A 
ATOM     18  C   UNL     1      -2.068  -4.818  -1.370  0.00  0.00    +0.000 A 
ATOM     19  N   UNL     1      -1.881  -5.916  -0.612  0.00  0.00    +0.000 NA
ATOM     20  C   UNL     1      -0.774  -5.910   0.185  0.00  0.00    +0.000 A 
ATOM     21  C   UNL     1       0.140  -4.864   0.255  0.00  0.00    +0.000 A 
BRANCH  20  22
ATOM     22  C   UNL     1      -0.547  -7.119   1.031  0.00  0.00    +0.000 C 
ATOM     23  N   UNL     1      -1.477  -8.110   0.909  0.00  0.00    +0.000 N 
ATOM     24  O   UNL     1       0.405  -7.231   1.786  0.00  0.00    +0.000 OA
ATOM     25  H   UNL     1      -2.261  -7.987   0.279  0.00  0.00    +0.000 HD
ATOM     26  H   UNL     1      -1.382  -8.950   1.462  0.00  0.00    +0.000 HD
ENDBRANCH  20  22
ENDBRANCH  15  16
ENDBRANCH  14  15
ENDBRANCH   1  14
TORSDOF 7
