REMARK  Name = 
REMARK  7 active torsions:
REMARK  status: ('A' for Active; 'I' for Inactive)
REMARK    1  A    between atoms: C_1  and  C_2
REMARK    2  A    between atoms: C_2  and  N_3
REMARK    3  A    between atoms: C_2  and  C_16
REMARK    4  A    between atoms: C_4  and  C_6
REMARK    5  A    between atoms: C_19  and  O_20
REMARK    6  A    between atoms: O_20  and  C_21
REMARK    7  A    between atoms: C_21  and  C_22
REMARK                            x       y       z     vdW  Elec       q    Type
REMARK                         _______ _______ _______ _____ _____    ______ ____
ROOT
ATOM      1  C   UNL     1       3.704  -0.854  -0.313  0.00  0.00    +0.000 C 
ATOM      2  C   UNL     1       2.464   0.000  -0.023  0.00  0.00    +0.000 C 
ENDROOT
BRANCH   2   3
ATOM      3  C   UNL     1       2.892   1.372   0.477  0.00  0.00    +0.000 A 
ATOM      4  C   UNL     1       2.554   2.541  -0.217  0.00  0.00    +0.000 A 
ATOM      5  C   UNL     1       2.884   3.796   0.311  0.00  0.00    +0.000 A 
ATOM      6  C   UNL     1       3.542   3.894   1.537  0.00  0.00    +0.000 A 
ATOM      7  C   UNL     1       3.952   2.733   2.190  0.00  0.00    +0.000 A 
ATOM      8  C   UNL     1       3.612   1.485   1.676  0.00  0.00    +0.000 A 
BRANCH   6   9
ATOM      9  O   UNL     1       3.721   5.158   2.035  0.00  0.00    +0.000 OA
BRANCH   9  10
ATOM     10  C   UNL     1       3.861   5.205   3.463  0.00  0.00    +0.000 C 
BRANCH  10  11
ATOM     11  C   UNL     1       3.515   6.561   4.027  0.00  0.00    +0.000 A 
ATOM     12  C   UNL     1       3.801   7.729   3.331  0.00  0.00    +0.000 A 
ATOM     13  C   UNL     1       3.478   8.952   3.912  0.00  0.00    +0.000 A 
ATOM     14  C   UNL     1       2.893   8.977   5.173  0.00  0.00    +0.000 A 
ATOM     15  C   UNL     1       2.662   7.771   5.810  0.00  0.00    +0.000 A 
ATOM     16  N   UNL     1       2.963   6.572   5.271  0.00  0.00    +0.000 NA
ENDBRANCH  10  11
ENDBRANCH   9  10
ENDBRANCH   6   9
ENDBRANCH   2   3
BRANCH   2  17
ATOM     17  N   UNL     1       1.585  -0.605   0.969  0.00  0.00    +0.000 N 
ATOM     18  C   UNL     1       0.996  -1.831   0.804  0.00  0.00    +0.000 C 
ATOM     19  O   UNL     1       1.198  -2.540  -0.180  0.00  0.00    +0.000 OA
ATOM     20  H   UNL     1       1.153   0.039   1.626  0.00  0.00    +0.000 HD
BRANCH  18  21
ATOM     21  C   UNL     1       0.160  -2.305   1.913  0.00  0.00    +0.000 A 
ATOM     22  C   UNL     1       0.033  -3.668   2.142  0.00  0.00    +0.000 A 
ATOM     23  S   UNL     1      -0.961  -4.047   3.475  0.00  0.00    +0.000 S 
ATOM     24  C   UNL     1      -1.290  -2.402   3.765  0.00  0.00    +0.000 A 
ATOM     25  N   UNL     1      -2.127  -2.022   4.768  0.00  0.00    +0.000 NA
ATOM     26  C   UNL     1      -2.313  -0.747   4.851  0.00  0.00    +0.000 A 
ATOM     27  N   UNL     1      -1.727   0.184   4.032  0.00  0.00    +0.000 N 
ATOM     28  C   UNL     1      -0.844  -0.151   3.033  0.00  0.00    +0.000 A 
ATOM     29  O   UNL     1      -0.282   0.704   2.358  0.00  0.00    +0.000 OA
ATOM     30  C   UNL     1      -0.626  -1.576   2.877  0.00  0.00    +0.000 A 
ATOM     31  H   UNL     1      -1.899   1.170   4.163  0.00  0.00    +0.000 HD
ENDBRANCH  18  21
ENDBRANCH   2  17
TORSDOF 6
