REMARK  Name = 
REMARK  8 active torsions:
REMARK  status: ('A' for Active; 'I' for Inactive)
REMARK    1  A    between atoms: C_1  and  C_2
REMARK    2  A    between atoms: C_2  and  N_3
REMARK    3  A    between atoms: C_2  and  C_16
REMARK    4  A    between atoms: C_4  and  C_6
REMARK    5  A    between atoms: C_19  and  C_20
REMARK    6  A    between atoms: C_20  and  N_21
REMARK    7  A    between atoms: N_21  and  C_22
REMARK    8  A    between atoms: C_22  and  C_23
REMARK                            x       y       z     vdW  Elec       q    Type
REMARK                         _______ _______ _______ _____ _____    ______ ____
ROOT
ATOM      1  C   UNL     1       2.244  -1.018  -1.351  0.00  0.00    +0.000 C 
ATOM      2  C   UNL     1       2.359  -0.101  -0.131  0.00  0.00    +0.000 C 
ENDROOT
BRANCH   2   3
ATOM      3  C   UNL     1       2.878   1.282  -0.503  0.00  0.00    +0.000 A 
ATOM      4  C   UNL     1       2.087   2.406  -0.245  0.00  0.00    +0.000 A 
ATOM      5  C   UNL     1       2.523   3.692  -0.587  0.00  0.00    +0.000 A 
ATOM      6  C   UNL     1       3.774   3.890  -1.182  0.00  0.00    +0.000 A 
ATOM      7  C   UNL     1       4.583   2.770  -1.420  0.00  0.00    +0.000 A 
ATOM      8  C   UNL     1       4.143   1.482  -1.081  0.00  0.00    +0.000 A 
BRANCH   6   9
ATOM      9  C   UNL     1       4.218   5.282  -1.578  0.00  0.00    +0.000 C 
BRANCH   9  10
ATOM     10  N   UNL     1       4.263   6.176  -0.419  0.00  0.00    +0.000 NA
ATOM     11  H   UNL     1       4.910   5.793   0.266  0.00  0.00    +0.000 HD
BRANCH  10  12
ATOM     12  C   UNL     1       4.691   7.523  -0.792  0.00  0.00    +0.000 C 
BRANCH  12  13
ATOM     13  C   UNL     1       4.761   8.420   0.421  0.00  0.00    +0.000 A 
ATOM     14  C   UNL     1       5.965   9.015   0.811  0.00  0.00    +0.000 A 
ATOM     15  C   UNL     1       5.972   9.833   1.932  0.00  0.00    +0.000 A 
ATOM     16  N   UNL     1       4.880  10.097   2.680  0.00  0.00    +0.000 NA
ATOM     17  C   UNL     1       3.727   9.515   2.288  0.00  0.00    +0.000 A 
ATOM     18  C   UNL     1       3.618   8.686   1.182  0.00  0.00    +0.000 A 
ENDBRANCH  12  13
ENDBRANCH  10  12
ENDBRANCH   9  10
ENDBRANCH   6   9
ENDBRANCH   2   3
BRANCH   2  19
ATOM     19  N   UNL     1       3.184  -0.714   0.890  0.00  0.00    +0.000 N 
ATOM     20  C   UNL     1       2.687  -1.606   1.804  0.00  0.00    +0.000 C 
ATOM     21  O   UNL     1       1.504  -1.937   1.825  0.00  0.00    +0.000 OA
ATOM     22  H   UNL     1       4.149  -0.409   0.954  0.00  0.00    +0.000 HD
BRANCH  20  23
ATOM     23  C   UNL     1       3.661  -2.204   2.725  0.00  0.00    +0.000 A 
ATOM     24  C   UNL     1       3.393  -3.431   3.317  0.00  0.00    +0.000 A 
ATOM     25  S   UNL     1       4.644  -3.984   4.336  0.00  0.00    +0.000 S 
ATOM     26  C   UNL     1       5.561  -2.576   4.067  0.00  0.00    +0.000 A 
ATOM     27  N   UNL     1       6.760  -2.391   4.683  0.00  0.00    +0.000 NA
ATOM     28  C   UNL     1       7.320  -1.256   4.429  0.00  0.00    +0.000 A 
ATOM     29  N   UNL     1       6.797  -0.294   3.604  0.00  0.00    +0.000 N 
ATOM     30  C   UNL     1       5.636  -0.475   2.894  0.00  0.00    +0.000 A 
ATOM     31  O   UNL     1       5.280   0.338   2.050  0.00  0.00    +0.000 OA
ATOM     32  C   UNL     1       4.936  -1.711   3.188  0.00  0.00    +0.000 A 
ATOM     33  H   UNL     1       7.301   0.560   3.416  0.00  0.00    +0.000 HD
ENDBRANCH  20  23
ENDBRANCH   2  19
TORSDOF 7
