REMARK  Name = 
REMARK  4 active torsions:
REMARK  status: ('A' for Active; 'I' for Inactive)
REMARK    1  A    between atoms: C_2  and  C_3
REMARK    2  A    between atoms: N_7  and  C_8
REMARK    3  A    between atoms: C_8  and  C_9
REMARK    4  A    between atoms: C_13  and  C_14
REMARK                            x       y       z     vdW  Elec       q    Type
REMARK                         _______ _______ _______ _____ _____    ______ ____
ROOT
ATOM      1  C   UNL     1      -5.376   0.106   0.243  0.00  0.00    +0.000 A 
ATOM      2  C   UNL     1      -5.760  -0.924  -0.627  0.00  0.00    +0.000 A 
ATOM      3  C   UNL     1      -6.260  -2.125  -0.127  0.00  0.00    +0.000 A 
ATOM      4  C   UNL     1      -6.411  -2.299   1.251  0.00  0.00    +0.000 A 
ATOM      5  C   UNL     1      -6.145  -1.252   2.146  0.00  0.00    +0.000 A 
ATOM      6  C   UNL     1      -5.687  -0.039   1.607  0.00  0.00    +0.000 A 
ENDROOT
BRANCH   5   7
ATOM      7  C   UNL     1      -6.170  -1.434   3.612  0.00  0.00    +0.000 A 
ATOM      8  C   UNL     1      -5.631  -2.588   4.205  0.00  0.00    +0.000 A 
ATOM      9  C   UNL     1      -5.554  -2.710   5.592  0.00  0.00    +0.000 A 
ATOM     10  F   UNL     1      -5.016  -3.815   6.123  0.00  0.00    +0.000 F 
ATOM     11  C   UNL     1      -5.999  -1.699   6.427  0.00  0.00    +0.000 A 
ATOM     12  C   UNL     1      -6.538  -0.559   5.855  0.00  0.00    +0.000 A 
ATOM     13  F   UNL     1      -6.956   0.440   6.643  0.00  0.00    +0.000 F 
ATOM     14  C   UNL     1      -6.634  -0.421   4.470  0.00  0.00    +0.000 A 
ENDBRANCH   5   7
BRANCH   1  15
ATOM     15  C   UNL     1      -4.362   1.152  -0.192  0.00  0.00    +0.000 C 
ATOM     16  C   UNL     1      -4.717   2.259  -1.160  0.00  0.00    +0.000 C 
ATOM     17  C   UNL     1      -4.512   2.580   0.286  0.00  0.00    +0.000 C 
BRANCH  15  22
ATOM     18  C   UNL     1      -0.178  -1.041   2.054  0.00  0.00    +0.000 A 
ATOM     19  C   UNL     1      -1.126  -0.205   2.623  0.00  0.00    +0.000 A 
ATOM     20  C   UNL     1      -2.153   0.310   1.831  0.00  0.00    +0.000 A 
ATOM     21  C   UNL     1      -2.197  -0.021   0.481  0.00  0.00    +0.000 A 
ATOM     22  N   UNL     1      -3.049   0.555  -0.449  0.00  0.00    +0.000 N 
ATOM     23  N   UNL     1      -1.315  -0.879  -0.071  0.00  0.00    +0.000 NA
ATOM     24  C   UNL     1      -0.323  -1.366   0.707  0.00  0.00    +0.000 A 
ATOM     25  H   UNL     1      -2.958  -0.008  -1.293  0.00  0.00    +0.000 HD
BRANCH  18  27
ATOM     26  N   UNL     1       1.881  -1.920   3.357  0.00  0.00    +0.000 NA
ATOM     27  C   UNL     1       0.952  -1.538   2.773  0.00  0.00    +0.000 C 
ENDBRANCH  18  27
ENDBRANCH  15  22
ENDBRANCH   1  15
TORSDOF 4
