REMARK  Name = 
REMARK  6 active torsions:
REMARK  status: ('A' for Active; 'I' for Inactive)
REMARK    1  A    between atoms: N_1  and  C_2
REMARK    2  A    between atoms: C_2  and  C_3
REMARK    3  A    between atoms: C_3  and  C_4
REMARK    4  A    between atoms: C_7  and  O_8
REMARK    5  A    between atoms: O_8  and  C_9
REMARK    6  A    between atoms: C_9  and  C_10
REMARK                            x       y       z     vdW  Elec       q    Type
REMARK                         _______ _______ _______ _____ _____    ______ ____
ROOT
ATOM      1  C   UNL     1       4.346  -0.090   1.401  0.00  0.00    +0.000 A 
ATOM      2  C   UNL     1       5.048  -0.238   2.605  0.00  0.00    +0.000 A 
ATOM      3  C   UNL     1       6.443  -0.314   2.602  0.00  0.00    +0.000 A 
ATOM      4  C   UNL     1       7.149  -0.252   1.401  0.00  0.00    +0.000 A 
ATOM      5  C   UNL     1       6.459  -0.041   0.208  0.00  0.00    +0.000 A 
ATOM      6  C   UNL     1       5.065   0.031   0.207  0.00  0.00    +0.000 A 
ENDROOT
BRANCH   1   7
ATOM      7  C   UNL     1       2.839  -0.057   1.380  0.00  0.00    +0.000 C 
BRANCH   7   8
ATOM      8  C   UNL     1       2.288   1.364   1.514  0.00  0.00    +0.000 C 
BRANCH   8   9
ATOM      9  N   UNL     1       0.825   1.356   1.487  0.00  0.00    +0.000 NA
ATOM     10  H   UNL     1       0.482   2.307   1.611  0.00  0.00    +0.000 HD
ATOM     11  H   UNL     1       0.472   0.820   2.280  0.00  0.00    +0.000 HD
ENDBRANCH   8   9
ENDBRANCH   7   8
ENDBRANCH   1   7
BRANCH   4  12
ATOM     12  O   UNL     1       8.506  -0.409   1.499  0.00  0.00    +0.000 OA
BRANCH  12  13
ATOM     13  C   UNL     1       9.140  -0.898   0.311  0.00  0.00    +0.000 C 
BRANCH  13  14
ATOM     14  C   UNL     1      10.457  -1.553   0.633  0.00  0.00    +0.000 A 
ATOM     15  C   UNL     1      10.705  -2.166   1.868  0.00  0.00    +0.000 A 
ATOM     16  C   UNL     1      11.908  -2.839   2.095  0.00  0.00    +0.000 A 
ATOM     17  C   UNL     1      12.870  -2.916   1.088  0.00  0.00    +0.000 A 
ATOM     18  C   UNL     1      12.630  -2.320  -0.148  0.00  0.00    +0.000 A 
ATOM     19  C   UNL     1      11.430  -1.651  -0.367  0.00  0.00    +0.000 A 
ATOM     20  F   UNL     1      11.204  -1.109  -1.573  0.00  0.00    +0.000 F 
ENDBRANCH  13  14
ENDBRANCH  12  13
ENDBRANCH   4  12
TORSDOF 6
