REMARK  Name = 
REMARK  8 active torsions:
REMARK  status: ('A' for Active; 'I' for Inactive)
REMARK    1  A    between atoms: C_1  and  C_2
REMARK    2  A    between atoms: C_2  and  N_3
REMARK    3  A    between atoms: N_3  and  C_4
REMARK    4  A    between atoms: N_3  and  C_15
REMARK    5  A    between atoms: C_4  and  C_5
REMARK    6  A    between atoms: C_5  and  C_6
REMARK    7  A    between atoms: C_10  and  C_11
REMARK    8  A    between atoms: C_18  and  C_19
REMARK                            x       y       z     vdW  Elec       q    Type
REMARK                         _______ _______ _______ _____ _____    ______ ____
ROOT
ATOM      1  N   UNL     1       3.095   1.046  -0.638  0.00  0.00    +0.000 N 
ENDROOT
BRANCH   1   2
ATOM      2  C   UNL     1       4.466   1.204  -0.896  0.00  0.00    +0.000 A 
ATOM      3  C   UNL     1       4.947   1.876  -2.037  0.00  0.00    +0.000 A 
ATOM      4  C   UNL     1       6.316   2.061  -2.286  0.00  0.00    +0.000 A 
ATOM      5  C   UNL     1       7.268   1.573  -1.391  0.00  0.00    +0.000 A 
ATOM      6  C   UNL     1       6.817   0.909  -0.256  0.00  0.00    +0.000 A 
ATOM      7  F   UNL     1       7.681   0.423   0.650  0.00  0.00    +0.000 F 
ATOM      8  C   UNL     1       5.449   0.729  -0.013  0.00  0.00    +0.000 A 
BRANCH   5   9
ATOM      9  C   UNL     1       8.703   1.789  -1.700  0.00  0.00    +0.000 C 
ATOM     10  N   UNL     1       9.633   1.309  -0.823  0.00  0.00    +0.000 N 
ATOM     11  O   UNL     1       9.059   2.381  -2.714  0.00  0.00    +0.000 OA
ATOM     12  H   UNL     1       9.387   0.818   0.026  0.00  0.00    +0.000 HD
ATOM     13  H   UNL     1      10.610   1.452  -1.042  0.00  0.00    +0.000 HD
ENDBRANCH   5   9
ENDBRANCH   1   2
BRANCH   1  15
ATOM     14  C   UNL     1       2.827  -1.437  -0.536  0.00  0.00    +0.000 C 
ATOM     15  C   UNL     1       2.633  -0.100   0.168  0.00  0.00    +0.000 C 
ENDBRANCH   1  15
BRANCH   1  16
ATOM     16  C   UNL     1       2.142   1.764  -1.514  0.00  0.00    +0.000 C 
BRANCH  16  17
ATOM     17  C   UNL     1       0.670   1.813  -1.074  0.00  0.00    +0.000 C 
BRANCH  17  18
ATOM     18  C   UNL     1       0.313   2.492   0.232  0.00  0.00    +0.000 A 
ATOM     19  C   UNL     1       1.144   3.419   0.871  0.00  0.00    +0.000 A 
ATOM     20  C   UNL     1       0.723   4.075   2.032  0.00  0.00    +0.000 A 
ATOM     21  C   UNL     1      -0.537   3.815   2.573  0.00  0.00    +0.000 A 
ATOM     22  C   UNL     1      -1.380   2.888   1.954  0.00  0.00    +0.000 A 
ATOM     23  C   UNL     1      -0.956   2.240   0.786  0.00  0.00    +0.000 A 
BRANCH  22  24
ATOM     24  C   UNL     1      -2.747   2.597   2.464  0.00  0.00    +0.000 C 
ATOM     25  N   UNL     1      -2.990   2.836   3.789  0.00  0.00    +0.000 N 
ATOM     26  O   UNL     1      -3.621   2.144   1.740  0.00  0.00    +0.000 OA
ATOM     27  H   UNL     1      -2.253   2.983   4.463  0.00  0.00    +0.000 HD
ATOM     28  H   UNL     1      -3.899   2.557   4.135  0.00  0.00    +0.000 HD
ENDBRANCH  22  24
ENDBRANCH  17  18
ENDBRANCH  16  17
ENDBRANCH   1  16
TORSDOF 7
