REMARK  Name = 
REMARK  4 active torsions:
REMARK  status: ('A' for Active; 'I' for Inactive)
REMARK    1  A    between atoms: N_1  and  C_2
REMARK    2  A    between atoms: C_2  and  C_3
REMARK    3  A    between atoms: C_6  and  C_7
REMARK    4  A    between atoms: C_7  and  N_8
REMARK                            x       y       z     vdW  Elec       q    Type
REMARK                         _______ _______ _______ _____ _____    ______ ____
ROOT
ATOM      1  C   UNL     1       3.372  -3.787   4.714  0.00  0.00    +0.000 C 
ENDROOT
BRANCH   1   2
ATOM      2  N   UNL     1       4.554  -3.877   5.581  0.00  0.00    +0.000 N 
ATOM      3  C   UNL     1       5.789  -4.286   5.143  0.00  0.00    +0.000 A 
ATOM      4  C   UNL     1       6.588  -4.480   6.244  0.00  0.00    +0.000 A 
ATOM      5  C   UNL     1       5.769  -4.335   7.392  0.00  0.00    +0.000 A 
ATOM      6  C   UNL     1       5.963  -4.612   8.760  0.00  0.00    +0.000 A 
ATOM      7  C   UNL     1       4.940  -4.327   9.668  0.00  0.00    +0.000 A 
ATOM      8  C   UNL     1       3.783  -3.697   9.231  0.00  0.00    +0.000 A 
ATOM      9  F   UNL     1       2.843  -3.372  10.130  0.00  0.00    +0.000 F 
ATOM     10  C   UNL     1       3.555  -3.420   7.882  0.00  0.00    +0.000 A 
ATOM     11  C   UNL     1       4.540  -3.819   6.963  0.00  0.00    +0.000 A 
ENDBRANCH   1   2
BRANCH   1  15
ATOM     12  C   UNL     1       3.633  -0.569   1.829  0.00  0.00    +0.000 A 
ATOM     13  C   UNL     1       4.035  -1.869   1.489  0.00  0.00    +0.000 A 
ATOM     14  C   UNL     1       3.946  -2.908   2.413  0.00  0.00    +0.000 A 
ATOM     15  C   UNL     1       3.461  -2.667   3.706  0.00  0.00    +0.000 A 
ATOM     16  C   UNL     1       3.059  -1.374   4.052  0.00  0.00    +0.000 A 
ATOM     17  C   UNL     1       3.141  -0.332   3.120  0.00  0.00    +0.000 A 
BRANCH  12  18
ATOM     18  C   UNL     1       3.769   0.564   0.844  0.00  0.00    +0.000 C 
BRANCH  18  19
ATOM     19  N   UNL     1       3.014   0.316  -0.380  0.00  0.00    +0.000 NA
ATOM     20  H   UNL     1       3.046   1.151  -0.962  0.00  0.00    +0.000 HD
ATOM     21  H   UNL     1       2.036   0.171  -0.136  0.00  0.00    +0.000 HD
ENDBRANCH  18  19
ENDBRANCH  12  18
ENDBRANCH   1  15
TORSDOF 4
