REMARK  Name = 
REMARK  5 active torsions:
REMARK  status: ('A' for Active; 'I' for Inactive)
REMARK    1  A    between atoms: C_1  and  C_2
REMARK    2  A    between atoms: C_2  and  C_3
REMARK    3  A    between atoms: C_7  and  C_8
REMARK    4  A    between atoms: C_9  and  C_10
REMARK    5  A    between atoms: C_14  and  C_15
REMARK                            x       y       z     vdW  Elec       q    Type
REMARK                         _______ _______ _______ _____ _____    ______ ____
ROOT
ATOM      1  C   UNL     1       2.900   0.308   1.477  0.00  0.00    +0.000 A 
ATOM      2  C   UNL     1       2.637   1.589   1.998  0.00  0.00    +0.000 A 
ATOM      3  C   UNL     1       2.937   1.913   3.323  0.00  0.00    +0.000 A 
ATOM      4  C   UNL     1       3.504   0.960   4.164  0.00  0.00    +0.000 A 
ATOM      5  C   UNL     1       3.776  -0.325   3.687  0.00  0.00    +0.000 A 
ATOM      6  C   UNL     1       3.505  -0.625   2.340  0.00  0.00    +0.000 A 
ENDROOT
BRANCH   1   8
ATOM      7  C   UNL     1       0.872   0.025   0.083  0.00  0.00    +0.000 C 
ATOM      8  C   UNL     1       2.421  -0.062   0.054  0.00  0.00    +0.000 C 
ATOM      9  C   UNL     1       3.001   0.920  -0.997  0.00  0.00    +0.000 C 
ATOM     10  C   UNL     1       2.657   0.511  -2.428  0.00  0.00    +0.000 C 
ATOM     11  O   UNL     1       3.091  -0.816  -2.706  0.00  0.00    +0.000 OA
ATOM     12  C   UNL     1       2.490  -1.780  -1.847  0.00  0.00    +0.000 C 
ATOM     13  C   UNL     1       2.834  -1.492  -0.390  0.00  0.00    +0.000 C 
ENDBRANCH   1   8
BRANCH   5  14
ATOM     14  C   UNL     1       4.313  -1.392   4.546  0.00  0.00    +0.000 C 
ATOM     15  C   UNL     1       4.003  -1.534   5.846  0.00  0.00    +0.000 C 
BRANCH  15  16
ATOM     16  C   UNL     1       4.438  -2.668   6.673  0.00  0.00    +0.000 A 
ATOM     17  C   UNL     1       4.086  -2.728   8.018  0.00  0.00    +0.000 A 
ATOM     18  C   UNL     1       4.460  -3.843   8.765  0.00  0.00    +0.000 A 
ATOM     19  C   UNL     1       5.172  -4.866   8.149  0.00  0.00    +0.000 A 
ATOM     20  C   UNL     1       5.487  -4.725   6.805  0.00  0.00    +0.000 A 
ATOM     21  N   UNL     1       5.136  -3.650   6.060  0.00  0.00    +0.000 NA
BRANCH  20  22
ATOM     22  C   UNL     1       6.213  -5.754   6.114  0.00  0.00    +0.000 C 
ATOM     23  N   UNL     1       6.799  -6.612   5.589  0.00  0.00    +0.000 NA
ENDBRANCH  20  22
ENDBRANCH  15  16
ENDBRANCH   5  14
TORSDOF 4
