REMARK  Name = 
REMARK  8 active torsions:
REMARK  status: ('A' for Active; 'I' for Inactive)
REMARK    1  A    between atoms: C_1  and  C_2
REMARK    2  A    between atoms: C_2  and  O_3
REMARK    3  A    between atoms: C_2  and  C_21
REMARK    4  A    between atoms: O_3  and  C_4
REMARK    5  A    between atoms: C_7  and  C_8
REMARK    6  A    between atoms: C_12  and  S_13
REMARK    7  A    between atoms: S_13  and  C_14
REMARK    8  A    between atoms: C_14  and  C_15
REMARK                            x       y       z     vdW  Elec       q    Type
REMARK                         _______ _______ _______ _____ _____    ______ ____
ROOT
ATOM      1  C   UNL     1       0.382   0.968  -0.686  0.00  0.00    +0.000 A 
ATOM      2  C   UNL     1       0.882   2.027  -1.417  0.00  0.00    +0.000 A 
ATOM      3  N   UNL     1       0.128   2.884  -2.133  0.00  0.00    +0.000 NA
ATOM      4  C   UNL     1      -1.198   2.669  -2.093  0.00  0.00    +0.000 A 
ATOM      5  N   UNL     1      -1.811   1.713  -1.370  0.00  0.00    +0.000 NA
ATOM      6  C   UNL     1      -1.010   0.874  -0.661  0.00  0.00    +0.000 A 
ENDROOT
BRANCH   4   7
ATOM      7  C   UNL     1      -2.067   3.556  -2.962  0.00  0.00    +0.000 C 
ATOM      8  N   UNL     1      -3.419   3.301  -2.921  0.00  0.00    +0.000 N 
ATOM      9  O   UNL     1      -1.630   4.453  -3.681  0.00  0.00    +0.000 OA
ATOM     10  H   UNL     1      -3.787   2.536  -2.367  0.00  0.00    +0.000 HD
ATOM     11  H   UNL     1      -4.034   3.837  -3.519  0.00  0.00    +0.000 HD
ENDBRANCH   4   7
BRANCH   1  12
ATOM     12  O   UNL     1       1.153   0.067  -0.010  0.00  0.00    +0.000 OA
BRANCH  12  14
ATOM     13  C   UNL     1       3.168  -1.071   0.581  0.00  0.00    +0.000 C 
ATOM     14  C   UNL     1       2.476  -0.236  -0.500  0.00  0.00    +0.000 C 
BRANCH  14  15
ATOM     15  C   UNL     1       2.482  -0.963  -1.860  0.00  0.00    +0.000 C 
ATOM     16  F   UNL     1       3.234  -2.085  -1.854  0.00  0.00    +0.000 F 
ATOM     17  F   UNL     1       1.240  -1.309  -2.267  0.00  0.00    +0.000 F 
ATOM     18  F   UNL     1       2.996  -0.142  -2.807  0.00  0.00    +0.000 F 
ENDBRANCH  14  15
ENDBRANCH  12  14
ENDBRANCH   1  12
BRANCH   6  19
ATOM     19  S   UNL     1      -1.952  -0.405   0.174  0.00  0.00    +0.000 S 
BRANCH  19  20
ATOM     20  C   UNL     1      -1.010  -0.729   1.708  0.00  0.00    +0.000 C 
BRANCH  20  21
ATOM     21  C   UNL     1      -1.693  -1.737   2.609  0.00  0.00    +0.000 A 
ATOM     22  C   UNL     1      -2.935  -1.471   3.182  0.00  0.00    +0.000 A 
ATOM     23  C   UNL     1      -3.518  -2.433   4.007  0.00  0.00    +0.000 A 
ATOM     24  C   UNL     1      -2.845  -3.622   4.246  0.00  0.00    +0.000 A 
ATOM     25  C   UNL     1      -1.610  -3.807   3.653  0.00  0.00    +0.000 A 
ATOM     26  N   UNL     1      -1.021  -2.895   2.848  0.00  0.00    +0.000 NA
ENDBRANCH  20  21
ENDBRANCH  19  20
ENDBRANCH   6  19
TORSDOF 7
