REMARK  Name = 
REMARK  9 active torsions:
REMARK  status: ('A' for Active; 'I' for Inactive)
REMARK    1  A    between atoms: C_2  and  C_21
REMARK    2  A    between atoms: N_3  and  C_4
REMARK    3  A    between atoms: C_4  and  C_5
REMARK    4  A    between atoms: C_8  and  C_9
REMARK    5  A    between atoms: C_9  and  N_10
REMARK    6  A    between atoms: N_10  and  CA_11
REMARK    7  A    between atoms: CA_11  and  C_12
REMARK    8  A    between atoms: CA_11  and  C_14
REMARK    9  A    between atoms: C_12  and  O_13
REMARK                            x       y       z     vdW  Elec       q    Type
REMARK                         _______ _______ _______ _____ _____    ______ ____
ROOT
ATOM      1  C   UNL     1      12.229  -6.410   4.218  0.00  0.00    +0.000 A 
ATOM      2  C   UNL     1      11.103  -6.967   4.843  0.00  0.00    +0.000 A 
ATOM      3  C   UNL     1      10.201  -6.156   5.540  0.00  0.00    +0.000 A 
ATOM      4  C   UNL     1      10.404  -4.774   5.613  0.00  0.00    +0.000 A 
ATOM      5  C   UNL     1      11.506  -4.215   4.947  0.00  0.00    +0.000 A 
ATOM      6  C   UNL     1      12.403  -5.022   4.250  0.00  0.00    +0.000 A 
ENDROOT
BRANCH   1   7
ATOM      7  C   UNL     1      13.242  -7.281   3.528  0.00  0.00    +0.000 C 
BRANCH   7  10
ATOM      8  O   UNL     1      14.864  -8.615   1.744  0.00  0.00    +0.000 OA
ATOM      9  C   UNL     1      13.774  -8.216   1.347  0.00  0.00    +0.000 C 
ATOM     10  N   UNL     1      12.938  -7.469   2.137  0.00  0.00    +0.000 N 
ATOM     11  H   UNL     1      11.976  -7.318   1.849  0.00  0.00    +0.000 HD
BRANCH   9  12
ATOM     12  C   UNL     1      13.309  -8.504  -0.014  0.00  0.00    +0.000 A 
ATOM     13  C   UNL     1      14.235  -8.758  -1.023  0.00  0.00    +0.000 A 
ATOM     14  S   UNL     1      13.514  -9.117  -2.526  0.00  0.00    +0.000 S 
ATOM     15  C   UNL     1      11.948  -8.990  -1.872  0.00  0.00    +0.000 A 
ATOM     16  N   UNL     1      10.848  -9.239  -2.630  0.00  0.00    +0.000 NA
ATOM     17  C   UNL     1       9.730  -9.140  -1.995  0.00  0.00    +0.000 A 
ATOM     18  N   UNL     1       9.611  -8.795  -0.672  0.00  0.00    +0.000 N 
ATOM     19  C   UNL     1      10.688  -8.478   0.113  0.00  0.00    +0.000 A 
ATOM     20  O   UNL     1      10.538  -8.080   1.268  0.00  0.00    +0.000 OA
ATOM     21  C   UNL     1      11.973  -8.628  -0.540  0.00  0.00    +0.000 A 
ATOM     22  H   UNL     1       8.703  -8.704  -0.240  0.00  0.00    +0.000 HD
ENDBRANCH   9  12
ENDBRANCH   7  10
ENDBRANCH   1   7
BRANCH   4  23
ATOM     23  C   UNL     1       9.434  -3.868   6.330  0.00  0.00    +0.000 C 
BRANCH  23  24
ATOM     24  N   UNL     1       9.317  -4.159   7.764  0.00  0.00    +0.000 NA
ATOM     25  H   UNL     1      10.238  -3.996   8.181  0.00  0.00    +0.000 HD
BRANCH  24  26
ATOM     26  CA  UNL     1       8.370  -3.211   8.410  0.00  0.00    +0.000 C 
BRANCH  26  27
ATOM     27  C   UNL     1       8.338  -3.553   9.908  0.00  0.00    +0.000 C 
ATOM     28  N   UNL     1       9.139  -2.982  10.773  0.00  0.00    +0.000 NA
ATOM     29  C   UNL     1       8.880  -3.705  12.054  0.00  0.00    +0.000 C 
ATOM     30  C   UNL     1       7.752  -4.708  11.796  0.00  0.00    +0.000 C 
ATOM     31  N   UNL     1       7.498  -4.531  10.386  0.00  0.00    +0.000 N 
ATOM     32  H   UNL     1       7.452  -5.366   9.810  0.00  0.00    +0.000 HD
ENDBRANCH  26  27
BRANCH  26  33
ATOM     33  C   UNL     1       8.691  -1.712   8.215  0.00  0.00    +0.000 C 
BRANCH  33  34
ATOM     34  O   UNL     1      10.044  -1.413   8.566  0.00  0.00    +0.000 OA
ATOM     35  H   UNL     1      10.148  -1.743   9.485  0.00  0.00    +0.000 HD
ENDBRANCH  33  34
ENDBRANCH  26  33
ENDBRANCH  24  26
ENDBRANCH  23  24
ENDBRANCH   4  23
TORSDOF 9
