REMARK  Name = 
REMARK  4 active torsions:
REMARK  status: ('A' for Active; 'I' for Inactive)
REMARK    1  A    between atoms: N_1  and  C_2
REMARK    2  A    between atoms: C_2  and  C_3
REMARK    3  A    between atoms: C_6  and  C_7
REMARK    4  A    between atoms: C_7  and  C_8
REMARK                            x       y       z     vdW  Elec       q    Type
REMARK                         _______ _______ _______ _____ _____    ______ ____
ROOT
ATOM      1  C   UNL     1       3.505   3.886   4.222  0.00  0.00    +0.000 C 
ENDROOT
BRANCH   1   2
ATOM      2  C   UNL     1       2.168   3.764   4.873  0.00  0.00    +0.000 A 
ATOM      3  N   UNL     1       1.969   2.876   5.860  0.00  0.00    +0.000 NA
ATOM      4  O   UNL     1       0.595   2.697   5.926  0.00  0.00    +0.000 OA
ATOM      5  C   UNL     1      -0.009   3.522   5.031  0.00  0.00    +0.000 A 
ATOM      6  C   UNL     1      -1.362   3.533   4.709  0.00  0.00    +0.000 A 
ATOM      7  C   UNL     1      -1.741   4.473   3.752  0.00  0.00    +0.000 A 
ATOM      8  F   UNL     1      -3.016   4.500   3.342  0.00  0.00    +0.000 F 
ATOM      9  C   UNL     1      -0.837   5.377   3.194  0.00  0.00    +0.000 A 
ATOM     10  C   UNL     1       0.523   5.317   3.522  0.00  0.00    +0.000 A 
ATOM     11  C   UNL     1       0.938   4.335   4.438  0.00  0.00    +0.000 A 
ENDBRANCH   1   2
BRANCH   1  15
ATOM     12  C   UNL     1       2.828   1.091   0.967  0.00  0.00    +0.000 A 
ATOM     13  C   UNL     1       2.793   2.473   0.735  0.00  0.00    +0.000 A 
ATOM     14  C   UNL     1       3.077   3.380   1.763  0.00  0.00    +0.000 A 
ATOM     15  C   UNL     1       3.401   2.921   3.048  0.00  0.00    +0.000 A 
ATOM     16  C   UNL     1       3.481   1.536   3.263  0.00  0.00    +0.000 A 
ATOM     17  C   UNL     1       3.192   0.633   2.238  0.00  0.00    +0.000 A 
BRANCH  12  18
ATOM     18  C   UNL     1       2.433   0.121  -0.114  0.00  0.00    +0.000 C 
BRANCH  18  19
ATOM     19  N   UNL     1       3.281   0.236  -1.291  0.00  0.00    +0.000 NA
ATOM     20  H   UNL     1       3.052  -0.512  -1.940  0.00  0.00    +0.000 HD
ATOM     21  H   UNL     1       4.247   0.088  -1.007  0.00  0.00    +0.000 HD
ENDBRANCH  18  19
ENDBRANCH  12  18
ENDBRANCH   1  15
TORSDOF 4
