REMARK  Name = 
REMARK  4 active torsions:
REMARK  status: ('A' for Active; 'I' for Inactive)
REMARK    1  A    between atoms: C_2  and  C_4
REMARK    2  A    between atoms: N_8  and  C_9
REMARK    3  A    between atoms: C_9  and  C_10
REMARK    4  A    between atoms: C_14  and  N_15
REMARK                            x       y       z     vdW  Elec       q    Type
REMARK                         _______ _______ _______ _____ _____    ______ ____
ROOT
ATOM      1  C   UNL     1       6.356  -1.486  -6.752  0.00  0.00    +0.000 A 
ATOM      2  C   UNL     1       5.696  -2.705  -6.846  0.00  0.00    +0.000 A 
ATOM      3  C   UNL     1       5.513  -3.470  -5.696  0.00  0.00    +0.000 A 
ATOM      4  C   UNL     1       5.994  -3.012  -4.473  0.00  0.00    +0.000 A 
ATOM      5  N   UNL     1       5.814  -3.680  -3.294  0.00  0.00    +0.000 N 
ATOM      6  N   UNL     1       6.669  -1.849  -4.379  0.00  0.00    +0.000 NA
ATOM      7  C   UNL     1       6.840  -1.113  -5.510  0.00  0.00    +0.000 A 
ATOM      8  H   UNL     1       6.306  -3.262  -2.513  0.00  0.00    +0.000 HD
ENDROOT
BRANCH   1  10
ATOM      9  N   UNL     1       5.654  -0.689  -8.932  0.00  0.00    +0.000 N 
ATOM     10  C   UNL     1       6.565  -0.605  -7.915  0.00  0.00    +0.000 C 
ATOM     11  O   UNL     1       7.493   0.194  -7.955  0.00  0.00    +0.000 OA
ATOM     12  H   UNL     1       5.748  -0.010  -9.678  0.00  0.00    +0.000 HD
ATOM     13  H   UNL     1       4.760  -1.147  -8.829  0.00  0.00    +0.000 HD
ENDBRANCH   1  10
BRANCH   5  14
ATOM     14  C   UNL     1       5.238  -4.996  -3.136  0.00  0.00    +0.000 C 
BRANCH  14  15
ATOM     15  C   UNL     1       6.194  -6.130  -3.392  0.00  0.00    +0.000 A 
ATOM     16  C   UNL     1       5.721  -7.435  -3.332  0.00  0.00    +0.000 A 
ATOM     17  N   UNL     1       6.474  -8.526  -3.569  0.00  0.00    +0.000 NA
ATOM     18  C   UNL     1       7.777  -8.301  -3.878  0.00  0.00    +0.000 A 
ATOM     19  C   UNL     1       8.395  -7.051  -3.966  0.00  0.00    +0.000 A 
ATOM     20  C   UNL     1       7.553  -5.964  -3.704  0.00  0.00    +0.000 A 
BRANCH  19  21
ATOM     21  N   UNL     1       9.722  -6.887  -4.293  0.00  0.00    +0.000 N 
ATOM     22  C   UNL     1      10.540  -5.757  -3.824  0.00  0.00    +0.000 C 
ATOM     23  C   UNL     1      11.158  -5.023  -5.023  0.00  0.00    +0.000 C 
ATOM     24  O   UNL     1      11.901  -5.924  -5.864  0.00  0.00    +0.000 OA
ATOM     25  C   UNL     1      11.042  -6.964  -6.362  0.00  0.00    +0.000 C 
ATOM     26  C   UNL     1      10.422  -7.789  -5.219  0.00  0.00    +0.000 C 
ENDBRANCH  19  21
ENDBRANCH  14  15
ENDBRANCH   5  14
TORSDOF 4
