REMARK  Name = 
REMARK  6 active torsions:
REMARK  status: ('A' for Active; 'I' for Inactive)
REMARK    1  A    between atoms: C_2  and  C_25
REMARK    2  A    between atoms: N_3  and  C_4
REMARK    3  A    between atoms: C_4  and  C_5
REMARK    4  A    between atoms: C_8  and  C_9
REMARK    5  A    between atoms: C_9  and  N_10
REMARK    6  A    between atoms: C_11  and  C_13
REMARK                            x       y       z     vdW  Elec       q    Type
REMARK                         _______ _______ _______ _____ _____    ______ ____
ROOT
ATOM      1  C   UNL     1       3.178   2.421   2.716  0.00  0.00    +0.000 A 
ATOM      2  C   UNL     1       3.079   3.818   2.650  0.00  0.00    +0.000 A 
ATOM      3  C   UNL     1       3.875   4.631   3.466  0.00  0.00    +0.000 A 
ATOM      4  C   UNL     1       4.804   4.065   4.349  0.00  0.00    +0.000 A 
ATOM      5  C   UNL     1       4.914   2.670   4.404  0.00  0.00    +0.000 A 
ATOM      6  C   UNL     1       4.118   1.857   3.588  0.00  0.00    +0.000 A 
ENDROOT
BRANCH   1   7
ATOM      7  C   UNL     1       2.265   1.547   1.896  0.00  0.00    +0.000 C 
BRANCH   7  10
ATOM      8  O   UNL     1       1.015  -0.064   0.033  0.00  0.00    +0.000 OA
ATOM      9  C   UNL     1       2.065   0.482  -0.291  0.00  0.00    +0.000 C 
ATOM     10  N   UNL     1       2.772   1.290   0.571  0.00  0.00    +0.000 N 
ATOM     11  H   UNL     1       3.545   1.841   0.227  0.00  0.00    +0.000 HD
BRANCH   9  12
ATOM     12  C   UNL     1       2.628   0.330  -1.606  0.00  0.00    +0.000 A 
ATOM     13  C   UNL     1       3.825   0.711  -2.181  0.00  0.00    +0.000 A 
ATOM     14  C   UNL     1       3.766   0.240  -3.506  0.00  0.00    +0.000 A 
ATOM     15  N   UNL     1       2.621  -0.391  -3.769  0.00  0.00    +0.000 NA
ATOM     16  N   UNL     1       1.956  -0.333  -2.602  0.00  0.00    +0.000 N 
ATOM     17  H   UNL     1       1.036  -0.762  -2.537  0.00  0.00    +0.000 HD
ENDBRANCH   9  12
ENDBRANCH   7  10
ENDBRANCH   1   7
BRANCH   4  18
ATOM     18  C   UNL     1       5.643   4.933   5.253  0.00  0.00    +0.000 C 
BRANCH  18  19
ATOM     19  N   UNL     1       4.993   5.168   6.520  0.00  0.00    +0.000 N 
ATOM     20  C   UNL     1       5.550   6.005   7.456  0.00  0.00    +0.000 C 
ATOM     21  O   UNL     1       6.594   6.615   7.240  0.00  0.00    +0.000 OA
ATOM     22  H   UNL     1       4.272   4.511   6.803  0.00  0.00    +0.000 HD
BRANCH  20  23
ATOM     23  C   UNL     1       4.803   6.190   8.708  0.00  0.00    +0.000 A 
ATOM     24  C   UNL     1       5.013   7.333   9.470  0.00  0.00    +0.000 A 
ATOM     25  S   UNL     1       4.030   7.422  10.860  0.00  0.00    +0.000 S 
ATOM     26  C   UNL     1       3.327   5.909  10.526  0.00  0.00    +0.000 A 
ATOM     27  N   UNL     1       2.397   5.371  11.360  0.00  0.00    +0.000 NA
ATOM     28  C   UNL     1       1.977   4.202  11.007  0.00  0.00    +0.000 A 
ATOM     29  N   UNL     1       2.399   3.526   9.892  0.00  0.00    +0.000 N 
ATOM     30  C   UNL     1       3.309   4.045   9.002  0.00  0.00    +0.000 A 
ATOM     31  O   UNL     1       3.631   3.433   7.989  0.00  0.00    +0.000 OA
ATOM     32  C   UNL     1       3.824   5.352   9.360  0.00  0.00    +0.000 A 
ATOM     33  H   UNL     1       2.025   2.615   9.668  0.00  0.00    +0.000 HD
ENDBRANCH  20  23
ENDBRANCH  18  19
ENDBRANCH   4  18
TORSDOF 6
