REMARK  Name = 
REMARK  5 active torsions:
REMARK  status: ('A' for Active; 'I' for Inactive)
REMARK    1  A    between atoms: N_1  and  C_2
REMARK    2  A    between atoms: C_2  and  C_3
REMARK    3  A    between atoms: C_6  and  O_7
REMARK    4  A    between atoms: O_7  and  C_8
REMARK    5  A    between atoms: C_8  and  C_9
REMARK                            x       y       z     vdW  Elec       q    Type
REMARK                         _______ _______ _______ _____ _____    ______ ____
ROOT
ATOM      1  C   UNL     1       2.922  -0.914  -1.183  0.00  0.00    +0.000 A 
ATOM      2  C   UNL     1       3.468  -0.383  -2.350  0.00  0.00    +0.000 A 
ATOM      3  C   UNL     1       3.763  -1.243  -3.408  0.00  0.00    +0.000 A 
ATOM      4  C   UNL     1       3.483  -2.599  -3.288  0.00  0.00    +0.000 A 
ATOM      5  C   UNL     1       2.988  -3.047  -2.070  0.00  0.00    +0.000 A 
ATOM      6  N   UNL     1       2.690  -2.242  -1.024  0.00  0.00    +0.000 NA
ENDROOT
BRANCH   1   7
ATOM      7  C   UNL     1       2.457  -0.012  -0.063  0.00  0.00    +0.000 C 
BRANCH   7   8
ATOM      8  N   UNL     1       1.058   0.385  -0.240  0.00  0.00    +0.000 NA
ATOM      9  H   UNL     1       0.718   0.785   0.631  0.00  0.00    +0.000 HD
ATOM     10  H   UNL     1       0.517  -0.473  -0.380  0.00  0.00    +0.000 HD
ENDBRANCH   7   8
ENDBRANCH   1   7
BRANCH   4  11
ATOM     11  O   UNL     1       3.707  -3.371  -4.394  0.00  0.00    +0.000 OA
BRANCH  11  12
ATOM     12  C   UNL     1       2.927  -4.571  -4.446  0.00  0.00    +0.000 C 
BRANCH  12  13
ATOM     13  C   UNL     1       2.795  -5.066  -5.864  0.00  0.00    +0.000 A 
ATOM     14  C   UNL     1       3.840  -4.959  -6.785  0.00  0.00    +0.000 A 
ATOM     15  C   UNL     1       3.652  -5.461  -8.063  0.00  0.00    +0.000 A 
ATOM     16  N   UNL     1       2.517  -6.065  -8.475  0.00  0.00    +0.000 NA
ATOM     17  C   UNL     1       1.524  -6.172  -7.569  0.00  0.00    +0.000 A 
ATOM     18  C   UNL     1       1.616  -5.700  -6.269  0.00  0.00    +0.000 A 
ENDBRANCH  12  13
ENDBRANCH  11  12
ENDBRANCH   4  11
TORSDOF 5
