REMARK  Name = 
REMARK  4 active torsions:
REMARK  status: ('A' for Active; 'I' for Inactive)
REMARK    1  A    between atoms: C_2  and  C_4
REMARK    2  A    between atoms: N_8  and  C_9
REMARK    3  A    between atoms: C_9  and  C_10
REMARK    4  A    between atoms: C_10  and  C_11
REMARK                            x       y       z     vdW  Elec       q    Type
REMARK                         _______ _______ _______ _____ _____    ______ ____
ROOT
ATOM      1  C   UNL     1       3.049   0.192  -1.336  0.00  0.00    +0.000 A 
ATOM      2  C   UNL     1       4.306  -0.394  -1.221  0.00  0.00    +0.000 A 
ATOM      3  C   UNL     1       5.029  -0.678  -2.382  0.00  0.00    +0.000 A 
ATOM      4  C   UNL     1       4.513  -0.324  -3.630  0.00  0.00    +0.000 A 
ATOM      5  N   UNL     1       5.262  -0.645  -4.776  0.00  0.00    +0.000 N 
ATOM      6  N   UNL     1       3.291   0.231  -3.747  0.00  0.00    +0.000 NA
ATOM      7  C   UNL     1       2.578   0.457  -2.612  0.00  0.00    +0.000 A 
ATOM      8  H   UNL     1       6.252  -0.625  -4.557  0.00  0.00    +0.000 HD
ENDROOT
BRANCH   1  10
ATOM      9  N   UNL     1       2.829   0.801   1.003  0.00  0.00    +0.000 N 
ATOM     10  C   UNL     1       2.198   0.513  -0.173  0.00  0.00    +0.000 C 
ATOM     11  O   UNL     1       0.977   0.560  -0.266  0.00  0.00    +0.000 OA
ATOM     12  H   UNL     1       2.239   1.127   1.760  0.00  0.00    +0.000 HD
ATOM     13  H   UNL     1       3.814   1.024   1.054  0.00  0.00    +0.000 HD
ENDBRANCH   1  10
BRANCH   5  14
ATOM     14  C   UNL     1       4.953   0.210  -5.929  0.00  0.00    +0.000 C 
BRANCH  14  15
ATOM     15  C   UNL     1       5.872  -0.164  -7.100  0.00  0.00    +0.000 C 
BRANCH  15  16
ATOM     16  C   UNL     1       5.646   0.699  -8.311  0.00  0.00    +0.000 A 
ATOM     17  C   UNL     1       4.702   0.353  -9.278  0.00  0.00    +0.000 A 
ATOM     18  C   UNL     1       4.513   1.178 -10.384  0.00  0.00    +0.000 A 
ATOM     19  C   UNL     1       5.274   2.330 -10.481  0.00  0.00    +0.000 A 
ATOM     20  N   UNL     1       6.191   2.703  -9.563  0.00  0.00    +0.000 NA
ATOM     21  C   UNL     1       6.354   1.882  -8.501  0.00  0.00    +0.000 A 
ENDBRANCH  15  16
ENDBRANCH  14  15
ENDBRANCH   5  14
TORSDOF 4
