REMARK  Name = 
REMARK  9 active torsions:
REMARK  status: ('A' for Active; 'I' for Inactive)
REMARK    1  A    between atoms: C_1  and  O_2
REMARK    2  A    between atoms: O_2  and  C_3
REMARK    3  A    between atoms: N_10  and  C_11
REMARK    4  A    between atoms: C_11  and  C_12
REMARK    5  A    between atoms: C_15  and  C_16
REMARK    6  A    between atoms: C_16  and  C_17
REMARK    7  A    between atoms: C_17  and  N_18
REMARK    8  A    between atoms: N_18  and  C_19
REMARK    9  A    between atoms: N_18  and  C_20
REMARK                            x       y       z     vdW  Elec       q    Type
REMARK                         _______ _______ _______ _____ _____    ______ ____
ROOT
ATOM      1  C   UNL     1       5.396  -6.109  -0.551  0.00  0.00    +0.000 C 
ENDROOT
BRANCH   1   9
ATOM      2  C   UNL     1       7.941 -10.452   0.988  0.00  0.00    +0.000 A 
ATOM      3  C   UNL     1       6.599 -10.142   1.202  0.00  0.00    +0.000 A 
ATOM      4  C   UNL     1       6.028  -8.983   0.655  0.00  0.00    +0.000 A 
ATOM      5  C   UNL     1       6.840  -8.140  -0.121  0.00  0.00    +0.000 A 
ATOM      6  C   UNL     1       8.189  -8.435  -0.348  0.00  0.00    +0.000 A 
ATOM      7  C   UNL     1       8.722  -7.395  -1.156  0.00  0.00    +0.000 A 
ATOM      8  C   UNL     1       7.716  -6.488  -1.388  0.00  0.00    +0.000 A 
ATOM      9  N   UNL     1       6.582  -6.933  -0.748  0.00  0.00    +0.000 N 
ATOM     10  C   UNL     1       8.742  -9.596   0.226  0.00  0.00    +0.000 A 
BRANCH   2  12
ATOM     11  C   UNL     1       7.787 -12.680   1.769  0.00  0.00    +0.000 C 
ATOM     12  O   UNL     1       8.593 -11.536   1.511  0.00  0.00    +0.000 OA
ENDBRANCH   2  12
ENDBRANCH   1   9
BRANCH   1  13
ATOM     13  C   UNL     1       4.362  -6.219  -1.636  0.00  0.00    +0.000 A 
ATOM     14  C   UNL     1       4.417  -5.444  -2.797  0.00  0.00    +0.000 A 
ATOM     15  C   UNL     1       3.321  -5.412  -3.664  0.00  0.00    +0.000 A 
ATOM     16  C   UNL     1       2.196  -6.165  -3.350  0.00  0.00    +0.000 A 
ATOM     17  N   UNL     1       2.154  -6.985  -2.274  0.00  0.00    +0.000 NA
ATOM     18  C   UNL     1       3.231  -7.004  -1.455  0.00  0.00    +0.000 A 
BRANCH  16  19
ATOM     19  C   UNL     1       0.911  -6.005  -4.127  0.00  0.00    +0.000 C 
BRANCH  19  20
ATOM     20  C   UNL     1       0.008  -4.967  -3.432  0.00  0.00    +0.000 C 
BRANCH  20  21
ATOM     21  N   UNL     1      -1.287  -4.711  -4.101  0.00  0.00    +0.000 NA
ATOM     22  C   UNL     1      -2.128  -5.910  -4.134  0.00  0.00    +0.000 C 
ATOM     23  C   UNL     1      -2.001  -3.642  -3.390  0.00  0.00    +0.000 C 
ENDBRANCH  20  21
ENDBRANCH  19  20
ENDBRANCH  16  19
ENDBRANCH   1  13
TORSDOF 6
