REMARK  Name = 
REMARK  5 active torsions:
REMARK  status: ('A' for Active; 'I' for Inactive)
REMARK    1  A    between atoms: C_2  and  C_4
REMARK    2  A    between atoms: N_8  and  C_9
REMARK    3  A    between atoms: C_9  and  C_10
REMARK    4  A    between atoms: C_10  and  C_11
REMARK    5  A    between atoms: C_15  and  C_16
REMARK                            x       y       z     vdW  Elec       q    Type
REMARK                         _______ _______ _______ _____ _____    ______ ____
ROOT
ATOM      1  C   UNL     1       4.967  -3.590  -4.861  0.00  0.00    +0.000 C 
ENDROOT
BRANCH   1   6
ATOM      2  C   UNL     1       2.995  -1.059  -0.890  0.00  0.00    +0.000 A 
ATOM      3  C   UNL     1       2.660  -1.071  -2.237  0.00  0.00    +0.000 A 
ATOM      4  C   UNL     1       3.410  -1.853  -3.113  0.00  0.00    +0.000 A 
ATOM      5  C   UNL     1       4.489  -2.599  -2.641  0.00  0.00    +0.000 A 
ATOM      6  N   UNL     1       5.240  -3.415  -3.452  0.00  0.00    +0.000 N 
ATOM      7  N   UNL     1       4.843  -2.564  -1.341  0.00  0.00    +0.000 NA
ATOM      8  C   UNL     1       4.100  -1.798  -0.496  0.00  0.00    +0.000 A 
ATOM      9  H   UNL     1       6.032  -3.850  -2.995  0.00  0.00    +0.000 HD
BRANCH   2  11
ATOM     10  N   UNL     1       0.899  -0.086  -0.156  0.00  0.00    +0.000 N 
ATOM     11  C   UNL     1       2.226  -0.294   0.111  0.00  0.00    +0.000 C 
ATOM     12  O   UNL     1       2.738   0.104   1.148  0.00  0.00    +0.000 OA
ATOM     13  H   UNL     1       0.353   0.344   0.581  0.00  0.00    +0.000 HD
ATOM     14  H   UNL     1       0.399  -0.605  -0.863  0.00  0.00    +0.000 HD
ENDBRANCH   2  11
ENDBRANCH   1   6
BRANCH   1  15
ATOM     15  C   UNL     1       5.902  -4.600  -5.530  0.00  0.00    +0.000 C 
BRANCH  15  16
ATOM     16  C   UNL     1       5.550  -4.720  -6.998  0.00  0.00    +0.000 A 
ATOM     17  C   UNL     1       4.625  -5.674  -7.431  0.00  0.00    +0.000 A 
ATOM     18  C   UNL     1       4.229  -5.709  -8.766  0.00  0.00    +0.000 A 
ATOM     19  C   UNL     1       4.737  -4.776  -9.675  0.00  0.00    +0.000 A 
ATOM     20  C   UNL     1       5.653  -3.788  -9.274  0.00  0.00    +0.000 A 
ATOM     21  C   UNL     1       6.063  -3.796  -7.925  0.00  0.00    +0.000 A 
BRANCH  20  22
ATOM     22  C   UNL     1       6.128  -2.750 -10.213  0.00  0.00    +0.000 A 
ATOM     23  C   UNL     1       5.298  -2.210 -11.206  0.00  0.00    +0.000 A 
ATOM     24  N   UNL     1       5.650  -1.235 -12.083  0.00  0.00    +0.000 NA
ATOM     25  C   UNL     1       6.908  -0.752 -11.966  0.00  0.00    +0.000 A 
ATOM     26  C   UNL     1       7.809  -1.209 -11.023  0.00  0.00    +0.000 A 
ATOM     27  F   UNL     1       9.039  -0.686 -10.948  0.00  0.00    +0.000 F 
ATOM     28  C   UNL     1       7.423  -2.215 -10.145  0.00  0.00    +0.000 A 
ENDBRANCH  20  22
ENDBRANCH  15  16
ENDBRANCH   1  15
TORSDOF 5
