REMARK  Name = 
REMARK  5 active torsions:
REMARK  status: ('A' for Active; 'I' for Inactive)
REMARK    1  A    between atoms: C_2  and  C_4
REMARK    2  A    between atoms: C_7  and  N_8
REMARK    3  A    between atoms: N_8  and  C_9
REMARK    4  A    between atoms: C_9  and  C_10
REMARK    5  A    between atoms: C_12  and  C_13
REMARK                            x       y       z     vdW  Elec       q    Type
REMARK                         _______ _______ _______ _____ _____    ______ ____
ROOT
ATOM      1  C   UNL     1       5.318  -5.196   2.620  0.00  0.00    +0.000 C 
ATOM      2  C   UNL     1       5.372  -6.188   1.476  0.00  0.00    +0.000 C 
ATOM      3  C   UNL     1       4.918  -6.641   2.830  0.00  0.00    +0.000 C 
ENDROOT
BRANCH   1   4
ATOM      4  C   UNL     1       6.597  -4.631   3.263  0.00  0.00    +0.000 A 
ATOM      5  C   UNL     1       7.767  -4.479   2.513  0.00  0.00    +0.000 A 
ATOM      6  C   UNL     1       8.679  -3.454   2.809  0.00  0.00    +0.000 A 
ATOM      7  C   UNL     1       8.417  -2.692   3.953  0.00  0.00    +0.000 A 
ATOM      8  C   UNL     1       7.325  -3.004   4.743  0.00  0.00    +0.000 A 
ATOM      9  N   UNL     1       6.424  -3.954   4.430  0.00  0.00    +0.000 NA
BRANCH   6  10
ATOM     10  C   UNL     1       9.796  -3.123   1.892  0.00  0.00    +0.000 A 
ATOM     11  C   UNL     1       9.736  -3.377   0.511  0.00  0.00    +0.000 A 
ATOM     12  C   UNL     1      10.791  -3.023  -0.330  0.00  0.00    +0.000 A 
ATOM     13  C   UNL     1      11.895  -2.408   0.227  0.00  0.00    +0.000 A 
ATOM     14  N   UNL     1      12.008  -2.137   1.541  0.00  0.00    +0.000 NA
ATOM     15  C   UNL     1      10.967  -2.500   2.330  0.00  0.00    +0.000 A 
ENDBRANCH   6  10
ENDBRANCH   1   4
BRANCH   1  16
ATOM     16  N   UNL     1       4.193  -4.208   2.689  0.00  0.00    +0.000 N 
ATOM     17  H   UNL     1       4.023  -3.996   3.679  0.00  0.00    +0.000 HD
BRANCH  16  21
ATOM     18  C   UNL     1       4.398  -0.506   0.757  0.00  0.00    +0.000 A 
ATOM     19  C   UNL     1       3.449  -0.704   1.750  0.00  0.00    +0.000 A 
ATOM     20  C   UNL     1       3.386  -1.950   2.371  0.00  0.00    +0.000 A 
ATOM     21  C   UNL     1       4.278  -2.963   2.013  0.00  0.00    +0.000 A 
ATOM     22  C   UNL     1       5.142  -2.687   0.954  0.00  0.00    +0.000 A 
ATOM     23  N   UNL     1       5.245  -1.487   0.324  0.00  0.00    +0.000 NA
BRANCH  18  25
ATOM     24  N   UNL     1       5.509   0.927  -0.836  0.00  0.00    +0.000 N 
ATOM     25  C   UNL     1       4.552   0.835   0.134  0.00  0.00    +0.000 C 
ATOM     26  O   UNL     1       3.884   1.800   0.477  0.00  0.00    +0.000 OA
ATOM     27  H   UNL     1       5.706   1.823  -1.255  0.00  0.00    +0.000 HD
ATOM     28  H   UNL     1       6.066   0.113  -1.062  0.00  0.00    +0.000 HD
ENDBRANCH  18  25
ENDBRANCH  16  21
ENDBRANCH   1  16
TORSDOF 5
