REMARK  Name = 
REMARK  5 active torsions:
REMARK  status: ('A' for Active; 'I' for Inactive)
REMARK    1  A    between atoms: C_2  and  C_3
REMARK    2  A    between atoms: C_6  and  N_7
REMARK    3  A    between atoms: N_7  and  C_8
REMARK    4  A    between atoms: C_8  and  C_9
REMARK    5  A    between atoms: C_13  and  C_14
REMARK                            x       y       z     vdW  Elec       q    Type
REMARK                         _______ _______ _______ _____ _____    ______ ____
ROOT
ATOM      1  C   UNL     1       8.666  -0.860  -0.704  0.00  0.00    +0.000 C 
ATOM      2  C   UNL     1       7.814  -1.191   0.507  0.00  0.00    +0.000 C 
ATOM      3  C   UNL     1       7.211  -0.400  -0.605  0.00  0.00    +0.000 C 
ENDROOT
BRANCH   1   4
ATOM      4  C   UNL     1       9.678   0.274  -0.605  0.00  0.00    +0.000 A 
ATOM      5  C   UNL     1       9.692   1.305  -1.558  0.00  0.00    +0.000 A 
ATOM      6  C   UNL     1      10.461   2.448  -1.368  0.00  0.00    +0.000 A 
ATOM      7  C   UNL     1      11.268   2.562  -0.236  0.00  0.00    +0.000 A 
ATOM      8  C   UNL     1      11.352   1.525   0.708  0.00  0.00    +0.000 A 
ATOM      9  C   UNL     1      10.547   0.391   0.494  0.00  0.00    +0.000 A 
BRANCH   8  10
ATOM     10  C   UNL     1      12.227   1.623   1.897  0.00  0.00    +0.000 A 
ATOM     11  C   UNL     1      12.429   2.848   2.562  0.00  0.00    +0.000 A 
ATOM     12  C   UNL     1      13.267   2.938   3.677  0.00  0.00    +0.000 A 
ATOM     13  C   UNL     1      13.900   1.799   4.152  0.00  0.00    +0.000 A 
ATOM     14  F   UNL     1      14.702   1.886   5.220  0.00  0.00    +0.000 F 
ATOM     15  C   UNL     1      13.715   0.573   3.532  0.00  0.00    +0.000 A 
ATOM     16  C   UNL     1      12.889   0.488   2.409  0.00  0.00    +0.000 A 
ENDBRANCH   8  10
ENDBRANCH   1   4
BRANCH   1  17
ATOM     17  N   UNL     1       8.939  -1.839  -1.748  0.00  0.00    +0.000 N 
ATOM     18  H   UNL     1       8.807  -1.583  -2.721  0.00  0.00    +0.000 HD
BRANCH  17  22
ATOM     19  C   UNL     1      11.077  -5.335  -1.708  0.00  0.00    +0.000 A 
ATOM     20  C   UNL     1      10.596  -4.759  -2.870  0.00  0.00    +0.000 A 
ATOM     21  N   UNL     1       9.913  -3.588  -2.875  0.00  0.00    +0.000 NA
ATOM     22  C   UNL     1       9.707  -2.986  -1.679  0.00  0.00    +0.000 A 
ATOM     23  C   UNL     1      10.203  -3.575  -0.516  0.00  0.00    +0.000 A 
ATOM     24  N   UNL     1      10.896  -4.751  -0.497  0.00  0.00    +0.000 NA
BRANCH  19  26
ATOM     25  N   UNL     1      12.314  -7.611  -1.851  0.00  0.00    +0.000 NA
ATOM     26  C   UNL     1      11.768  -6.590  -1.751  0.00  0.00    +0.000 C 
ENDBRANCH  19  26
ENDBRANCH  17  22
ENDBRANCH   1  17
TORSDOF 5
