REMARK  Name = 
REMARK  7 active torsions:
REMARK  status: ('A' for Active; 'I' for Inactive)
REMARK    1  A    between atoms: C_2  and  C_3
REMARK    2  A    between atoms: C_7  and  C_8
REMARK    3  A    between atoms: N_10  and  C_11
REMARK    4  A    between atoms: C_11  and  C_12
REMARK    5  A    between atoms: C_15  and  C_16
REMARK    6  A    between atoms: C_16  and  N_17
REMARK    7  A    between atoms: C_18  and  C_20
REMARK                            x       y       z     vdW  Elec       q    Type
REMARK                         _______ _______ _______ _____ _____    ______ ____
ROOT
ATOM      1  C   UNL     1       5.992   3.520   0.152  0.00  0.00    +0.000 A 
ATOM      2  C   UNL     1       6.919   4.568   0.204  0.00  0.00    +0.000 A 
ATOM      3  C   UNL     1       8.294   4.306   0.294  0.00  0.00    +0.000 A 
ATOM      4  C   UNL     1       8.774   2.988   0.310  0.00  0.00    +0.000 A 
ATOM      5  C   UNL     1       7.846   1.941   0.267  0.00  0.00    +0.000 A 
ATOM      6  C   UNL     1       6.478   2.212   0.179  0.00  0.00    +0.000 A 
ATOM      7  F   UNL     1       5.619   1.182   0.122  0.00  0.00    +0.000 F 
ENDROOT
BRANCH   1   8
ATOM      8  C   UNL     1       4.515   3.797   0.067  0.00  0.00    +0.000 C 
BRANCH   8  11
ATOM      9  C   UNL     1       3.946   5.061  -1.981  0.00  0.00    +0.000 C 
ATOM     10  O   UNL     1       4.263   6.142  -1.495  0.00  0.00    +0.000 OA
ATOM     11  N   UNL     1       4.043   3.867  -1.302  0.00  0.00    +0.000 N 
ATOM     12  H   UNL     1       3.698   3.011  -1.711  0.00  0.00    +0.000 HD
BRANCH   9  17
ATOM     13  C   UNL     1       2.199   6.179  -5.141  0.00  0.00    +0.000 A 
ATOM     14  C   UNL     1       2.327   5.053  -5.961  0.00  0.00    +0.000 A 
ATOM     15  C   UNL     1       2.976   3.911  -5.486  0.00  0.00    +0.000 A 
ATOM     16  C   UNL     1       3.501   3.888  -4.189  0.00  0.00    +0.000 A 
ATOM     17  C   UNL     1       3.383   5.014  -3.364  0.00  0.00    +0.000 A 
ATOM     18  C   UNL     1       2.737   6.161  -3.849  0.00  0.00    +0.000 A 
BRANCH  13  20
ATOM     19  N   UNL     1       0.935   8.269  -6.013  0.00  0.00    +0.000 NA
ATOM     20  C   UNL     1       1.509   7.341  -5.620  0.00  0.00    +0.000 C 
ENDBRANCH  13  20
ENDBRANCH   9  17
ENDBRANCH   8  11
ENDBRANCH   1   8
BRANCH   4  21
ATOM     21  C   UNL     1      10.255   2.703   0.404  0.00  0.00    +0.000 C 
BRANCH  21  22
ATOM     22  N   UNL     1      10.698   2.619   1.773  0.00  0.00    +0.000 N 
ATOM     23  C   UNL     1      12.019   2.427   2.102  0.00  0.00    +0.000 C 
ATOM     24  O   UNL     1      12.899   2.353   1.250  0.00  0.00    +0.000 OA
ATOM     25  H   UNL     1       9.987   2.422   2.469  0.00  0.00    +0.000 HD
BRANCH  23  26
ATOM     26  C   UNL     1      12.327   2.374   3.537  0.00  0.00    +0.000 A 
ATOM     27  C   UNL     1      13.590   2.728   3.992  0.00  0.00    +0.000 A 
ATOM     28  S   UNL     1      13.754   2.634   5.690  0.00  0.00    +0.000 S 
ATOM     29  C   UNL     1      12.157   2.075   5.869  0.00  0.00    +0.000 A 
ATOM     30  N   UNL     1      11.655   1.767   7.095  0.00  0.00    +0.000 NA
ATOM     31  C   UNL     1      10.435   1.341   7.081  0.00  0.00    +0.000 A 
ATOM     32  N   UNL     1       9.669   1.202   5.955  0.00  0.00    +0.000 N 
ATOM     33  C   UNL     1      10.126   1.524   4.698  0.00  0.00    +0.000 A 
ATOM     34  O   UNL     1       9.398   1.435   3.716  0.00  0.00    +0.000 OA
ATOM     35  C   UNL     1      11.499   1.990   4.655  0.00  0.00    +0.000 A 
ATOM     36  H   UNL     1       8.714   0.883   6.009  0.00  0.00    +0.000 HD
ENDBRANCH  23  26
ENDBRANCH  21  22
ENDBRANCH   4  21
TORSDOF 7
