REMARK  Name = 
REMARK  6 active torsions:
REMARK  status: ('A' for Active; 'I' for Inactive)
REMARK    1  A    between atoms: C_2  and  C_4
REMARK    2  A    between atoms: C_7  and  C_8
REMARK    3  A    between atoms: C_8  and  N_9
REMARK    4  A    between atoms: N_9  and  C_10
REMARK    5  A    between atoms: C_13  and  C_14
REMARK    6  A    between atoms: C_21  and  N_22
REMARK                            x       y       z     vdW  Elec       q    Type
REMARK                         _______ _______ _______ _____ _____    ______ ____
ROOT
ATOM      1  C   UNL     1       5.282   2.764  -4.338  0.00  0.00    +0.000 C 
ATOM      2  C   UNL     1       5.856   4.220  -4.220  0.00  0.00    +0.000 C 
ATOM      3  C   UNL     1       5.370   4.483  -5.652  0.00  0.00    +0.000 C 
ATOM      4  C   UNL     1       4.314   3.389  -5.430  0.00  0.00    +0.000 C 
ENDROOT
BRANCH   1   8
ATOM      5  C   UNL     1       3.205   1.129  -0.751  0.00  0.00    +0.000 A 
ATOM      6  C   UNL     1       4.476   1.686  -0.631  0.00  0.00    +0.000 A 
ATOM      7  C   UNL     1       5.139   2.165  -1.769  0.00  0.00    +0.000 A 
ATOM      8  C   UNL     1       4.572   2.106  -3.059  0.00  0.00    +0.000 A 
ATOM      9  C   UNL     1       3.314   1.468  -3.144  0.00  0.00    +0.000 A 
ATOM     10  C   UNL     1       2.636   0.992  -2.015  0.00  0.00    +0.000 A 
BRANCH   5  12
ATOM     11  N   UNL     1       2.690   1.317   1.626  0.00  0.00    +0.000 N 
ATOM     12  C   UNL     1       2.434   0.679   0.437  0.00  0.00    +0.000 C 
ATOM     13  O   UNL     1       1.559  -0.177   0.357  0.00  0.00    +0.000 OA
ATOM     14  H   UNL     1       2.051   1.115   2.389  0.00  0.00    +0.000 HD
ATOM     15  H   UNL     1       3.176   2.208   1.659  0.00  0.00    +0.000 HD
ENDBRANCH   5  12
ENDBRANCH   1   8
BRANCH   3  16
ATOM     16  N   UNL     1       4.743   5.796  -5.716  0.00  0.00    +0.000 NA
ATOM     17  H   UNL     1       4.034   5.980  -5.007  0.00  0.00    +0.000 HD
ATOM     18  H   UNL     1       4.308   6.006  -6.614  0.00  0.00    +0.000 HD
ENDBRANCH   3  16
BRANCH   1  19
ATOM     19  N   UNL     1       6.161   1.804  -4.970  0.00  0.00    +0.000 N 
ATOM     20  H   UNL     1       5.864   1.529  -5.903  0.00  0.00    +0.000 HD
BRANCH  19  21
ATOM     21  C   UNL     1       7.503   1.467  -4.724  0.00  0.00    +0.000 A 
ATOM     22  C   UNL     1       8.296   2.055  -3.744  0.00  0.00    +0.000 A 
ATOM     23  C   UNL     1       9.640   1.704  -3.607  0.00  0.00    +0.000 A 
ATOM     24  C   UNL     1      10.175   0.702  -4.414  0.00  0.00    +0.000 A 
ATOM     25  N   UNL     1       9.402   0.039  -5.317  0.00  0.00    +0.000 NA
ATOM     26  C   UNL     1       8.107   0.428  -5.437  0.00  0.00    +0.000 A 
BRANCH  24  27
ATOM     27  C   UNL     1      11.649   0.341  -4.291  0.00  0.00    +0.000 C 
ATOM     28  F   UNL     1      12.314   1.105  -3.370  0.00  0.00    +0.000 F 
ATOM     29  F   UNL     1      11.857  -0.950  -3.903  0.00  0.00    +0.000 F 
ATOM     30  F   UNL     1      12.341   0.503  -5.455  0.00  0.00    +0.000 F 
ENDBRANCH  24  27
ENDBRANCH  19  21
ENDBRANCH   1  19
TORSDOF 6
