REMARK  Name = 
REMARK  6 active torsions:
REMARK  status: ('A' for Active; 'I' for Inactive)
REMARK    1  A    between atoms: C_2  and  C_4
REMARK    2  A    between atoms: C_7  and  O_8
REMARK    3  A    between atoms: O_8  and  C_9
REMARK    4  A    between atoms: C_9  and  C_10
REMARK    5  A    between atoms: C_15  and  C_16
REMARK    6  A    between atoms: C_20  and  C_21
REMARK                            x       y       z     vdW  Elec       q    Type
REMARK                         _______ _______ _______ _____ _____    ______ ____
ROOT
ATOM      1  C   UNL     1       6.595  -4.897   4.688  0.00  0.00    +0.000 A 
ATOM      2  C   UNL     1       7.506  -4.068   5.347  0.00  0.00    +0.000 A 
ATOM      3  C   UNL     1       8.442  -4.627   6.207  0.00  0.00    +0.000 A 
ATOM      4  F   UNL     1       9.309  -3.828   6.844  0.00  0.00    +0.000 F 
ATOM      5  C   UNL     1       8.499  -6.001   6.422  0.00  0.00    +0.000 A 
ATOM      6  C   UNL     1       7.617  -6.868   5.758  0.00  0.00    +0.000 A 
ATOM      7  C   UNL     1       6.668  -6.286   4.893  0.00  0.00    +0.000 A 
ENDROOT
BRANCH   6   8
ATOM      8  C   UNL     1       7.703  -8.338   5.914  0.00  0.00    +0.000 A 
ATOM      9  C   UNL     1       6.560  -9.155   5.870  0.00  0.00    +0.000 A 
ATOM     10  C   UNL     1       6.655 -10.548   5.931  0.00  0.00    +0.000 A 
ATOM     11  C   UNL     1       7.902 -11.158   6.034  0.00  0.00    +0.000 A 
ATOM     12  C   UNL     1       9.063 -10.380   6.087  0.00  0.00    +0.000 A 
ATOM     13  C   UNL     1       8.948  -8.979   6.048  0.00  0.00    +0.000 A 
BRANCH  12  14
ATOM     14  C   UNL     1      10.432 -11.010   6.135  0.00  0.00    +0.000 C 
ATOM     15  F   UNL     1      10.409 -12.371   6.086  0.00  0.00    +0.000 F 
ATOM     16  F   UNL     1      11.217 -10.615   5.092  0.00  0.00    +0.000 F 
ATOM     17  F   UNL     1      11.121 -10.687   7.263  0.00  0.00    +0.000 F 
ENDBRANCH  12  14
ENDBRANCH   6   8
BRANCH   1  18
ATOM     18  C   UNL     1       5.530  -4.320   3.787  0.00  0.00    +0.000 C 
BRANCH  18  19
ATOM     19  O   UNL     1       5.998  -4.234   2.436  0.00  0.00    +0.000 OA
BRANCH  19  23
ATOM     20  C   UNL     1       3.118  -2.659  -0.068  0.00  0.00    +0.000 A 
ATOM     21  C   UNL     1       4.362  -3.018  -0.592  0.00  0.00    +0.000 A 
ATOM     22  C   UNL     1       5.336  -3.555   0.258  0.00  0.00    +0.000 A 
ATOM     23  C   UNL     1       5.024  -3.712   1.601  0.00  0.00    +0.000 A 
ATOM     24  N   UNL     1       3.828  -3.377   2.129  0.00  0.00    +0.000 NA
ATOM     25  C   UNL     1       2.907  -2.849   1.291  0.00  0.00    +0.000 A 
BRANCH  20  27
ATOM     26  N   UNL     1       1.961  -2.358  -2.187  0.00  0.00    +0.000 N 
ATOM     27  C   UNL     1       2.028  -2.053  -0.854  0.00  0.00    +0.000 C 
ATOM     28  O   UNL     1       1.184  -1.337  -0.332  0.00  0.00    +0.000 OA
ATOM     29  H   UNL     1       1.142  -2.023  -2.679  0.00  0.00    +0.000 HD
ATOM     30  H   UNL     1       2.466  -3.132  -2.591  0.00  0.00    +0.000 HD
ENDBRANCH  20  27
ENDBRANCH  19  23
ENDBRANCH  18  19
ENDBRANCH   1  18
TORSDOF 6
