REMARK  Name = 
REMARK  6 active torsions:
REMARK  status: ('A' for Active; 'I' for Inactive)
REMARK    1  A    between atoms: C_1  and  N_2
REMARK    2  A    between atoms: C_8  and  C_9
REMARK    3  A    between atoms: C_9  and  C_10
REMARK    4  A    between atoms: C_10  and  N_11
REMARK    5  A    between atoms: N_11  and  C_12
REMARK    6  A    between atoms: C_15  and  C_16
REMARK                            x       y       z     vdW  Elec       q    Type
REMARK                         _______ _______ _______ _____ _____    ______ ____
ROOT
ATOM      1  C   UNL     1      -4.727  -1.350   3.979  0.00  0.00    +0.000 C 
ENDROOT
BRANCH   1   9
ATOM      2  C   UNL     1       2.093  -1.111  -1.052  0.00  0.00    +0.000 C 
ATOM      3  N   UNL     1       0.947  -0.264  -0.727  0.00  0.00    +0.000 NA
ATOM      4  C   UNL     1      -0.248  -0.686  -1.508  0.00  0.00    +0.000 C 
ATOM      5  C   UNL     1      -1.545   0.067  -1.106  0.00  0.00    +0.000 C 
ATOM      6  N   UNL     1      -1.733  -0.132   0.333  0.00  0.00    +0.000 N 
ATOM      7  C   UNL     1      -3.005  -0.032   0.862  0.00  0.00    +0.000 A 
ATOM      8  C   UNL     1      -3.257  -0.648   2.092  0.00  0.00    +0.000 A 
ATOM      9  C   UNL     1      -4.534  -0.646   2.654  0.00  0.00    +0.000 A 
ATOM     10  C   UNL     1      -5.541  -0.005   1.935  0.00  0.00    +0.000 A 
ATOM     11  C   UNL     1      -5.224   0.579   0.719  0.00  0.00    +0.000 A 
ATOM     12  N   UNL     1      -3.991   0.568   0.169  0.00  0.00    +0.000 NA
ATOM     13  C   UNL     1      -0.625   0.418   1.122  0.00  0.00    +0.000 C 
ATOM     14  C   UNL     1       0.659  -0.341   0.726  0.00  0.00    +0.000 C 
ENDBRANCH   1   9
BRANCH   1  15
ATOM     15  C   UNL     1      -6.157  -1.303   4.512  0.00  0.00    +0.000 C 
BRANCH  15  16
ATOM     16  N   UNL     1      -6.283  -1.947   5.821  0.00  0.00    +0.000 N 
ATOM     17  H   UNL     1      -5.581  -1.623   6.484  0.00  0.00    +0.000 HD
BRANCH  16  18
ATOM     18  C   UNL     1      -7.573  -1.929   6.385  0.00  0.00    +0.000 A 
ATOM     19  C   UNL     1      -8.743  -1.955   5.616  0.00  0.00    +0.000 A 
ATOM     20  C   UNL     1      -9.996  -2.002   6.221  0.00  0.00    +0.000 A 
ATOM     21  C   UNL     1     -10.052  -2.060   7.603  0.00  0.00    +0.000 A 
ATOM     22  N   UNL     1      -8.952  -2.080   8.406  0.00  0.00    +0.000 NA
ATOM     23  C   UNL     1      -7.753  -2.032   7.770  0.00  0.00    +0.000 A 
BRANCH  21  24
ATOM     24  C   UNL     1     -11.386  -2.130   8.277  0.00  0.00    +0.000 C 
ATOM     25  N   UNL     1     -11.351  -2.210   9.640  0.00  0.00    +0.000 N 
ATOM     26  O   UNL     1     -12.445  -2.121   7.655  0.00  0.00    +0.000 OA
ATOM     27  H   UNL     1     -10.458  -2.240  10.114  0.00  0.00    +0.000 HD
ATOM     28  H   UNL     1     -12.214  -2.297  10.156  0.00  0.00    +0.000 HD
ENDBRANCH  21  24
ENDBRANCH  16  18
ENDBRANCH  15  16
ENDBRANCH   1  15
TORSDOF 5
