REMARK  Name = 
REMARK  4 active torsions:
REMARK  status: ('A' for Active; 'I' for Inactive)
REMARK    1  A    between atoms: C_2  and  C_4
REMARK    2  A    between atoms: N_8  and  C_9
REMARK    3  A    between atoms: C_9  and  C_10
REMARK    4  A    between atoms: C_15  and  C_16
REMARK                            x       y       z     vdW  Elec       q    Type
REMARK                         _______ _______ _______ _____ _____    ______ ____
ROOT
ATOM      1  C   UNL     1       5.142   1.875   5.521  0.00  0.00    +0.000 C 
ENDROOT
BRANCH   1   6
ATOM      2  C   UNL     1       0.637   2.245   7.954  0.00  0.00    +0.000 A 
ATOM      3  C   UNL     1       1.087   2.949   6.842  0.00  0.00    +0.000 A 
ATOM      4  C   UNL     1       2.283   2.569   6.231  0.00  0.00    +0.000 A 
ATOM      5  C   UNL     1       3.019   1.510   6.751  0.00  0.00    +0.000 A 
ATOM      6  N   UNL     1       4.162   1.016   6.159  0.00  0.00    +0.000 N 
ATOM      7  N   UNL     1       2.596   0.829   7.836  0.00  0.00    +0.000 NA
ATOM      8  C   UNL     1       1.427   1.209   8.419  0.00  0.00    +0.000 A 
ATOM      9  H   UNL     1       4.546   0.313   6.784  0.00  0.00    +0.000 HD
BRANCH   2  11
ATOM     10  N   UNL     1      -1.607   3.176   7.904  0.00  0.00    +0.000 N 
ATOM     11  C   UNL     1      -0.632   2.563   8.639  0.00  0.00    +0.000 C 
ATOM     12  O   UNL     1      -0.818   2.263   9.812  0.00  0.00    +0.000 OA
ATOM     13  H   UNL     1      -2.504   3.296   8.357  0.00  0.00    +0.000 HD
ATOM     14  H   UNL     1      -1.593   3.198   6.894  0.00  0.00    +0.000 HD
ENDBRANCH   2  11
ENDBRANCH   1   6
BRANCH   1  15
ATOM     15  C   UNL     1       6.095   2.492   6.518  0.00  0.00    +0.000 A 
ATOM     16  C   UNL     1       6.971   1.690   7.251  0.00  0.00    +0.000 A 
ATOM     17  C   UNL     1       7.842   2.268   8.171  0.00  0.00    +0.000 A 
ATOM     18  C   UNL     1       7.859   3.657   8.373  0.00  0.00    +0.000 A 
ATOM     19 CL   UNL     1       8.923   4.205   9.629  0.00  0.00    +0.000 Cl
ATOM     20  C   UNL     1       7.020   4.513   7.626  0.00  0.00    +0.000 A 
ATOM     21  C   UNL     1       6.142   3.887   6.703  0.00  0.00    +0.000 A 
BRANCH  20  22
ATOM     22  C   UNL     1       7.025   5.995   7.746  0.00  0.00    +0.000 A 
ATOM     23  C   UNL     1       5.878   6.775   7.570  0.00  0.00    +0.000 A 
ATOM     24  C   UNL     1       5.963   8.165   7.663  0.00  0.00    +0.000 A 
ATOM     25  C   UNL     1       7.184   8.753   7.956  0.00  0.00    +0.000 A 
ATOM     26  C   UNL     1       8.276   7.924   8.119  0.00  0.00    +0.000 A 
ATOM     27  N   UNL     1       8.223   6.579   7.992  0.00  0.00    +0.000 NA
ENDBRANCH  20  22
ENDBRANCH   1  15
TORSDOF 4
