REMARK  Name = 
REMARK  5 active torsions:
REMARK  status: ('A' for Active; 'I' for Inactive)
REMARK    1  A    between atoms: C_2  and  C_3
REMARK    2  A    between atoms: C_6  and  N_7
REMARK    3  A    between atoms: N_7  and  C_8
REMARK    4  A    between atoms: C_8  and  C_9
REMARK    5  A    between atoms: C_13  and  C_14
REMARK                            x       y       z     vdW  Elec       q    Type
REMARK                         _______ _______ _______ _____ _____    ______ ____
ROOT
ATOM      1  C   UNL     1       4.565  -1.124   0.113  0.00  0.00    +0.000 C 
ATOM      2  C   UNL     1       4.844  -2.262  -0.858  0.00  0.00    +0.000 C 
ATOM      3  C   UNL     1       4.308  -2.582   0.492  0.00  0.00    +0.000 C 
ENDROOT
BRANCH   1   4
ATOM      4  C   UNL     1       5.678  -0.510   0.959  0.00  0.00    +0.000 A 
ATOM      5  C   UNL     1       5.500  -0.286   2.336  0.00  0.00    +0.000 A 
ATOM      6  C   UNL     1       6.584  -0.022   3.172  0.00  0.00    +0.000 A 
ATOM      7  C   UNL     1       7.871   0.032   2.637  0.00  0.00    +0.000 A 
ATOM      8  C   UNL     1       8.086  -0.100   1.256  0.00  0.00    +0.000 A 
ATOM      9  C   UNL     1       6.966  -0.326   0.436  0.00  0.00    +0.000 A 
BRANCH   8  10
ATOM     10  C   UNL     1       9.443  -0.136   0.689  0.00  0.00    +0.000 A 
ATOM     11  C   UNL     1       9.749   0.407  -0.560  0.00  0.00    +0.000 A 
ATOM     12  C   UNL     1      11.023   0.218  -1.088  0.00  0.00    +0.000 A 
ATOM     13  C   UNL     1      11.959  -0.503  -0.359  0.00  0.00    +0.000 A 
ATOM     14  C   UNL     1      11.585  -0.995   0.878  0.00  0.00    +0.000 A 
ATOM     15  N   UNL     1      10.360  -0.822   1.416  0.00  0.00    +0.000 NA
ENDBRANCH   8  10
ENDBRANCH   1   4
BRANCH   1  16
ATOM     16  N   UNL     1       3.439  -0.226  -0.172  0.00  0.00    +0.000 N 
ATOM     17  H   UNL     1       2.540  -0.441   0.245  0.00  0.00    +0.000 HD
BRANCH  16  21
ATOM     18  C   UNL     1       3.193   2.431  -3.468  0.00  0.00    +0.000 A 
ATOM     19  C   UNL     1       4.240   1.509  -3.402  0.00  0.00    +0.000 A 
ATOM     20  C   UNL     1       4.333   0.627  -2.314  0.00  0.00    +0.000 A 
ATOM     21  C   UNL     1       3.363   0.609  -1.305  0.00  0.00    +0.000 A 
ATOM     22  C   UNL     1       2.327   1.553  -1.378  0.00  0.00    +0.000 A 
ATOM     23  C   UNL     1       2.242   2.453  -2.454  0.00  0.00    +0.000 A 
BRANCH  18  25
ATOM     24  N   UNL     1       3.039   4.085  -5.455  0.00  0.00    +0.000 NA
ATOM     25  C   UNL     1       3.106   3.342  -4.565  0.00  0.00    +0.000 C 
ENDBRANCH  18  25
ENDBRANCH  16  21
ENDBRANCH   1  16
TORSDOF 5
