REMARK  Name = 
REMARK  7 active torsions:
REMARK  status: ('A' for Active; 'I' for Inactive)
REMARK    1  A    between atoms: C_1  and  C_2
REMARK    2  A    between atoms: C_5  and  C_6
REMARK    3  A    between atoms: N_8  and  C_9
REMARK    4  A    between atoms: C_9  and  C_10
REMARK    5  A    between atoms: C_13  and  C_14
REMARK    6  A    between atoms: C_14  and  N_15
REMARK    7  A    between atoms: C_16  and  C_18
REMARK                            x       y       z     vdW  Elec       q    Type
REMARK                         _______ _______ _______ _____ _____    ______ ____
ROOT
ATOM      1  C   UNL     1      -6.235   1.476   0.079  0.00  0.00    +0.000 C 
ATOM      2  C   UNL     1      -7.187   2.230   1.023  0.00  0.00    +0.000 C 
ATOM      3  C   UNL     1      -8.548   1.549   1.144  0.00  0.00    +0.000 C 
ATOM      4  C   UNL     1      -8.422   0.087   1.596  0.00  0.00    +0.000 C 
ATOM      5  C   UNL     1      -7.482  -0.673   0.646  0.00  0.00    +0.000 C 
ATOM      6  C   UNL     1      -6.116   0.004   0.510  0.00  0.00    +0.000 C 
ENDROOT
BRANCH   1   7
ATOM      7  C   UNL     1      -4.850   2.149   0.042  0.00  0.00    +0.000 C 
BRANCH   7  10
ATOM      8  C   UNL     1      -4.761   3.860  -1.775  0.00  0.00    +0.000 C 
ATOM      9  O   UNL     1      -4.565   3.026  -2.656  0.00  0.00    +0.000 OA
ATOM     10  N   UNL     1      -4.903   3.513  -0.446  0.00  0.00    +0.000 N 
ATOM     11  H   UNL     1      -5.117   4.267   0.198  0.00  0.00    +0.000 HD
BRANCH   8  16
ATOM     12  C   UNL     1      -5.324   8.505  -0.519  0.00  0.00    +0.000 C 
ATOM     13  C   UNL     1      -5.114   7.409  -1.486  0.00  0.00    +0.000 A 
ATOM     14  C   UNL     1      -4.941   7.375  -2.852  0.00  0.00    +0.000 A 
ATOM     15  C   UNL     1      -4.778   6.010  -3.196  0.00  0.00    +0.000 A 
ATOM     16  C   UNL     1      -4.862   5.286  -2.024  0.00  0.00    +0.000 A 
ATOM     17  O   UNL     1      -5.072   6.146  -0.973  0.00  0.00    +0.000 OA
ENDBRANCH   8  16
ENDBRANCH   7  10
ENDBRANCH   1   7
BRANCH   4  18
ATOM     18  C   UNL     1      -9.793  -0.615   1.653  0.00  0.00    +0.000 C 
BRANCH  18  19
ATOM     19  N   UNL     1     -10.715   0.002   2.588  0.00  0.00    +0.000 N 
ATOM     20  C   UNL     1     -10.714  -0.300   3.927  0.00  0.00    +0.000 C 
ATOM     21  O   UNL     1      -9.920  -1.101   4.414  0.00  0.00    +0.000 OA
ATOM     22  H   UNL     1     -11.469   0.563   2.203  0.00  0.00    +0.000 HD
BRANCH  20  23
ATOM     23  C   UNL     1     -11.675   0.422   4.771  0.00  0.00    +0.000 A 
ATOM     24  C   UNL     1     -11.406   0.577   6.125  0.00  0.00    +0.000 A 
ATOM     25  S   UNL     1     -12.616   1.427   6.972  0.00  0.00    +0.000 S 
ATOM     26  C   UNL     1     -13.562   1.587   5.567  0.00  0.00    +0.000 A 
ATOM     27  N   UNL     1     -14.776   2.199   5.612  0.00  0.00    +0.000 NA
ATOM     28  C   UNL     1     -15.402   2.222   4.482  0.00  0.00    +0.000 A 
ATOM     29  N   UNL     1     -14.915   1.706   3.311  0.00  0.00    +0.000 N 
ATOM     30  C   UNL     1     -13.671   1.125   3.206  0.00  0.00    +0.000 A 
ATOM     31  O   UNL     1     -13.224   0.761   2.123  0.00  0.00    +0.000 OA
ATOM     32  C   UNL     1     -12.947   1.033   4.459  0.00  0.00    +0.000 A 
ATOM     33  H   UNL     1     -15.446   1.782   2.454  0.00  0.00    +0.000 HD
ENDBRANCH  20  23
ENDBRANCH  18  19
ENDBRANCH   4  18
TORSDOF 6
