REMARK  Name = 
REMARK  5 active torsions:
REMARK  status: ('A' for Active; 'I' for Inactive)
REMARK    1  A    between atoms: N_1  and  C_2
REMARK    2  A    between atoms: C_2  and  C_3
REMARK    3  A    between atoms: C_3  and  C_4
REMARK    4  A    between atoms: C_7  and  C_8
REMARK    5  A    between atoms: C_8  and  N_9
REMARK                            x       y       z     vdW  Elec       q    Type
REMARK                         _______ _______ _______ _____ _____    ______ ____
ROOT
ATOM      1  C   UNL     1       4.638  -1.041   0.812  0.00  0.00    +0.000 A 
ATOM      2  C   UNL     1       5.422  -1.133   1.969  0.00  0.00    +0.000 A 
ATOM      3  C   UNL     1       6.814  -1.232   1.886  0.00  0.00    +0.000 A 
ATOM      4  C   UNL     1       7.457  -1.240   0.642  0.00  0.00    +0.000 A 
ATOM      5  C   UNL     1       6.684  -1.159  -0.508  0.00  0.00    +0.000 A 
ATOM      6  C   UNL     1       5.286  -1.068  -0.430  0.00  0.00    +0.000 A 
ENDROOT
BRANCH   1   7
ATOM      7  C   UNL     1       3.124  -0.993   0.891  0.00  0.00    +0.000 C 
BRANCH   7   8
ATOM      8  C   UNL     1       2.580   0.219   1.672  0.00  0.00    +0.000 C 
BRANCH   8   9
ATOM      9  N   UNL     1       1.118   0.209   1.705  0.00  0.00    +0.000 NA
ATOM     10  H   UNL     1       0.790   0.996   2.259  0.00  0.00    +0.000 HD
ATOM     11  H   UNL     1       0.790  -0.632   2.179  0.00  0.00    +0.000 HD
ENDBRANCH   8   9
ENDBRANCH   7   8
ENDBRANCH   1   7
BRANCH   4  12
ATOM     12  C   UNL     1       8.970  -1.279   0.546  0.00  0.00    +0.000 C 
BRANCH  12  13
ATOM     13  N   UNL     1       9.526  -2.632   0.479  0.00  0.00    +0.000 N 
ATOM     14  C   UNL     1       9.467  -3.537   1.515  0.00  0.00    +0.000 A 
ATOM     15  C   UNL     1      10.120  -4.681   1.115  0.00  0.00    +0.000 A 
ATOM     16  C   UNL     1      10.943  -4.300   0.029  0.00  0.00    +0.000 A 
ATOM     17  C   UNL     1      12.086  -4.872  -0.562  0.00  0.00    +0.000 A 
ATOM     18  C   UNL     1      12.661  -4.246  -1.672  0.00  0.00    +0.000 A 
ATOM     19  C   UNL     1      12.041  -3.144  -2.237  0.00  0.00    +0.000 A 
ATOM     20  F   UNL     1      12.562  -2.609  -3.349  0.00  0.00    +0.000 F 
ATOM     21  C   UNL     1      10.908  -2.545  -1.666  0.00  0.00    +0.000 A 
ATOM     22  C   UNL     1      10.433  -3.089  -0.470  0.00  0.00    +0.000 A 
ENDBRANCH  12  13
ENDBRANCH   4  12
TORSDOF 5
