REMARK  Name = 
REMARK  8 active torsions:
REMARK  status: ('A' for Active; 'I' for Inactive)
REMARK    1  A    between atoms: C_1  and  C_2
REMARK    2  A    between atoms: C_2  and  C_3
REMARK    3  A    between atoms: C_2  and  C_4
REMARK    4  A    between atoms: C_2  and  C_5
REMARK    5  A    between atoms: C_8  and  C_9
REMARK    6  A    between atoms: C_9  and  N_10
REMARK    7  A    between atoms: C_15  and  C_16
REMARK    8  A    between atoms: C_16  and  O_18
REMARK                            x       y       z     vdW  Elec       q    Type
REMARK                         _______ _______ _______ _____ _____    ______ ____
ROOT
ATOM      1  N   UNL     1       3.816  -2.851  -6.139  0.00  0.00    +0.000 N 
ATOM      2  C   UNL     1       2.756  -3.556  -6.678  0.00  0.00    +0.000 A 
ATOM      3  C   UNL     1       2.548  -3.078  -7.950  0.00  0.00    +0.000 A 
ATOM      4  C   UNL     1       3.795  -2.533  -8.341  0.00  0.00    +0.000 A 
ATOM      5  C   UNL     1       4.430  -2.320  -9.578  0.00  0.00    +0.000 A 
ATOM      6  C   UNL     1       5.751  -1.858  -9.521  0.00  0.00    +0.000 A 
ATOM      7  C   UNL     1       6.300  -1.485  -8.303  0.00  0.00    +0.000 A 
ATOM      8  N   UNL     1       5.728  -1.688  -7.087  0.00  0.00    +0.000 NA
ATOM      9  C   UNL     1       4.516  -2.273  -7.178  0.00  0.00    +0.000 A 
ENDROOT
BRANCH   6  10
ATOM     10  C   UNL     1       6.592  -1.827 -10.725  0.00  0.00    +0.000 C 
ATOM     11  O   UNL     1       7.354  -0.894 -10.966  0.00  0.00    +0.000 OA
BRANCH  10  12
ATOM     12  O   UNL     1       6.499  -2.927 -11.467  0.00  0.00    +0.000 OA
ATOM     13  H   UNL     1       6.012  -3.676 -11.067  0.00  0.00    +0.000 HD
ENDBRANCH  10  12
ENDBRANCH   6  10
BRANCH   1  14
ATOM     14  C   UNL     1       4.328  -3.031  -4.788  0.00  0.00    +0.000 C 
BRANCH  14  18
ATOM     15  C   UNL     1       2.900  -0.694  -1.467  0.00  0.00    +0.000 A 
ATOM     16  C   UNL     1       3.492  -0.043  -2.566  0.00  0.00    +0.000 A 
ATOM     17  C   UNL     1       3.905  -0.766  -3.701  0.00  0.00    +0.000 A 
ATOM     18  C   UNL     1       3.706  -2.148  -3.735  0.00  0.00    +0.000 A 
ATOM     19  N   UNL     1       3.078  -2.791  -2.726  0.00  0.00    +0.000 NA
ATOM     20  C   UNL     1       2.693  -2.058  -1.639  0.00  0.00    +0.000 A 
BRANCH  15  22
ATOM     21  C   UNL     1       1.005   0.478  -0.326  0.00  0.00    +0.000 C 
ATOM     22  C   UNL     1       2.471   0.028  -0.183  0.00  0.00    +0.000 C 
ATOM     23  C   UNL     1       3.331   1.277   0.134  0.00  0.00    +0.000 C 
ATOM     24  C   UNL     1       2.574  -0.881   1.072  0.00  0.00    +0.000 C 
ENDBRANCH  15  22
ENDBRANCH  14  18
ENDBRANCH   1  14
TORSDOF 5
