REMARK  Name = 
REMARK  10 active torsions:
REMARK  status: ('A' for Active; 'I' for Inactive)
REMARK    1  A    between atoms: C_1  and  O_2
REMARK    2  A    between atoms: O_2  and  C_3
REMARK    3  A    between atoms: C_10  and  C_11
REMARK    4  A    between atoms: N_13  and  C_14
REMARK    5  A    between atoms: C_14  and  C_15
REMARK    6  A    between atoms: C_18  and  C_19
REMARK    7  A    between atoms: C_19  and  O_20
REMARK    8  A    between atoms: O_20  and  C_21
REMARK    9  A    between atoms: C_21  and  C_22
REMARK   10  A    between atoms: C_25  and  C_26
REMARK                            x       y       z     vdW  Elec       q    Type
REMARK                         _______ _______ _______ _____ _____    ______ ____
ROOT
ATOM      1  C   UNL     1       2.700   3.273   0.444  0.00  0.00    +0.000 C 
ENDROOT
BRANCH   1   2
ATOM      2  C   UNL     1       1.515   3.237  -0.492  0.00  0.00    +0.000 A 
ATOM      3  C   UNL     1       1.183   2.061  -1.179  0.00  0.00    +0.000 A 
ATOM      4  C   UNL     1       0.016   1.987  -1.950  0.00  0.00    +0.000 A 
ATOM      5  C   UNL     1      -0.840   3.090  -2.070  0.00  0.00    +0.000 A 
ATOM      6  C   UNL     1      -0.468   4.289  -1.446  0.00  0.00    +0.000 A 
ATOM      7  C   UNL     1       0.698   4.362  -0.668  0.00  0.00    +0.000 A 
BRANCH   5   8
ATOM      8  C   UNL     1      -2.128   2.980  -2.854  0.00  0.00    +0.000 C 
BRANCH   8   9
ATOM      9  O   UNL     1      -2.931   1.936  -2.300  0.00  0.00    +0.000 OA
BRANCH   9  10
ATOM     10  C   UNL     1      -4.168   1.771  -2.997  0.00  0.00    +0.000 C 
BRANCH  10  11
ATOM     11  C   UNL     1      -4.985   0.679  -2.364  0.00  0.00    +0.000 A 
ATOM     12  C   UNL     1      -4.949   0.418  -0.992  0.00  0.00    +0.000 A 
ATOM     13  C   UNL     1      -5.751  -0.583  -0.447  0.00  0.00    +0.000 A 
ATOM     14  C   UNL     1      -6.594  -1.302  -1.288  0.00  0.00    +0.000 A 
ATOM     15  C   UNL     1      -7.468  -2.395  -0.748  0.00  0.00    +0.000 C 
ATOM     16  N   UNL     1      -6.669  -1.057  -2.617  0.00  0.00    +0.000 NA
ATOM     17  C   UNL     1      -5.874  -0.081  -3.118  0.00  0.00    +0.000 A 
ENDBRANCH  10  11
ENDBRANCH   9  10
ENDBRANCH   8   9
ENDBRANCH   5   8
ENDBRANCH   1   2
BRANCH   1  20
ATOM     18  C   UNL     1       5.095   3.823   0.471  0.00  0.00    +0.000 C 
ATOM     19  O   UNL     1       5.175   3.547   1.666  0.00  0.00    +0.000 OA
ATOM     20  N   UNL     1       3.907   3.717  -0.204  0.00  0.00    +0.000 N 
ATOM     21  H   UNL     1       3.878   3.856  -1.204  0.00  0.00    +0.000 HD
BRANCH  18  29
ATOM     22  C   UNL     1       5.600   4.673  -2.818  0.00  0.00    +0.000 A 
ATOM     23  N   UNL     1       6.029   5.171  -3.995  0.00  0.00    +0.000 NA
ATOM     24  C   UNL     1       7.273   5.650  -4.061  0.00  0.00    +0.000 A 
ATOM     25  N   UNL     1       8.170   5.685  -3.080  0.00  0.00    +0.000 NA
ATOM     26  C   UNL     1       7.700   5.194  -1.920  0.00  0.00    +0.000 A 
ATOM     27  S   UNL     1       8.714   5.133  -0.560  0.00  0.00    +0.000 S 
ATOM     28  C   UNL     1       7.469   4.481   0.398  0.00  0.00    +0.000 A 
ATOM     29  C   UNL     1       6.270   4.308  -0.280  0.00  0.00    +0.000 A 
ATOM     30  C   UNL     1       6.426   4.690  -1.680  0.00  0.00    +0.000 A 
BRANCH  22  32
ATOM     31  C   UNL     1       3.594   4.197  -3.961  0.00  0.00    +0.000 C 
ATOM     32  O   UNL     1       4.346   4.106  -2.755  0.00  0.00    +0.000 OA
ENDBRANCH  22  32
ENDBRANCH  18  29
ENDBRANCH   1  20
TORSDOF 8
