REMARK  Name = 
REMARK  4 active torsions:
REMARK  status: ('A' for Active; 'I' for Inactive)
REMARK    1  A    between atoms: C_2  and  C_4
REMARK    2  A    between atoms: N_8  and  C_9
REMARK    3  A    between atoms: C_9  and  C_10
REMARK    4  A    between atoms: C_14  and  C_15
REMARK                            x       y       z     vdW  Elec       q    Type
REMARK                         _______ _______ _______ _____ _____    ______ ____
ROOT
ATOM      1  C   UNL     1       8.042  -1.086  -1.444  0.00  0.00    +0.000 A 
ATOM      2  C   UNL     1       8.002  -1.316  -2.814  0.00  0.00    +0.000 A 
ATOM      3  C   UNL     1       7.122  -2.271  -3.317  0.00  0.00    +0.000 A 
ATOM      4  C   UNL     1       6.296  -2.982  -2.451  0.00  0.00    +0.000 A 
ATOM      5  N   UNL     1       5.350  -3.873  -2.870  0.00  0.00    +0.000 N 
ATOM      6  N   UNL     1       6.361  -2.797  -1.117  0.00  0.00    +0.000 NA
ATOM      7  C   UNL     1       7.229  -1.865  -0.639  0.00  0.00    +0.000 A 
ATOM      8  H   UNL     1       4.886  -4.353  -2.109  0.00  0.00    +0.000 HD
ENDROOT
BRANCH   1  10
ATOM      9  N   UNL     1       9.240   1.016  -1.613  0.00  0.00    +0.000 N 
ATOM     10  C   UNL     1       8.909  -0.061  -0.835  0.00  0.00    +0.000 C 
ATOM     11  O   UNL     1       9.286  -0.146   0.326  0.00  0.00    +0.000 OA
ATOM     12  H   UNL     1       9.746   1.765  -1.156  0.00  0.00    +0.000 HD
ATOM     13  H   UNL     1       8.749   1.242  -2.467  0.00  0.00    +0.000 HD
ENDBRANCH   1  10
BRANCH   5  14
ATOM     14  C   UNL     1       5.123  -4.311  -4.228  0.00  0.00    +0.000 C 
BRANCH  14  15
ATOM     15  C   UNL     1       6.083  -5.387  -4.657  0.00  0.00    +0.000 A 
ATOM     16  C   UNL     1       6.501  -5.466  -5.978  0.00  0.00    +0.000 A 
ATOM     17  N   UNL     1       7.344  -6.407  -6.449  0.00  0.00    +0.000 NA
ATOM     18  C   UNL     1       7.792  -7.326  -5.556  0.00  0.00    +0.000 A 
ATOM     19  C   UNL     1       7.432  -7.381  -4.208  0.00  0.00    +0.000 A 
ATOM     20  C   UNL     1       6.543  -6.382  -3.782  0.00  0.00    +0.000 A 
BRANCH  19  21
ATOM     21  C   UNL     1       7.947  -8.413  -3.287  0.00  0.00    +0.000 A 
ATOM     22  C   UNL     1       8.141  -8.163  -1.918  0.00  0.00    +0.000 A 
ATOM     23  C   UNL     1       8.615  -9.163  -1.069  0.00  0.00    +0.000 A 
ATOM     24  C   UNL     1       8.902 -10.401  -1.610  0.00  0.00    +0.000 A 
ATOM     25  N   UNL     1       8.743 -10.697  -2.915  0.00  0.00    +0.000 NA
ATOM     26  C   UNL     1       8.270  -9.705  -3.711  0.00  0.00    +0.000 A 
ENDBRANCH  19  21
ENDBRANCH  14  15
ENDBRANCH   5  14
TORSDOF 4
