REMARK  Name = 
REMARK  3 active torsions:
REMARK  status: ('A' for Active; 'I' for Inactive)
REMARK    1  A    between atoms: C_2  and  C_4
REMARK    2  A    between atoms: N_8  and  C_9
REMARK    3  A    between atoms: C_9  and  C_10
REMARK                            x       y       z     vdW  Elec       q    Type
REMARK                         _______ _______ _______ _____ _____    ______ ____
ROOT
ATOM      1  C   UNL     1       7.806   2.590   2.138  0.00  0.00    +0.000 A 
ATOM      2  C   UNL     1       7.395   3.890   2.430  0.00  0.00    +0.000 A 
ATOM      3  C   UNL     1       6.670   4.601   1.472  0.00  0.00    +0.000 A 
ATOM      4  C   UNL     1       6.367   4.011   0.249  0.00  0.00    +0.000 A 
ATOM      5  N   UNL     1       5.651   4.622  -0.737  0.00  0.00    +0.000 N 
ATOM      6  N   UNL     1       6.774   2.761  -0.046  0.00  0.00    +0.000 NA
ATOM      7  C   UNL     1       7.492   2.083   0.888  0.00  0.00    +0.000 A 
ATOM      8  H   UNL     1       5.525   4.044  -1.559  0.00  0.00    +0.000 HD
ENDROOT
BRANCH   1  10
ATOM      9  N   UNL     1       8.410   2.012   4.414  0.00  0.00    +0.000 N 
ATOM     10  C   UNL     1       8.568   1.752   3.081  0.00  0.00    +0.000 C 
ATOM     11  O   UNL     1       9.279   0.835   2.694  0.00  0.00    +0.000 OA
ATOM     12  H   UNL     1       8.853   1.364   5.054  0.00  0.00    +0.000 HD
ATOM     13  H   UNL     1       7.656   2.579   4.774  0.00  0.00    +0.000 HD
ENDBRANCH   1  10
BRANCH   5  14
ATOM     14  C   UNL     1       5.014   5.908  -0.675  0.00  0.00    +0.000 C 
BRANCH  14  15
ATOM     15  C   UNL     1       5.909   7.041  -1.113  0.00  0.00    +0.000 A 
ATOM     16  C   UNL     1       7.167   6.881  -1.685  0.00  0.00    +0.000 A 
ATOM     17  C   UNL     1       7.893   8.018  -2.000  0.00  0.00    +0.000 A 
ATOM     18  N   UNL     1       7.464   9.282  -1.778  0.00  0.00    +0.000 NA
ATOM     19  C   UNL     1       6.235   9.447  -1.252  0.00  0.00    +0.000 A 
ATOM     20  N   UNL     1       5.791  10.703  -0.906  0.00  0.00    +0.000 N 
ATOM     21  C   UNL     1       6.756  11.779  -0.686  0.00  0.00    +0.000 C 
ATOM     22  C   UNL     1       6.152  12.693   0.399  0.00  0.00    +0.000 C 
ATOM     23  O   UNL     1       4.859  13.203   0.010  0.00  0.00    +0.000 OA
ATOM     24  C   UNL     1       3.941  12.127  -0.264  0.00  0.00    +0.000 C 
ATOM     25  C   UNL     1       4.481  11.183  -1.351  0.00  0.00    +0.000 C 
ATOM     26  C   UNL     1       5.444   8.347  -0.927  0.00  0.00    +0.000 A 
ENDBRANCH  14  15
ENDBRANCH   5  14
TORSDOF 3
