REMARK  Name = 
REMARK  9 active torsions:
REMARK  status: ('A' for Active; 'I' for Inactive)
REMARK    1  A    between atoms: C_1  and  C_2
REMARK    2  A    between atoms: C_2  and  N_3
REMARK    3  A    between atoms: C_2  and  C_20
REMARK    4  A    between atoms: N_3  and  C_4
REMARK    5  A    between atoms: C_4  and  C_5
REMARK    6  A    between atoms: C_8  and  C_9
REMARK    7  A    between atoms: C_9  and  O_10
REMARK    8  A    between atoms: O_10  and  C_11
REMARK    9  A    between atoms: C_11  and  C_12
REMARK                            x       y       z     vdW  Elec       q    Type
REMARK                         _______ _______ _______ _____ _____    ______ ____
ROOT
ATOM      1  C   UNL     1      -1.465  -0.789  -1.297  0.00  0.00    +0.000 C 
ENDROOT
BRANCH   1   2
ATOM      2  C   UNL     1      -0.961  -1.404   0.025  0.00  0.00    +0.000 C 
ATOM      3  C   UNL     1      -1.413  -0.603   1.259  0.00  0.00    +0.000 C 
ATOM      4  C   UNL     1      -2.921  -0.694   1.491  0.00  0.00    +0.000 C 
ATOM      5  C   UNL     1      -3.413  -2.150   1.568  0.00  0.00    +0.000 C 
ATOM      6  C   UNL     1      -2.949  -2.974   0.365  0.00  0.00    +0.000 C 
ATOM      7  C   UNL     1      -1.443  -2.865   0.129  0.00  0.00    +0.000 C 
BRANCH   5   8
ATOM      8  C   UNL     1      -3.000  -2.817   2.893  0.00  0.00    +0.000 C 
BRANCH   8   9
ATOM      9  O   UNL     1      -3.451  -2.085   4.031  0.00  0.00    +0.000 OA
BRANCH   9  10
ATOM     10  C   UNL     1      -4.869  -2.073   4.154  0.00  0.00    +0.000 C 
BRANCH  10  11
ATOM     11  C   UNL     1      -5.240  -1.296   5.381  0.00  0.00    +0.000 A 
ATOM     12  C   UNL     1      -4.878   0.049   5.508  0.00  0.00    +0.000 A 
ATOM     13  C   UNL     1      -5.289   0.741   6.631  0.00  0.00    +0.000 A 
ATOM     14  N   UNL     1      -6.026   0.191   7.621  0.00  0.00    +0.000 NA
ATOM     15  C   UNL     1      -6.354  -1.111   7.481  0.00  0.00    +0.000 A 
ATOM     16  C   UNL     1      -5.992  -1.888   6.395  0.00  0.00    +0.000 A 
ENDBRANCH  10  11
ENDBRANCH   9  10
ENDBRANCH   8   9
ENDBRANCH   5   8
ENDBRANCH   1   2
BRANCH   1  17
ATOM     17  N   UNL     1      -1.015   0.590  -1.500  0.00  0.00    +0.000 NA
ATOM     18  H   UNL     1       0.006   0.608  -1.479  0.00  0.00    +0.000 HD
BRANCH  17  20
ATOM     19  C   UNL     1      -2.983   1.184  -2.949  0.00  0.00    +0.000 C 
ATOM     20  C   UNL     1      -1.458   1.113  -2.804  0.00  0.00    +0.000 C 
BRANCH  20  21
ATOM     21  C   UNL     1      -0.845   2.486  -2.988  0.00  0.00    +0.000 A 
ATOM     22  C   UNL     1      -0.939   3.529  -2.078  0.00  0.00    +0.000 A 
ATOM     23  S   UNL     1      -0.115   4.938  -2.582  0.00  0.00    +0.000 S 
ATOM     24  C   UNL     1       0.353   4.213  -4.051  0.00  0.00    +0.000 A 
ATOM     25  N   UNL     1       1.087   4.891  -4.974  0.00  0.00    +0.000 NA
ATOM     26  C   UNL     1       1.332   4.222  -6.051  0.00  0.00    +0.000 A 
ATOM     27  N   UNL     1       0.905   2.938  -6.291  0.00  0.00    +0.000 N 
ATOM     28  C   UNL     1       0.157   2.215  -5.395  0.00  0.00    +0.000 A 
ATOM     29  O   UNL     1      -0.233   1.083  -5.660  0.00  0.00    +0.000 OA
ATOM     30  C   UNL     1      -0.124   2.919  -4.157  0.00  0.00    +0.000 A 
ATOM     31  H   UNL     1       1.110   2.481  -7.168  0.00  0.00    +0.000 HD
ENDBRANCH  20  21
ENDBRANCH  17  20
ENDBRANCH   1  17
TORSDOF 8
