REMARK  Name = 
REMARK  5 active torsions:
REMARK  status: ('A' for Active; 'I' for Inactive)
REMARK    1  A    between atoms: C_2  and  C_4
REMARK    2  A    between atoms: C_8  and  N_9
REMARK    3  A    between atoms: N_9  and  C_10
REMARK    4  A    between atoms: C_10  and  C_11
REMARK    5  A    between atoms: C_15  and  C_16
REMARK                            x       y       z     vdW  Elec       q    Type
REMARK                         _______ _______ _______ _____ _____    ______ ____
ROOT
ATOM      1  N   UNL     1       3.006   4.924  -0.011  0.00  0.00    +0.000 N 
ATOM      2  H   UNL     1       3.832   5.500   0.152  0.00  0.00    +0.000 HD
ENDROOT
BRANCH   1   7
ATOM      3  C   UNL     1       2.948   1.259  -0.728  0.00  0.00    +0.000 A 
ATOM      4  C   UNL     1       4.026   1.205  -1.596  0.00  0.00    +0.000 A 
ATOM      5  N   UNL     1       4.745   2.291  -1.953  0.00  0.00    +0.000 NA
ATOM      6  C   UNL     1       4.375   3.472  -1.394  0.00  0.00    +0.000 A 
ATOM      7  C   UNL     1       3.336   3.643  -0.470  0.00  0.00    +0.000 A 
ATOM      8  C   UNL     1       2.603   2.495  -0.164  0.00  0.00    +0.000 A 
BRANCH   3  10
ATOM      9  N   UNL     1       0.893   0.142  -0.086  0.00  0.00    +0.000 N 
ATOM     10  C   UNL     1       2.214   0.017  -0.417  0.00  0.00    +0.000 C 
ATOM     11  O   UNL     1       2.751  -1.079  -0.484  0.00  0.00    +0.000 OA
ATOM     12  H   UNL     1       0.376  -0.724   0.010  0.00  0.00    +0.000 HD
ATOM     13  H   UNL     1       0.361   0.976  -0.293  0.00  0.00    +0.000 HD
ENDBRANCH   3  10
ENDBRANCH   1   7
BRANCH   1  14
ATOM     14  C   UNL     1       1.968   5.100   0.992  0.00  0.00    +0.000 C 
BRANCH  14  15
ATOM     15  C   UNL     1       1.836   6.556   1.353  0.00  0.00    +0.000 A 
ATOM     16  C   UNL     1       1.004   7.414   0.634  0.00  0.00    +0.000 A 
ATOM     17  C   UNL     1       0.922   8.738   1.028  0.00  0.00    +0.000 A 
ATOM     18  N   UNL     1       1.610   9.260   2.068  0.00  0.00    +0.000 NA
ATOM     19  C   UNL     1       2.435   8.433   2.764  0.00  0.00    +0.000 A 
ATOM     20  C   UNL     1       2.563   7.084   2.426  0.00  0.00    +0.000 A 
BRANCH  19  21
ATOM     21  C   UNL     1       3.189   9.030   3.884  0.00  0.00    +0.000 A 
ATOM     22  C   UNL     1       3.088  10.379   4.222  0.00  0.00    +0.000 A 
ATOM     23  N   UNL     1       3.787  10.953   5.239  0.00  0.00    +0.000 NA
ATOM     24  C   UNL     1       4.601  10.119   5.917  0.00  0.00    +0.000 A 
ATOM     25  C   UNL     1       4.710   8.775   5.602  0.00  0.00    +0.000 A 
ATOM     26  N   UNL     1       4.017   8.206   4.591  0.00  0.00    +0.000 NA
ENDBRANCH  19  21
ENDBRANCH  14  15
ENDBRANCH   1  14
TORSDOF 5
