REMARK  Name = 
REMARK  4 active torsions:
REMARK  status: ('A' for Active; 'I' for Inactive)
REMARK    1  A    between atoms: N_1  and  C_2
REMARK    2  A    between atoms: C_2  and  C_3
REMARK    3  A    between atoms: N_5  and  C_6
REMARK    4  A    between atoms: C_6  and  C_7
REMARK                            x       y       z     vdW  Elec       q    Type
REMARK                         _______ _______ _______ _____ _____    ______ ____
ROOT
ATOM      1  C   UNL     1       3.227   3.562   3.352  0.00  0.00    +0.000 C 
ENDROOT
BRANCH   1   2
ATOM      2  C   UNL     1       2.665   4.616   2.436  0.00  0.00    +0.000 A 
ATOM      3  N   UNL     1       3.590   5.325   1.745  0.00  0.00    +0.000 NA
ATOM      4  C   UNL     1       3.120   6.180   0.826  0.00  0.00    +0.000 A 
ATOM      5  N   UNL     1       1.833   6.378   0.528  0.00  0.00    +0.000 NA
ATOM      6  C   UNL     1       0.930   5.679   1.224  0.00  0.00    +0.000 A 
ATOM      7  C   UNL     1      -0.413   5.828   0.907  0.00  0.00    +0.000 A 
ATOM      8  C   UNL     1      -1.420   5.137   1.584  0.00  0.00    +0.000 A 
ATOM      9  C   UNL     1      -1.085   4.293   2.635  0.00  0.00    +0.000 A 
ATOM     10  C   UNL     1       0.255   4.123   2.968  0.00  0.00    +0.000 A 
ATOM     11  C   UNL     1       1.282   4.785   2.248  0.00  0.00    +0.000 A 
ENDBRANCH   1   2
BRANCH   1  14
ATOM     12  C   UNL     1       3.002   0.189   2.113  0.00  0.00    +0.000 A 
ATOM     13  C   UNL     1       2.381   1.285   2.676  0.00  0.00    +0.000 A 
ATOM     14  N   UNL     1       3.321   2.275   2.678  0.00  0.00    +0.000 N 
ATOM     15  C   UNL     1       4.432   1.788   2.051  0.00  0.00    +0.000 A 
ATOM     16  N   UNL     1       4.275   0.526   1.710  0.00  0.00    +0.000 NA
BRANCH  12  17
ATOM     17  C   UNL     1       2.482  -1.202   1.964  0.00  0.00    +0.000 C 
BRANCH  17  18
ATOM     18  N   UNL     1       1.273  -1.187   1.138  0.00  0.00    +0.000 NA
ATOM     19  H   UNL     1       1.004  -2.154   0.951  0.00  0.00    +0.000 HD
ATOM     20  H   UNL     1       1.524  -0.787   0.235  0.00  0.00    +0.000 HD
ENDBRANCH  17  18
ENDBRANCH  12  17
ENDBRANCH   1  14
TORSDOF 4
