REMARK  Name = 
REMARK  8 active torsions:
REMARK  status: ('A' for Active; 'I' for Inactive)
REMARK    1  A    between atoms: C_1  and  O_2
REMARK    2  A    between atoms: O_2  and  C_3
REMARK    3  A    between atoms: C_8  and  C_9
REMARK    4  A    between atoms: N_11  and  C_12
REMARK    5  A    between atoms: C_12  and  C_13
REMARK    6  A    between atoms: C_16  and  C_17
REMARK    7  A    between atoms: C_17  and  N_18
REMARK    8  A    between atoms: C_19  and  C_21
REMARK                            x       y       z     vdW  Elec       q    Type
REMARK                         _______ _______ _______ _____ _____    ______ ____
ROOT
ATOM      1  C   UNL     1       2.944   2.082  -3.724  0.00  0.00    +0.000 A 
ATOM      2  C   UNL     1       2.764   0.742  -4.093  0.00  0.00    +0.000 A 
ATOM      3  C   UNL     1       1.770   0.382  -5.011  0.00  0.00    +0.000 A 
ATOM      4  C   UNL     1       0.949   1.357  -5.596  0.00  0.00    +0.000 A 
ATOM      5  C   UNL     1       1.126   2.695  -5.219  0.00  0.00    +0.000 A 
ATOM      6  C   UNL     1       2.119   3.056  -4.302  0.00  0.00    +0.000 A 
ENDROOT
BRANCH   1   7
ATOM      7  C   UNL     1       4.032   2.477  -2.757  0.00  0.00    +0.000 C 
BRANCH   7  10
ATOM      8  C   UNL     1       6.419   3.095  -2.781  0.00  0.00    +0.000 C 
ATOM      9  O   UNL     1       6.447   3.235  -1.560  0.00  0.00    +0.000 OA
ATOM     10  N   UNL     1       5.269   2.752  -3.447  0.00  0.00    +0.000 N 
ATOM     11  H   UNL     1       5.303   2.650  -4.455  0.00  0.00    +0.000 HD
BRANCH   8  17
ATOM     12  C   UNL     1       7.751   3.122  -4.997  0.00  0.00    +0.000 A 
ATOM     13  C   UNL     1       9.006   3.202  -5.623  0.00  0.00    +0.000 A 
ATOM     14  C   UNL     1      10.164   3.457  -4.884  0.00  0.00    +0.000 A 
ATOM     15  C   UNL     1      10.084   3.648  -3.511  0.00  0.00    +0.000 A 
ATOM     16  C   UNL     1       8.849   3.549  -2.871  0.00  0.00    +0.000 A 
ATOM     17  C   UNL     1       7.674   3.264  -3.594  0.00  0.00    +0.000 A 
BRANCH  12  19
ATOM     18  C   UNL     1       6.649   2.886  -7.110  0.00  0.00    +0.000 C 
ATOM     19  O   UNL     1       6.585   2.907  -5.688  0.00  0.00    +0.000 OA
ENDBRANCH  12  19
ENDBRANCH   8  17
ENDBRANCH   7  10
ENDBRANCH   1   7
BRANCH   4  20
ATOM     20  C   UNL     1      -0.120   0.985  -6.593  0.00  0.00    +0.000 C 
BRANCH  20  21
ATOM     21  N   UNL     1      -1.378   0.713  -5.946  0.00  0.00    +0.000 N 
ATOM     22  C   UNL     1      -2.479   0.310  -6.662  0.00  0.00    +0.000 C 
ATOM     23  O   UNL     1      -2.436   0.127  -7.876  0.00  0.00    +0.000 OA
ATOM     24  H   UNL     1      -1.507   1.092  -5.013  0.00  0.00    +0.000 HD
BRANCH  22  25
ATOM     25  C   UNL     1      -3.700   0.043  -5.889  0.00  0.00    +0.000 A 
ATOM     26  C   UNL     1      -4.655  -0.836  -6.385  0.00  0.00    +0.000 A 
ATOM     27  S   UNL     1      -5.979  -1.069  -5.336  0.00  0.00    +0.000 S 
ATOM     28  C   UNL     1      -5.352   0.038  -4.206  0.00  0.00    +0.000 A 
ATOM     29  N   UNL     1      -6.025   0.330  -3.062  0.00  0.00    +0.000 NA
ATOM     30  C   UNL     1      -5.449   1.212  -2.314  0.00  0.00    +0.000 A 
ATOM     31  N   UNL     1      -4.253   1.818  -2.600  0.00  0.00    +0.000 N 
ATOM     32  C   UNL     1      -3.524   1.529  -3.727  0.00  0.00    +0.000 A 
ATOM     33  O   UNL     1      -2.435   2.058  -3.934  0.00  0.00    +0.000 OA
ATOM     34  C   UNL     1      -4.135   0.558  -4.611  0.00  0.00    +0.000 A 
ATOM     35  H   UNL     1      -3.849   2.492  -1.968  0.00  0.00    +0.000 HD
ENDBRANCH  22  25
ENDBRANCH  20  21
ENDBRANCH   4  20
TORSDOF 7
