REMARK  Name = 
REMARK  5 active torsions:
REMARK  status: ('A' for Active; 'I' for Inactive)
REMARK    1  A    between atoms: C_2  and  C_4
REMARK    2  A    between atoms: C_7  and  C_8
REMARK    3  A    between atoms: C_8  and  O_9
REMARK    4  A    between atoms: O_9  and  C_10
REMARK    5  A    between atoms: C_14  and  C_15
REMARK                            x       y       z     vdW  Elec       q    Type
REMARK                         _______ _______ _______ _____ _____    ______ ____
ROOT
ATOM      1  O   UNL     1       4.960  -5.880  -0.399  0.00  0.00    +0.000 OA
ENDROOT
BRANCH   1   2
ATOM      2  C   UNL     1       5.534  -7.116  -0.325  0.00  0.00    +0.000 A 
ATOM      3  C   UNL     1       5.899  -7.784   0.835  0.00  0.00    +0.000 A 
ATOM      4  C   UNL     1       6.463  -9.040   0.704  0.00  0.00    +0.000 A 
ATOM      5  N   UNL     1       6.686  -9.649  -0.481  0.00  0.00    +0.000 NA
ATOM      6  C   UNL     1       6.350  -8.982  -1.612  0.00  0.00    +0.000 A 
ATOM      7  C   UNL     1       5.762  -7.721  -1.560  0.00  0.00    +0.000 A 
BRANCH   6   8
ATOM      8  C   UNL     1       6.650  -9.671  -2.870  0.00  0.00    +0.000 A 
ATOM      9  C   UNL     1       6.688 -11.052  -2.980  0.00  0.00    +0.000 A 
ATOM     10  N   UNL     1       6.957 -11.729  -4.122  0.00  0.00    +0.000 NA
ATOM     11  C   UNL     1       7.211 -10.974  -5.198  0.00  0.00    +0.000 A 
ATOM     12  N   UNL     1       7.216  -9.635  -5.234  0.00  0.00    +0.000 NA
ATOM     13  C   UNL     1       6.939  -9.021  -4.059  0.00  0.00    +0.000 A 
ENDBRANCH   6   8
ENDBRANCH   1   2
BRANCH   1  14
ATOM     14  C   UNL     1       4.630  -5.239   0.836  0.00  0.00    +0.000 C 
BRANCH  14  18
ATOM     15  C   UNL     1       2.695  -1.483   0.215  0.00  0.00    +0.000 A 
ATOM     16  C   UNL     1       2.506  -2.492  -0.728  0.00  0.00    +0.000 A 
ATOM     17  C   UNL     1       3.133  -3.723  -0.542  0.00  0.00    +0.000 A 
ATOM     18  C   UNL     1       3.948  -3.913   0.576  0.00  0.00    +0.000 A 
ATOM     19  N   UNL     1       4.133  -2.941   1.507  0.00  0.00    +0.000 NA
ATOM     20  C   UNL     1       3.519  -1.748   1.299  0.00  0.00    +0.000 A 
BRANCH  15  22
ATOM     21  N   UNL     1       0.898  -0.063  -0.591  0.00  0.00    +0.000 N 
ATOM     22  C   UNL     1       2.077  -0.148   0.098  0.00  0.00    +0.000 C 
ATOM     23  O   UNL     1       2.577   0.837   0.626  0.00  0.00    +0.000 OA
ATOM     24  H   UNL     1       0.435   0.838  -0.574  0.00  0.00    +0.000 HD
ATOM     25  H   UNL     1       0.340  -0.870  -0.820  0.00  0.00    +0.000 HD
ENDBRANCH  15  22
ENDBRANCH  14  18
ENDBRANCH   1  14
TORSDOF 5
