REMARK  Name = 
REMARK  5 active torsions:
REMARK  status: ('A' for Active; 'I' for Inactive)
REMARK    1  A    between atoms: C_2  and  C_4
REMARK    2  A    between atoms: C_7  and  O_8
REMARK    3  A    between atoms: O_8  and  C_9
REMARK    4  A    between atoms: C_9  and  C_10
REMARK    5  A    between atoms: C_15  and  C_16
REMARK                            x       y       z     vdW  Elec       q    Type
REMARK                         _______ _______ _______ _____ _____    ______ ____
ROOT
ATOM      1  C   UNL     1       4.718  -5.893   1.072  0.00  0.00    +0.000 C 
ATOM      2  C   UNL     1       4.684  -6.529  -0.317  0.00  0.00    +0.000 C 
ATOM      3  C   UNL     1       3.410  -6.325   0.431  0.00  0.00    +0.000 C 
ENDROOT
BRANCH   1   4
ATOM      4  C   UNL     1       5.244  -6.722   2.237  0.00  0.00    +0.000 A 
ATOM      5  C   UNL     1       4.589  -6.697   3.471  0.00  0.00    +0.000 A 
ATOM      6  C   UNL     1       5.005  -7.538   4.495  0.00  0.00    +0.000 A 
ATOM      7  C   UNL     1       6.067  -8.397   4.267  0.00  0.00    +0.000 A 
ATOM      8  F   UNL     1       6.448  -9.220   5.255  0.00  0.00    +0.000 F 
ATOM      9  C   UNL     1       6.707  -8.391   3.029  0.00  0.00    +0.000 A 
ATOM     10  N   UNL     1       6.312  -7.547   2.033  0.00  0.00    +0.000 NA
BRANCH   9  11
ATOM     11  C   UNL     1       7.816  -9.299   2.688  0.00  0.00    +0.000 A 
ATOM     12  C   UNL     1       8.852  -8.914   1.824  0.00  0.00    +0.000 A 
ATOM     13  C   UNL     1       9.885  -9.799   1.512  0.00  0.00    +0.000 A 
ATOM     14  C   UNL     1       9.855 -11.065   2.068  0.00  0.00    +0.000 A 
ATOM     15  N   UNL     1       8.881 -11.491   2.896  0.00  0.00    +0.000 NA
ATOM     16  C   UNL     1       7.894 -10.604   3.180  0.00  0.00    +0.000 A 
ENDBRANCH   9  11
ENDBRANCH   1   4
BRANCH   1  17
ATOM     17  O   UNL     1       5.168  -4.519   0.981  0.00  0.00    +0.000 OA
BRANCH  17  21
ATOM     18  C   UNL     1       2.889  -1.467   2.373  0.00  0.00    +0.000 A 
ATOM     19  C   UNL     1       2.561  -2.776   2.705  0.00  0.00    +0.000 A 
ATOM     20  N   UNL     1       3.296  -3.846   2.291  0.00  0.00    +0.000 NA
ATOM     21  C   UNL     1       4.375  -3.536   1.535  0.00  0.00    +0.000 A 
ATOM     22  C   UNL     1       4.722  -2.221   1.237  0.00  0.00    +0.000 A 
ATOM     23  N   UNL     1       3.990  -1.150   1.635  0.00  0.00    +0.000 NA
BRANCH  18  25
ATOM     24  N   UNL     1       2.316   0.882   2.273  0.00  0.00    +0.000 N 
ATOM     25  C   UNL     1       1.987  -0.352   2.766  0.00  0.00    +0.000 C 
ATOM     26  O   UNL     1       0.993  -0.529   3.464  0.00  0.00    +0.000 OA
ATOM     27  H   UNL     1       1.708   1.670   2.448  0.00  0.00    +0.000 HD
ATOM     28  H   UNL     1       3.121   0.987   1.664  0.00  0.00    +0.000 HD
ENDBRANCH  18  25
ENDBRANCH  17  21
ENDBRANCH   1  17
TORSDOF 5
