REMARK  Name = 
REMARK  7 active torsions:
REMARK  status: ('A' for Active; 'I' for Inactive)
REMARK    1  A    between atoms: C_2  and  C_3
REMARK    2  A    between atoms: C_2  and  C_25
REMARK    3  A    between atoms: C_3  and  C_4
REMARK    4  A    between atoms: C_4  and  C_5
REMARK    5  A    between atoms: C_8  and  C_9
REMARK    6  A    between atoms: C_9  and  N_10
REMARK    7  A    between atoms: C_11  and  C_13
REMARK                            x       y       z     vdW  Elec       q    Type
REMARK                         _______ _______ _______ _____ _____    ______ ____
ROOT
ATOM      1  C   UNL     1       2.877   0.132   3.823  0.00  0.00    +0.000 A 
ATOM      2  C   UNL     1       3.189   1.367   4.381  0.00  0.00    +0.000 A 
ATOM      3  C   UNL     1       3.900   1.405   5.581  0.00  0.00    +0.000 A 
ATOM      4  C   UNL     1       4.298   0.213   6.189  0.00  0.00    +0.000 A 
ATOM      5  C   UNL     1       3.924  -0.971   5.565  0.00  0.00    +0.000 A 
ATOM      6  N   UNL     1       3.231  -1.037   4.406  0.00  0.00    +0.000 NA
ENDROOT
BRANCH   1   7
ATOM      7  C   UNL     1       2.136   0.040   2.512  0.00  0.00    +0.000 C 
BRANCH   7   8
ATOM      8  C   UNL     1       0.816  -0.714   2.676  0.00  0.00    +0.000 C 
BRANCH   8  10
ATOM      9  O   UNL     1       0.454  -0.258   0.337  0.00  0.00    +0.000 OA
ATOM     10  C   UNL     1       0.064  -0.809   1.365  0.00  0.00    +0.000 C 
BRANCH  10  11
ATOM     11  C   UNL     1      -1.205  -1.588   1.328  0.00  0.00    +0.000 A 
ATOM     12  C   UNL     1      -1.874  -1.766   0.113  0.00  0.00    +0.000 A 
ATOM     13  C   UNL     1      -3.061  -2.496   0.078  0.00  0.00    +0.000 A 
ATOM     14  C   UNL     1      -3.542  -3.022   1.266  0.00  0.00    +0.000 A 
ATOM     15  N   UNL     1      -2.927  -2.867   2.458  0.00  0.00    +0.000 NA
ATOM     16  C   UNL     1      -1.772  -2.155   2.462  0.00  0.00    +0.000 A 
ENDBRANCH  10  11
ENDBRANCH   8  10
ENDBRANCH   7   8
ENDBRANCH   1   7
BRANCH   4  17
ATOM     17  C   UNL     1       5.069   0.193   7.473  0.00  0.00    +0.000 C 
BRANCH  17  18
ATOM     18  N   UNL     1       4.195   0.150   8.617  0.00  0.00    +0.000 N 
ATOM     19  C   UNL     1       4.699   0.225   9.893  0.00  0.00    +0.000 C 
ATOM     20  O   UNL     1       5.897   0.349  10.123  0.00  0.00    +0.000 OA
ATOM     21  H   UNL     1       3.227  -0.123   8.471  0.00  0.00    +0.000 HD
BRANCH  19  22
ATOM     22  C   UNL     1       3.713   0.204  10.959  0.00  0.00    +0.000 A 
ATOM     23  C   UNL     1       3.952   0.703  12.228  0.00  0.00    +0.000 A 
ATOM     24  O   UNL     1       2.851   0.604  13.016  0.00  0.00    +0.000 OA
ATOM     25  C   UNL     1       1.877   0.005  12.276  0.00  0.00    +0.000 A 
ATOM     26  N   UNL     1       0.635  -0.265  12.745  0.00  0.00    +0.000 NA
ATOM     27  C   UNL     1      -0.114  -0.881  11.889  0.00  0.00    +0.000 A 
ATOM     28  N   UNL     1       0.269  -1.240  10.615  0.00  0.00    +0.000 N 
ATOM     29  C   UNL     1       1.506  -0.936  10.090  0.00  0.00    +0.000 A 
ATOM     30  O   UNL     1       1.817  -1.196   8.933  0.00  0.00    +0.000 OA
ATOM     31  C   UNL     1       2.375  -0.269  11.018  0.00  0.00    +0.000 A 
ATOM     32  H   UNL     1      -0.374  -1.717  10.000  0.00  0.00    +0.000 HD
ENDBRANCH  19  22
ENDBRANCH  17  18
ENDBRANCH   4  17
TORSDOF 7
