REMARK  Name = 
REMARK  7 active torsions:
REMARK  status: ('A' for Active; 'I' for Inactive)
REMARK    1  A    between atoms: C_2  and  C_20
REMARK    2  A    between atoms: N_3  and  C_4
REMARK    3  A    between atoms: C_4  and  C_5
REMARK    4  A    between atoms: C_8  and  C_9
REMARK    5  A    between atoms: C_9  and  N_10
REMARK    6  A    between atoms: N_10  and  C_11
REMARK    7  A    between atoms: C_11  and  C_12
REMARK                            x       y       z     vdW  Elec       q    Type
REMARK                         _______ _______ _______ _____ _____    ______ ____
ROOT
ATOM      1  C   UNL     1       2.273  -2.039  -1.460  0.00  0.00    +0.000 C 
ENDROOT
BRANCH   1   2
ATOM      2  C   UNL     1       3.215  -2.991  -2.146  0.00  0.00    +0.000 A 
ATOM      3  C   UNL     1       4.343  -2.504  -2.818  0.00  0.00    +0.000 A 
ATOM      4  C   UNL     1       5.219  -3.378  -3.465  0.00  0.00    +0.000 A 
ATOM      5  C   UNL     1       4.999  -4.764  -3.446  0.00  0.00    +0.000 A 
ATOM      6  C   UNL     1       3.851  -5.246  -2.800  0.00  0.00    +0.000 A 
ATOM      7  C   UNL     1       2.969  -4.370  -2.157  0.00  0.00    +0.000 A 
BRANCH   5   8
ATOM      8  C   UNL     1       5.929  -5.726  -4.162  0.00  0.00    +0.000 C 
BRANCH   8   9
ATOM      9  N   UNL     1       7.318  -5.274  -4.115  0.00  0.00    +0.000 NA
ATOM     10  H   UNL     1       7.604  -5.184  -3.142  0.00  0.00    +0.000 HD
BRANCH   9  11
ATOM     11  C   UNL     1       8.236  -6.165  -4.827  0.00  0.00    +0.000 C 
BRANCH  11  12
ATOM     12  C   UNL     1       9.655  -5.551  -4.821  0.00  0.00    +0.000 C 
ATOM     13  C   UNL     1       9.716  -4.193  -5.543  0.00  0.00    +0.000 C 
ATOM     14  C   UNL     1       9.585  -4.363  -7.055  0.00  0.00    +0.000 C 
ATOM     15  C   UNL     1      10.608  -5.366  -7.585  0.00  0.00    +0.000 C 
ATOM     16  N   UNL     1      10.531  -6.654  -6.892  0.00  0.00    +0.000 NA
ATOM     17  C   UNL     1      10.696  -6.497  -5.445  0.00  0.00    +0.000 C 
ATOM     18  H   UNL     1      11.271  -7.261  -7.246  0.00  0.00    +0.000 HD
ENDBRANCH  11  12
ENDBRANCH   9  11
ENDBRANCH   8   9
ENDBRANCH   5   8
ENDBRANCH   1   2
BRANCH   1  21
ATOM     19  O   UNL     1       2.347   0.298  -3.008  0.00  0.00    +0.000 OA
ATOM     20  C   UNL     1       1.369  -0.436  -3.097  0.00  0.00    +0.000 C 
ATOM     21  N   UNL     1       1.234  -1.585  -2.355  0.00  0.00    +0.000 N 
ATOM     22  H   UNL     1       0.431  -2.179  -2.498  0.00  0.00    +0.000 HD
BRANCH  20  23
ATOM     23  C   UNL     1       0.253  -0.124  -3.979  0.00  0.00    +0.000 A 
ATOM     24  C   UNL     1      -1.080  -0.404  -3.748  0.00  0.00    +0.000 A 
ATOM     25 CL   UNL     1      -1.907  -1.202  -2.492  0.00  0.00    +0.000 Cl
ATOM     26  N   UNL     1      -1.851   0.137  -4.725  0.00  0.00    +0.000 N 
ATOM     27  C   UNL     1      -1.044   0.763  -5.628  0.00  0.00    +0.000 A 
ATOM     28  N   UNL     1      -1.496   1.409  -6.712  0.00  0.00    +0.000 NA
ATOM     29  C   UNL     1      -0.497   1.917  -7.450  0.00  0.00    +0.000 A 
ATOM     30  N   UNL     1       0.819   1.817  -7.221  0.00  0.00    +0.000 NA
ATOM     31  C   UNL     1       1.200   1.162  -6.109  0.00  0.00    +0.000 A 
ATOM     32 CL   UNL     1       2.867   0.934  -5.903  0.00  0.00    +0.000 Cl
ATOM     33  C   UNL     1       0.279   0.603  -5.226  0.00  0.00    +0.000 A 
ATOM     34  H   UNL     1      -2.860   0.107  -4.779  0.00  0.00    +0.000 HD
ENDBRANCH  20  23
ENDBRANCH   1  21
TORSDOF 7
