REMARK  Name = 
REMARK  6 active torsions:
REMARK  status: ('A' for Active; 'I' for Inactive)
REMARK    1  A    between atoms: C_1  and  C_2
REMARK    2  A    between atoms: C_2  and  C_3
REMARK    3  A    between atoms: C_2  and  O_4
REMARK    4  A    between atoms: C_2  and  C_14
REMARK    5  A    between atoms: O_4  and  C_5
REMARK    6  A    between atoms: C_8  and  C_9
REMARK                            x       y       z     vdW  Elec       q    Type
REMARK                         _______ _______ _______ _____ _____    ______ ____
ROOT
ATOM      1  C   UNL     1       2.106   0.045   2.488  0.00  0.00    +0.000 A 
ATOM      2  C   UNL     1       1.354   1.208   2.614  0.00  0.00    +0.000 A 
ATOM      3  C   UNL     1       0.571   1.408   3.751  0.00  0.00    +0.000 A 
ATOM      4  C   UNL     1       0.604   0.449   4.753  0.00  0.00    +0.000 A 
ATOM      5  N   UNL     1       1.378  -0.669   4.704  0.00  0.00    +0.000 NA
ATOM      6  C   UNL     1       2.111  -0.829   3.572  0.00  0.00    +0.000 A 
ENDROOT
BRANCH   4   7
ATOM      7  C   UNL     1      -0.262   0.624   5.964  0.00  0.00    +0.000 C 
ATOM      8  N   UNL     1      -0.163  -0.361   6.908  0.00  0.00    +0.000 N 
ATOM      9  O   UNL     1      -1.017   1.578   6.104  0.00  0.00    +0.000 OA
ATOM     10  H   UNL     1       0.463  -1.143   6.751  0.00  0.00    +0.000 HD
ATOM     11  H   UNL     1      -0.731  -0.312   7.740  0.00  0.00    +0.000 HD
ENDBRANCH   4   7
BRANCH   1  12
ATOM     12  O   UNL     1       2.865  -0.306   1.415  0.00  0.00    +0.000 OA
BRANCH  12  14
ATOM     13  C   UNL     1       0.935   0.024  -0.179  0.00  0.00    +0.000 C 
ATOM     14  C   UNL     1       2.466  -0.016   0.053  0.00  0.00    +0.000 C 
ATOM     15  C   UNL     1       3.088   1.326  -0.374  0.00  0.00    +0.000 C 
BRANCH  14  16
ATOM     16  C   UNL     1       3.048  -1.184  -0.840  0.00  0.00    +0.000 C 
ATOM     17  C   UNL     1       2.461  -2.560  -0.444  0.00  0.00    +0.000 C 
ATOM     18  C   UNL     1       2.969  -3.685  -1.342  0.00  0.00    +0.000 C 
ATOM     19  C   UNL     1       4.489  -3.753  -1.348  0.00  0.00    +0.000 C 
ATOM     20  C   UNL     1       5.097  -2.410  -1.731  0.00  0.00    +0.000 C 
ATOM     21  C   UNL     1       4.590  -1.276  -0.837  0.00  0.00    +0.000 C 
ENDBRANCH  14  16
ENDBRANCH  12  14
ENDBRANCH   1  12
TORSDOF 4
