REMARK  Name = 
REMARK  8 active torsions:
REMARK  status: ('A' for Active; 'I' for Inactive)
REMARK    1  A    between atoms: C_1  and  C_2
REMARK    2  A    between atoms: C_2  and  N_3
REMARK    3  A    between atoms: C_2  and  C_16
REMARK    4  A    between atoms: C_4  and  C_6
REMARK    5  A    between atoms: C_19  and  C_20
REMARK    6  A    between atoms: C_20  and  N_21
REMARK    7  A    between atoms: C_22  and  C_24
REMARK    8  A    between atoms: N_28  and  C_29
REMARK                            x       y       z     vdW  Elec       q    Type
REMARK                         _______ _______ _______ _____ _____    ______ ____
ROOT
ATOM      1  C   UNL     1       3.650   0.749   0.737  0.00  0.00    +0.000 C 
ATOM      2  C   UNL     1       2.531   0.012  -0.008  0.00  0.00    +0.000 C 
ENDROOT
BRANCH   2   3
ATOM      3  C   UNL     1       2.998  -0.439  -1.392  0.00  0.00    +0.000 A 
ATOM      4  C   UNL     1       3.461   0.485  -2.330  0.00  0.00    +0.000 A 
ATOM      5  C   UNL     1       3.845   0.043  -3.598  0.00  0.00    +0.000 A 
ATOM      6  C   UNL     1       3.765  -1.314  -3.907  0.00  0.00    +0.000 A 
ATOM      7  C   UNL     1       3.288  -2.163  -2.920  0.00  0.00    +0.000 A 
ATOM      8  N   UNL     1       2.901  -1.759  -1.683  0.00  0.00    +0.000 NA
BRANCH   6   9
ATOM      9  C   UNL     1       4.127  -1.837  -5.270  0.00  0.00    +0.000 C 
BRANCH   9  10
ATOM     10  N   UNL     1       2.973  -1.863  -6.136  0.00  0.00    +0.000 N 
ATOM     11  C   UNL     1       3.051  -2.356  -7.420  0.00  0.00    +0.000 C 
ATOM     12  O   UNL     1       4.098  -2.786  -7.896  0.00  0.00    +0.000 OA
ATOM     13  H   UNL     1       2.057  -1.747  -5.733  0.00  0.00    +0.000 HD
BRANCH  11  14
ATOM     14  C   UNL     1       1.785  -2.345  -8.128  0.00  0.00    +0.000 A 
ATOM     15  C   UNL     1       0.705  -1.482  -7.970  0.00  0.00    +0.000 A 
ATOM     16  C   UNL     1      -0.301  -1.846  -8.894  0.00  0.00    +0.000 A 
ATOM     17  C   UNL     1       0.173  -2.922  -9.603  0.00  0.00    +0.000 A 
ATOM     18  N   UNL     1       1.433  -3.214  -9.145  0.00  0.00    +0.000 N 
ATOM     19  C   UNL     1       2.239  -4.315  -9.632  0.00  0.00    +0.000 C 
ENDBRANCH  11  14
ENDBRANCH   9  10
ENDBRANCH   6   9
ENDBRANCH   2   3
BRANCH   2  20
ATOM     20  N   UNL     1       1.322   0.819  -0.118  0.00  0.00    +0.000 N 
ATOM     21  C   UNL     1       0.589   1.237   0.960  0.00  0.00    +0.000 C 
ATOM     22  O   UNL     1       0.883   0.942   2.114  0.00  0.00    +0.000 OA
ATOM     23  H   UNL     1       1.018   1.064  -1.052  0.00  0.00    +0.000 HD
BRANCH  21  24
ATOM     24  C   UNL     1      -0.614   2.023   0.658  0.00  0.00    +0.000 A 
ATOM     25  C   UNL     1      -1.645   2.084   1.586  0.00  0.00    +0.000 A 
ATOM     26  S   UNL     1      -2.990   2.986   1.054  0.00  0.00    +0.000 S 
ATOM     27  C   UNL     1      -2.226   3.360  -0.419  0.00  0.00    +0.000 A 
ATOM     28  N   UNL     1      -2.856   4.111  -1.361  0.00  0.00    +0.000 NA
ATOM     29  C   UNL     1      -2.151   4.348  -2.416  0.00  0.00    +0.000 A 
ATOM     30  N   UNL     1      -0.865   3.911  -2.609  0.00  0.00    +0.000 N 
ATOM     31  C   UNL     1      -0.191   3.140  -1.691  0.00  0.00    +0.000 A 
ATOM     32  O   UNL     1       0.952   2.751  -1.910  0.00  0.00    +0.000 OA
ATOM     33  C   UNL     1      -0.953   2.822  -0.497  0.00  0.00    +0.000 A 
ATOM     34  H   UNL     1      -0.366   4.140  -3.456  0.00  0.00    +0.000 HD
ENDBRANCH  21  24
ENDBRANCH   2  20
TORSDOF 6
