REMARK  Name = 
REMARK  7 active torsions:
REMARK  status: ('A' for Active; 'I' for Inactive)
REMARK    1  A    between atoms: C_2  and  C_4
REMARK    2  A    between atoms: C_7  and  N_8
REMARK    3  A    between atoms: N_8  and  C_9
REMARK    4  A    between atoms: C_9  and  C_10
REMARK    5  A    between atoms: C_10  and  C_11
REMARK    6  A    between atoms: C_15  and  O_16
REMARK    7  A    between atoms: O_16  and  C_17
REMARK                            x       y       z     vdW  Elec       q    Type
REMARK                         _______ _______ _______ _____ _____    ______ ____
ROOT
ATOM      1  C   UNL     1       5.363  -4.739   3.399  0.00  0.00    +0.000 C 
ENDROOT
BRANCH   1   2
ATOM      2  N   UNL     1       5.582  -3.303   3.251  0.00  0.00    +0.000 N 
ATOM      3  H   UNL     1       6.552  -3.002   3.312  0.00  0.00    +0.000 HD
BRANCH   2   7
ATOM      4  C   UNL     1       3.291  -0.868   0.772  0.00  0.00    +0.000 A 
ATOM      5  C   UNL     1       2.946  -2.210   0.854  0.00  0.00    +0.000 A 
ATOM      6  C   UNL     1       3.717  -3.049   1.659  0.00  0.00    +0.000 A 
ATOM      7  C   UNL     1       4.825  -2.553   2.351  0.00  0.00    +0.000 A 
ATOM      8  C   UNL     1       5.064  -1.179   2.203  0.00  0.00    +0.000 A 
ATOM      9  N   UNL     1       4.349  -0.325   1.430  0.00  0.00    +0.000 NA
BRANCH   4  11
ATOM     10  N   UNL     1       2.888   1.357  -0.105  0.00  0.00    +0.000 N 
ATOM     11  C   UNL     1       2.463   0.056  -0.065  0.00  0.00    +0.000 C 
ATOM     12  O   UNL     1       1.471  -0.315  -0.680  0.00  0.00    +0.000 OA
ATOM     13  H   UNL     1       2.381   2.030  -0.659  0.00  0.00    +0.000 HD
ATOM     14  H   UNL     1       3.722   1.627   0.406  0.00  0.00    +0.000 HD
ENDBRANCH   4  11
ENDBRANCH   2   7
ENDBRANCH   1   2
BRANCH   1  15
ATOM     15  C   UNL     1       6.388  -5.347   4.364  0.00  0.00    +0.000 C 
BRANCH  15  16
ATOM     16  C   UNL     1       6.140  -6.817   4.563  0.00  0.00    +0.000 A 
ATOM     17  C   UNL     1       5.331  -7.270   5.603  0.00  0.00    +0.000 A 
ATOM     18  N   UNL     1       5.026  -8.569   5.809  0.00  0.00    +0.000 NA
ATOM     19  C   UNL     1       5.542  -9.459   4.930  0.00  0.00    +0.000 A 
ATOM     20  C   UNL     1       6.343  -9.115   3.850  0.00  0.00    +0.000 A 
ATOM     21  C   UNL     1       6.660  -7.771   3.677  0.00  0.00    +0.000 A 
BRANCH  20  22
ATOM     22  O   UNL     1       6.779 -10.135   3.047  0.00  0.00    +0.000 OA
BRANCH  22  23
ATOM     23  C   UNL     1       7.123  -9.834   1.673  0.00  0.00    +0.000 C 
ATOM     24  C   UNL     1       5.988  -9.388   0.726  0.00  0.00    +0.000 C 
ATOM     25  N   UNL     1       6.386 -10.409  -0.254  0.00  0.00    +0.000 NA
ATOM     26  C   UNL     1       7.250 -11.059   0.743  0.00  0.00    +0.000 C 
ATOM     27  H   UNL     1       6.885 -10.043  -1.064  0.00  0.00    +0.000 HD
ENDBRANCH  22  23
ENDBRANCH  20  22
ENDBRANCH  15  16
ENDBRANCH   1  15
TORSDOF 7
