REMARK  Name = 
REMARK  6 active torsions:
REMARK  status: ('A' for Active; 'I' for Inactive)
REMARK    1  A    between atoms: C_2  and  C_19
REMARK    2  A    between atoms: N_3  and  C_4
REMARK    3  A    between atoms: C_4  and  C_5
REMARK    4  A    between atoms: C_8  and  C_9
REMARK    5  A    between atoms: C_9  and  O_10
REMARK    6  A    between atoms: O_10  and  C_11
REMARK                            x       y       z     vdW  Elec       q    Type
REMARK                         _______ _______ _______ _____ _____    ______ ____
ROOT
ATOM      1  O   UNL     1       2.622   2.331   0.937  0.00  0.00    +0.000 OA
ATOM      2  C   UNL     1       3.078   1.245   0.589  0.00  0.00    +0.000 C 
ATOM      3  N   UNL     1       2.877   0.099   1.313  0.00  0.00    +0.000 N 
ATOM      4  H   UNL     1       3.412  -0.732   1.082  0.00  0.00    +0.000 HD
ENDROOT
BRANCH   2   5
ATOM      5  C   UNL     1       3.829   1.099  -0.665  0.00  0.00    +0.000 A 
ATOM      6  C   UNL     1       3.667   2.036  -1.676  0.00  0.00    +0.000 A 
ATOM      7  S   UNL     1       4.604   1.713  -3.064  0.00  0.00    +0.000 S 
ATOM      8  C   UNL     1       5.296   0.335  -2.344  0.00  0.00    +0.000 A 
ATOM      9  N   UNL     1       6.234  -0.400  -2.999  0.00  0.00    +0.000 NA
ATOM     10  C   UNL     1       6.706  -1.391  -2.321  0.00  0.00    +0.000 A 
ATOM     11  N   UNL     1       6.314  -1.723  -1.049  0.00  0.00    +0.000 N 
ATOM     12  C   UNL     1       5.313  -1.062  -0.379  0.00  0.00    +0.000 A 
ATOM     13  O   UNL     1       4.888  -1.467   0.699  0.00  0.00    +0.000 OA
ATOM     14  C   UNL     1       4.791   0.102  -1.076  0.00  0.00    +0.000 A 
ATOM     15  H   UNL     1       6.700  -2.531  -0.584  0.00  0.00    +0.000 HD
ENDBRANCH   2   5
BRANCH   3  16
ATOM     16  C   UNL     1       2.199   0.094   2.584  0.00  0.00    +0.000 C 
BRANCH  16  17
ATOM     17  C   UNL     1       3.168   0.180   3.724  0.00  0.00    +0.000 A 
ATOM     18  C   UNL     1       3.579   1.411   4.236  0.00  0.00    +0.000 A 
ATOM     19  C   UNL     1       4.467   1.452   5.308  0.00  0.00    +0.000 A 
ATOM     20  C   UNL     1       4.950   0.254   5.832  0.00  0.00    +0.000 A 
ATOM     21  N   UNL     1       4.585  -0.954   5.332  0.00  0.00    +0.000 NA
ATOM     22  C   UNL     1       3.712  -0.962   4.298  0.00  0.00    +0.000 A 
BRANCH  20  23
ATOM     23  C   UNL     1       5.900   0.269   7.008  0.00  0.00    +0.000 C 
BRANCH  23  24
ATOM     24  O   UNL     1       5.139   0.313   8.213  0.00  0.00    +0.000 OA
BRANCH  24  25
ATOM     25  C   UNL     1       5.927   0.409   9.338  0.00  0.00    +0.000 A 
ATOM     26  N   UNL     1       7.256   0.405   9.220  0.00  0.00    +0.000 NA
ATOM     27  C   UNL     1       7.903   0.540  10.374  0.00  0.00    +0.000 A 
ATOM     28  N   UNL     1       7.346   0.678  11.574  0.00  0.00    +0.000 NA
ATOM     29  C   UNL     1       6.015   0.665  11.554  0.00  0.00    +0.000 A 
ATOM     30  N   UNL     1       5.250   0.536  10.475  0.00  0.00    +0.000 NA
ENDBRANCH  24  25
ENDBRANCH  23  24
ENDBRANCH  20  23
ENDBRANCH  16  17
ENDBRANCH   3  16
TORSDOF 6
