REMARK  Name = 
REMARK  5 active torsions:
REMARK  status: ('A' for Active; 'I' for Inactive)
REMARK    1  A    between atoms: C_1  and  N_2
REMARK    2  A    between atoms: N_2  and  C_18
REMARK    3  A    between atoms: C_3  and  C_5
REMARK    4  A    between atoms: C_5  and  N_6
REMARK    5  A    between atoms: C_11  and  C_12
REMARK                            x       y       z     vdW  Elec       q    Type
REMARK                         _______ _______ _______ _____ _____    ______ ____
ROOT
ATOM      6  N   UNL     1       3.120  -3.336   1.816  0.00  0.00    +0.000 N 
ATOM      7  C   UNL     1       4.394  -3.500   2.305  0.00  0.00    +0.000 A 
ATOM      8  C   UNL     1       4.688  -4.846   2.296  0.00  0.00    +0.000 A 
ATOM      9  C   UNL     1       3.527  -5.533   1.858  0.00  0.00    +0.000 A 
ATOM     10  C   UNL     1       3.186  -6.884   1.674  0.00  0.00    +0.000 A 
ATOM     11  C   UNL     1       1.889  -7.180   1.247  0.00  0.00    +0.000 A 
ATOM     15  C   UNL     1       1.010  -6.120   1.023  0.00  0.00    +0.000 A 
ATOM     16  N   UNL     1       1.293  -4.798   1.168  0.00  0.00    +0.000 NA
ATOM     17  C   UNL     1       2.558  -4.573   1.582  0.00  0.00    +0.000 A 
ENDROOT
BRANCH  11  12
ATOM     12  C   UNL     1       1.398  -8.563   1.029  0.00  0.00    +0.000 C 
ATOM     13  N   UNL     1       2.255  -9.606   1.238  0.00  0.00    +0.000 N 
ATOM     14  O   UNL     1       0.244  -8.776   0.667  0.00  0.00    +0.000 OA
ATOM     24  H   UNL     1       3.217  -9.526   1.525  0.00  0.00    +0.000 HD
ATOM     25  H   UNL     1       1.892 -10.537   1.077  0.00  0.00    +0.000 HD
ENDBRANCH  11  12
BRANCH   6   5
ATOM      5  C   UNL     1       2.416  -2.065   1.665  0.00  0.00    +0.000 C 
BRANCH   5   3
ATOM      1  C   UNL     1       0.878  -0.065   0.108  0.00  0.00    +0.000 C 
ATOM      2  N   UNL     1       2.332  -0.158   0.005  0.00  0.00    +0.000 N 
ATOM      3  C   UNL     1       3.113  -1.069   0.738  0.00  0.00    +0.000 C 
ATOM      4  O   UNL     1       4.346  -1.019   0.681  0.00  0.00    +0.000 OA
BRANCH   2  18
ATOM     18  C   UNL     1       3.064   0.859  -0.804  0.00  0.00    +0.000 C 
ATOM     19  C   UNL     1       3.467   2.095   0.019  0.00  0.00    +0.000 C 
ATOM     20  C   UNL     1       2.349   3.126   0.122  0.00  0.00    +0.000 C 
ATOM     21  N   UNL     1       1.855   3.533  -1.193  0.00  0.00    +0.000 NA
ATOM     22  C   UNL     1       1.364   2.396  -1.969  0.00  0.00    +0.000 C 
ATOM     23  C   UNL     1       2.400   1.284  -2.123  0.00  0.00    +0.000 C 
ATOM     26  H   UNL     1       2.609   3.992  -1.706  0.00  0.00    +0.000 HD
ENDBRANCH   2  18
ENDBRANCH   5   3
ENDBRANCH   6   5
TORSDOF 4
