REMARK  Name = 
REMARK  6 active torsions:
REMARK  status: ('A' for Active; 'I' for Inactive)
REMARK    1  A    between atoms: N_1  and  C_2
REMARK    2  A    between atoms: N_5  and  C_6
REMARK    3  A    between atoms: C_6  and  C_7
REMARK    4  A    between atoms: C_10  and  C_11
REMARK    5  A    between atoms: C_11  and  N_12
REMARK    6  A    between atoms: C_13  and  C_15
REMARK                            x       y       z     vdW  Elec       q    Type
REMARK                         _______ _______ _______ _____ _____    ______ ____
ROOT
ATOM      7  C   UNL     1       5.017   0.262  -3.813  0.00  0.00    +0.000 A 
ATOM      8  C   UNL     1       4.888   1.632  -3.544  0.00  0.00    +0.000 A 
ATOM      9  C   UNL     1       5.259   2.586  -4.492  0.00  0.00    +0.000 A 
ATOM     10  C   UNL     1       5.794   2.189  -5.722  0.00  0.00    +0.000 A 
ATOM     25  C   UNL     1       6.019   0.825  -5.953  0.00  0.00    +0.000 A 
ATOM     26  C   UNL     1       5.617  -0.132  -5.015  0.00  0.00    +0.000 A 
ENDROOT
BRANCH   7   6
ATOM      6  C   UNL     1       4.469  -0.766  -2.837  0.00  0.00    +0.000 C 
BRANCH   6   5
ATOM      2  C   UNL     1       1.495  -0.485  -0.633  0.00  0.00    +0.000 C 
ATOM      3  C   UNL     1       1.912   0.560  -1.671  0.00  0.00    +0.000 C 
ATOM      4  C   UNL     1       2.096  -0.056  -3.061  0.00  0.00    +0.000 C 
ATOM      5  N   UNL     1       3.069  -1.161  -3.090  0.00  0.00    +0.000 NA
ATOM     27  C   UNL     1       2.616  -2.210  -2.156  0.00  0.00    +0.000 C 
ATOM     28  C   UNL     1       2.404  -1.718  -0.717  0.00  0.00    +0.000 C 
BRANCH   2   1
ATOM      1  N   UNL     1       0.089  -0.855  -0.821  0.00  0.00    +0.000 NA
ATOM     29  H   UNL     1      -0.497  -0.024  -0.736  0.00  0.00    +0.000 HD
ATOM     30  H   UNL     1      -0.204  -1.486  -0.076  0.00  0.00    +0.000 HD
ENDBRANCH   2   1
ENDBRANCH   6   5
ENDBRANCH   7   6
BRANCH  10  11
ATOM     11  C   UNL     1       6.109   3.212  -6.777  0.00  0.00    +0.000 C 
BRANCH  11  12
ATOM     12  N   UNL     1       7.433   3.753  -6.619  0.00  0.00    +0.000 N 
ATOM     13  C   UNL     1       7.857   4.790  -7.410  0.00  0.00    +0.000 C 
ATOM     14  O   UNL     1       7.117   5.324  -8.233  0.00  0.00    +0.000 OA
ATOM     31  H   UNL     1       8.109   3.192  -6.111  0.00  0.00    +0.000 HD
BRANCH  13  15
ATOM     15  C   UNL     1       9.224   5.276  -7.188  0.00  0.00    +0.000 A 
ATOM     16  C   UNL     1       9.559   6.566  -7.574  0.00  0.00    +0.000 A 
ATOM     17  S   UNL     1      11.171   6.990  -7.220  0.00  0.00    +0.000 S 
ATOM     18  C   UNL     1      11.492   5.444  -6.584  0.00  0.00    +0.000 A 
ATOM     19  N   UNL     1      12.732   5.124  -6.121  0.00  0.00    +0.000 NA
ATOM     20  C   UNL     1      12.844   3.910  -5.697  0.00  0.00    +0.000 A 
ATOM     21  N   UNL     1      11.828   2.989  -5.683  0.00  0.00    +0.000 N 
ATOM     22  C   UNL     1      10.553   3.277  -6.108  0.00  0.00    +0.000 A 
ATOM     23  O   UNL     1       9.655   2.445  -6.035  0.00  0.00    +0.000 OA
ATOM     24  C   UNL     1      10.380   4.627  -6.613  0.00  0.00    +0.000 A 
ATOM     32  H   UNL     1      11.981   2.057  -5.327  0.00  0.00    +0.000 HD
ENDBRANCH  13  15
ENDBRANCH  11  12
ENDBRANCH  10  11
TORSDOF 6
