REMARK  Name = 
REMARK  3 active torsions:
REMARK  status: ('A' for Active; 'I' for Inactive)
REMARK    1  A    between atoms: C_2  and  C_4
REMARK    2  A    between atoms: N_11  and  C_12
REMARK    3  A    between atoms: C_12  and  C_13
REMARK                            x       y       z     vdW  Elec       q    Type
REMARK                         _______ _______ _______ _____ _____    ______ ____
ROOT
ATOM      4  C   UNL     1       8.331   2.207   0.569  0.00  0.00    +0.000 A 
ATOM      5  C   UNL     1       8.524   2.726   1.846  0.00  0.00    +0.000 A 
ATOM      6  N   UNL     1       7.583   3.348   2.601  0.00  0.00    +0.000 NA
ATOM      7  C   UNL     1       6.374   3.403   2.000  0.00  0.00    +0.000 A 
ATOM      8  C   UNL     1       6.045   2.909   0.739  0.00  0.00    +0.000 A 
ATOM      9  C   UNL     1       4.672   3.201   0.524  0.00  0.00    +0.000 A 
ATOM     10  C   UNL     1       4.213   3.886   1.630  0.00  0.00    +0.000 A 
ATOM     11  N   UNL     1       5.246   3.982   2.533  0.00  0.00    +0.000 N 
ATOM     21  C   UNL     1       7.058   2.280  -0.005  0.00  0.00    +0.000 A 
ENDROOT
BRANCH   4   2
ATOM      1  N   UNL     1       9.463   1.585  -1.493  0.00  0.00    +0.000 N 
ATOM      2  C   UNL     1       9.484   1.594  -0.126  0.00  0.00    +0.000 C 
ATOM      3  O   UNL     1      10.441   1.149   0.493  0.00  0.00    +0.000 OA
ATOM     22  H   UNL     1      10.302   1.256  -1.954  0.00  0.00    +0.000 HD
ATOM     23  H   UNL     1       8.822   2.145  -2.036  0.00  0.00    +0.000 HD
ENDBRANCH   4   2
BRANCH  11  12
ATOM     12  C   UNL     1       5.213   4.721   3.790  0.00  0.00    +0.000 C 
BRANCH  12  13
ATOM     13  C   UNL     1       4.182   4.232   4.795  0.00  0.00    +0.000 C 
ATOM     14  O   UNL     1       3.389   3.325   4.540  0.00  0.00    +0.000 OA
ATOM     15  N   UNL     1       4.160   4.881   6.030  0.00  0.00    +0.000 N 
ATOM     16  C   UNL     1       5.005   6.013   6.430  0.00  0.00    +0.000 C 
ATOM     17  C   UNL     1       5.590   5.810   7.843  0.00  0.00    +0.000 C 
ATOM     18  N   UNL     1       4.577   5.470   8.859  0.00  0.00    +0.000 NA
ATOM     19  C   UNL     1       3.804   4.294   8.411  0.00  0.00    +0.000 C 
ATOM     20  C   UNL     1       3.158   4.494   7.029  0.00  0.00    +0.000 C 
ATOM     24  H   UNL     1       3.936   6.257   8.960  0.00  0.00    +0.000 HD
ENDBRANCH  12  13
ENDBRANCH  11  12
TORSDOF 3
