REMARK  Name = 
REMARK  5 active torsions:
REMARK  status: ('A' for Active; 'I' for Inactive)
REMARK    1  A    between atoms: C_2  and  C_18
REMARK    2  A    between atoms: N_3  and  C_4
REMARK    3  A    between atoms: C_4  and  C_5
REMARK    4  A    between atoms: C_8  and  C_9
REMARK    5  A    between atoms: C_9  and  N_10
REMARK                            x       y       z     vdW  Elec       q    Type
REMARK                         _______ _______ _______ _____ _____    ______ ____
ROOT
ATOM      1  O   UNL     1       1.366   0.934  -2.940  0.00  0.00    +0.000 OA
ATOM      2  C   UNL     1       0.595  -0.020  -2.970  0.00  0.00    +0.000 C 
ATOM      3  N   UNL     1       0.880  -1.219  -2.370  0.00  0.00    +0.000 N 
ATOM     28  H   UNL     1       0.276  -2.014  -2.541  0.00  0.00    +0.000 HD
ENDROOT
BRANCH   2  18
ATOM     18  C   UNL     1      -0.720   0.076  -3.623  0.00  0.00    +0.000 A 
ATOM     19  C   UNL     1      -1.286   1.320  -3.860  0.00  0.00    +0.000 A 
ATOM     20  S   UNL     1      -2.813   1.244  -4.618  0.00  0.00    +0.000 S 
ATOM     21  C   UNL     1      -2.751  -0.457  -4.695  0.00  0.00    +0.000 A 
ATOM     22  N   UNL     1      -3.753  -1.170  -5.269  0.00  0.00    +0.000 NA
ATOM     23  C   UNL     1      -3.553  -2.443  -5.309  0.00  0.00    +0.000 A 
ATOM     24  N   UNL     1      -2.445  -3.075  -4.811  0.00  0.00    +0.000 N 
ATOM     25  C   UNL     1      -1.449  -2.403  -4.144  0.00  0.00    +0.000 A 
ATOM     26  O   UNL     1      -0.548  -3.019  -3.581  0.00  0.00    +0.000 OA
ATOM     27  C   UNL     1      -1.596  -0.958  -4.125  0.00  0.00    +0.000 A 
ATOM     29  H   UNL     1      -2.361  -4.081  -4.840  0.00  0.00    +0.000 HD
ENDBRANCH   2  18
BRANCH   3   4
ATOM      4  C   UNL     1       2.162  -1.528  -1.792  0.00  0.00    +0.000 C 
BRANCH   4   5
ATOM      5  C   UNL     1       3.099  -2.143  -2.802  0.00  0.00    +0.000 A 
ATOM      6  C   UNL     1       3.900  -1.315  -3.599  0.00  0.00    +0.000 A 
ATOM      7  C   UNL     1       4.804  -1.860  -4.514  0.00  0.00    +0.000 A 
ATOM      8  C   UNL     1       4.933  -3.246  -4.661  0.00  0.00    +0.000 A 
ATOM     16  C   UNL     1       4.093  -4.075  -3.898  0.00  0.00    +0.000 A 
ATOM     17  C   UNL     1       3.180  -3.530  -2.984  0.00  0.00    +0.000 A 
BRANCH   8   9
ATOM      9  C   UNL     1       5.891  -3.824  -5.679  0.00  0.00    +0.000 C 
BRANCH   9  10
ATOM     10  N   UNL     1       7.279  -4.074  -5.294  0.00  0.00    +0.000 NA
ATOM     11  C   UNL     1       7.505  -5.033  -4.210  0.00  0.00    +0.000 C 
ATOM     12  C   UNL     1       7.608  -4.401  -2.813  0.00  0.00    +0.000 C 
ATOM     13  O   UNL     1       8.592  -3.360  -2.780  0.00  0.00    +0.000 OA
ATOM     14  C   UNL     1       8.292  -2.341  -3.740  0.00  0.00    +0.000 C 
ATOM     15  C   UNL     1       8.160  -2.910  -5.162  0.00  0.00    +0.000 C 
ENDBRANCH   9  10
ENDBRANCH   8   9
ENDBRANCH   4   5
ENDBRANCH   3   4
TORSDOF 5
