REMARK  Name = 
REMARK  5 active torsions:
REMARK  status: ('A' for Active; 'I' for Inactive)
REMARK    1  A    between atoms: C_2  and  C_4
REMARK    2  A    between atoms: N_8  and  C_9
REMARK    3  A    between atoms: C_9  and  C_10
REMARK    4  A    between atoms: C_14  and  N_15
REMARK    5  A    between atoms: C_19  and  C_20
REMARK                            x       y       z     vdW  Elec       q    Type
REMARK                         _______ _______ _______ _____ _____    ______ ____
ROOT
ATOM     10  C   UNL     1       6.142  -2.454   6.608  0.00  0.00    +0.000 A 
ATOM     11  C   UNL     1       6.685  -1.306   7.193  0.00  0.00    +0.000 A 
ATOM     12  C   UNL     1       7.472  -1.418   8.334  0.00  0.00    +0.000 A 
ATOM     13  C   UNL     1       7.708  -2.674   8.902  0.00  0.00    +0.000 A 
ATOM     14  C   UNL     1       7.186  -3.852   8.345  0.00  0.00    +0.000 A 
ATOM     25  C   UNL     1       6.436  -3.713   7.168  0.00  0.00    +0.000 A 
ENDROOT
BRANCH  14  15
ATOM     15  N   UNL     1       7.396  -5.078   8.951  0.00  0.00    +0.000 N 
ATOM     16  C   UNL     1       7.433  -6.338   8.199  0.00  0.00    +0.000 C 
ATOM     17  C   UNL     1       6.264  -7.252   8.611  0.00  0.00    +0.000 C 
ATOM     18  N   UNL     1       6.203  -7.510  10.061  0.00  0.00    +0.000 NA
ATOM     19  C   UNL     1       6.137  -6.203  10.809  0.00  0.00    +0.000 C 
ATOM     24  C   UNL     1       7.273  -5.217  10.417  0.00  0.00    +0.000 C 
ATOM     31  H   UNL     1       7.054  -7.996  10.350  0.00  0.00    +0.000 HD
BRANCH  19  20
ATOM     20  C   UNL     1       6.118  -6.339  12.356  0.00  0.00    +0.000 C 
ATOM     21  F   UNL     1       6.178  -7.634  12.751  0.00  0.00    +0.000 F 
ATOM     22  F   UNL     1       7.161  -5.708  12.944  0.00  0.00    +0.000 F 
ATOM     23  F   UNL     1       4.986  -5.812  12.879  0.00  0.00    +0.000 F 
ENDBRANCH  19  20
ENDBRANCH  14  15
BRANCH  10   9
ATOM      9  C   UNL     1       5.160  -2.346   5.470  0.00  0.00    +0.000 C 
BRANCH   9   8
ATOM      4  C   UNL     1       3.753  -1.935   0.576  0.00  0.00    +0.000 A 
ATOM      5  C   UNL     1       3.013  -2.016   1.749  0.00  0.00    +0.000 A 
ATOM      6  C   UNL     1       3.685  -2.116   2.968  0.00  0.00    +0.000 A 
ATOM      7  C   UNL     1       5.077  -2.149   3.008  0.00  0.00    +0.000 A 
ATOM      8  N   UNL     1       5.790  -2.246   4.180  0.00  0.00    +0.000 N 
ATOM     26  N   UNL     1       5.802  -2.082   1.873  0.00  0.00    +0.000 NA
ATOM     27  C   UNL     1       5.133  -1.982   0.689  0.00  0.00    +0.000 A 
ATOM     30  H   UNL     1       6.791  -2.328   4.081  0.00  0.00    +0.000 HD
BRANCH   4   2
ATOM      1  N   UNL     1       1.869  -1.303  -0.825  0.00  0.00    +0.000 N 
ATOM      2  C   UNL     1       3.125  -1.842  -0.759  0.00  0.00    +0.000 C 
ATOM      3  O   UNL     1       3.711  -2.207  -1.769  0.00  0.00    +0.000 OA
ATOM     28  H   UNL     1       1.483  -1.167  -1.752  0.00  0.00    +0.000 HD
ATOM     29  H   UNL     1       1.452  -0.783  -0.067  0.00  0.00    +0.000 HD
ENDBRANCH   4   2
ENDBRANCH   9   8
ENDBRANCH  10   9
TORSDOF 5
