REMARK  Name = 
REMARK  4 active torsions:
REMARK  status: ('A' for Active; 'I' for Inactive)
REMARK    1  A    between atoms: C_1  and  N_2
REMARK    2  A    between atoms: C_3  and  C_5
REMARK    3  A    between atoms: C_5  and  N_6
REMARK    4  A    between atoms: C_11  and  C_12
REMARK                            x       y       z     vdW  Elec       q    Type
REMARK                         _______ _______ _______ _____ _____    ______ ____
ROOT
ATOM      6  N   UNL     1       5.042  -1.586   2.200  0.00  0.00    +0.000 N 
ATOM      7  C   UNL     1       5.622  -0.969   3.281  0.00  0.00    +0.000 A 
ATOM      8  C   UNL     1       5.877  -1.934   4.232  0.00  0.00    +0.000 A 
ATOM      9  C   UNL     1       5.447  -3.181   3.706  0.00  0.00    +0.000 A 
ATOM     10  C   UNL     1       5.414  -4.505   4.181  0.00  0.00    +0.000 A 
ATOM     11  C   UNL     1       4.894  -5.489   3.333  0.00  0.00    +0.000 A 
ATOM     15  C   UNL     1       4.466  -5.108   2.061  0.00  0.00    +0.000 A 
ATOM     16  N   UNL     1       4.486  -3.846   1.548  0.00  0.00    +0.000 NA
ATOM     17  C   UNL     1       4.962  -2.938   2.424  0.00  0.00    +0.000 A 
ENDROOT
BRANCH  11  12
ATOM     12  C   UNL     1       4.766  -6.917   3.715  0.00  0.00    +0.000 C 
ATOM     13  N   UNL     1       5.147  -7.300   4.971  0.00  0.00    +0.000 N 
ATOM     14  O   UNL     1       4.322  -7.746   2.929  0.00  0.00    +0.000 OA
ATOM     19  H   UNL     1       5.490  -6.687   5.693  0.00  0.00    +0.000 HD
ATOM     20  H   UNL     1       5.027  -8.278   5.205  0.00  0.00    +0.000 HD
ENDBRANCH  11  12
BRANCH   6   5
ATOM      5  C   UNL     1       4.532  -0.910   1.022  0.00  0.00    +0.000 C 
BRANCH   5   3
ATOM      1  C   UNL     1       7.119  -1.844  -1.592  0.00  0.00    +0.000 C 
ATOM      2  N   UNL     1       6.085  -1.879  -0.591  0.00  0.00    +0.000 N 
ATOM      3  C   UNL     1       5.599  -0.717  -0.031  0.00  0.00    +0.000 C 
ATOM      4  O   UNL     1       5.971   0.401  -0.381  0.00  0.00    +0.000 OA
ATOM     18  H   UNL     1       5.762  -2.776  -0.234  0.00  0.00    +0.000 HD
ENDBRANCH   5   3
ENDBRANCH   6   5
TORSDOF 3
