REMARK  Name = 
REMARK  8 active torsions:
REMARK  status: ('A' for Active; 'I' for Inactive)
REMARK    1  A    between atoms: C_1  and  C_2
REMARK    2  A    between atoms: C_2  and  N_3
REMARK    3  A    between atoms: N_3  and  C_4
REMARK    4  A    between atoms: N_3  and  C_25
REMARK    5  A    between atoms: C_4  and  C_5
REMARK    6  A    between atoms: C_8  and  C_9
REMARK    7  A    between atoms: C_9  and  N_10
REMARK    8  A    between atoms: C_11  and  C_13
REMARK                            x       y       z     vdW  Elec       q    Type
REMARK                         _______ _______ _______ _____ _____    ______ ____
ROOT
ATOM      5  C   UNL     1       0.908  -2.472  -0.382  0.00  0.00    +0.000 A 
ATOM      6  C   UNL     1       0.329  -3.689   0.016  0.00  0.00    +0.000 A 
ATOM      7  C   UNL     1      -1.072  -3.823   0.134  0.00  0.00    +0.000 A 
ATOM      8  C   UNL     1      -1.909  -2.717  -0.063  0.00  0.00    +0.000 A 
ATOM     23  C   UNL     1      -1.322  -1.494  -0.399  0.00  0.00    +0.000 A 
ATOM     24  C   UNL     1       0.049  -1.395  -0.635  0.00  0.00    +0.000 A 
ENDROOT
BRANCH   5   4
ATOM      4  C   UNL     1       2.418  -2.263  -0.418  0.00  0.00    +0.000 C 
BRANCH   4   3
ATOM      3  N   UNL     1       3.023  -1.709  -1.659  0.00  0.00    +0.000 NA
BRANCH   3  25
ATOM     25  C   UNL     1       4.508  -1.404  -1.461  0.00  0.00    +0.000 C 
ATOM     26  C   UNL     1       4.805  -0.487  -0.240  0.00  0.00    +0.000 C 
ATOM     27  C   UNL     1       6.251   0.011  -0.135  0.00  0.00    +0.000 C 
ATOM     28  C   UNL     1       6.708   0.675  -1.422  0.00  0.00    +0.000 C 
ATOM     29  C   UNL     1       6.597  -0.316  -2.563  0.00  0.00    +0.000 C 
ATOM     30  C   UNL     1       5.157  -0.790  -2.741  0.00  0.00    +0.000 C 
ENDBRANCH   3  25
BRANCH   3   2
ATOM      1  C   UNL     1       1.496  -2.973  -3.388  0.00  0.00    +0.000 C 
ATOM      2  C   UNL     1       2.869  -2.590  -2.843  0.00  0.00    +0.000 C 
ENDBRANCH   3   2
ENDBRANCH   4   3
ENDBRANCH   5   4
BRANCH   8   9
ATOM      9  C   UNL     1      -3.416  -2.779   0.040  0.00  0.00    +0.000 C 
BRANCH   9  10
ATOM     10  N   UNL     1      -3.869  -2.569   1.389  0.00  0.00    +0.000 N 
ATOM     11  C   UNL     1      -5.198  -2.537   1.711  0.00  0.00    +0.000 C 
ATOM     12  O   UNL     1      -6.094  -2.693   0.885  0.00  0.00    +0.000 OA
ATOM     31  H   UNL     1      -3.216  -2.096   2.005  0.00  0.00    +0.000 HD
BRANCH  11  13
ATOM     13  C   UNL     1      -5.484  -2.385   3.138  0.00  0.00    +0.000 A 
ATOM     14  C   UNL     1      -6.658  -2.900   3.676  0.00  0.00    +0.000 A 
ATOM     15  S   UNL     1      -6.770  -2.703   5.368  0.00  0.00    +0.000 S 
ATOM     16  C   UNL     1      -5.280  -1.884   5.431  0.00  0.00    +0.000 A 
ATOM     17  N   UNL     1      -4.776  -1.412   6.612  0.00  0.00    +0.000 NA
ATOM     18  C   UNL     1      -3.641  -0.828   6.506  0.00  0.00    +0.000 A 
ATOM     19  N   UNL     1      -2.945  -0.648   5.348  0.00  0.00    +0.000 N 
ATOM     20  C   UNL     1      -3.411  -1.090   4.128  0.00  0.00    +0.000 A 
ATOM     21  O   UNL     1      -2.766  -0.914   3.096  0.00  0.00    +0.000 OA
ATOM     22  C   UNL     1      -4.703  -1.779   4.181  0.00  0.00    +0.000 A 
ATOM     32  H   UNL     1      -2.062  -0.171   5.329  0.00  0.00    +0.000 HD
ENDBRANCH  11  13
ENDBRANCH   9  10
ENDBRANCH   8   9
TORSDOF 7
