REMARK  Name = 
REMARK  4 active torsions:
REMARK  status: ('A' for Active; 'I' for Inactive)
REMARK    1  A    between atoms: C_2  and  C_4
REMARK    2  A    between atoms: C_11  and  C_12
REMARK    3  A    between atoms: N_15  and  C_16
REMARK    4  A    between atoms: C_16  and  C_17
REMARK                            x       y       z     vdW  Elec       q    Type
REMARK                         _______ _______ _______ _____ _____    ______ ____
ROOT
ATOM      4  C   UNL     1       3.285  -0.229   1.179  0.00  0.00    +0.000 A 
ATOM      5  C   UNL     1       2.873  -1.176   2.112  0.00  0.00    +0.000 A 
ATOM      6  N   UNL     1       3.499  -1.468   3.288  0.00  0.00    +0.000 NA
ATOM      7  C   UNL     1       4.596  -0.707   3.507  0.00  0.00    +0.000 A 
ATOM      8  C   UNL     1       5.093   0.278   2.659  0.00  0.00    +0.000 A 
ATOM      9  C   UNL     1       4.416   0.540   1.458  0.00  0.00    +0.000 A 
ATOM     10  C   UNL     1       6.250   0.807   3.265  0.00  0.00    +0.000 A 
ATOM     11  C   UNL     1       6.443   0.153   4.465  0.00  0.00    +0.000 A 
ATOM     15  N   UNL     1       5.429  -0.778   4.609  0.00  0.00    +0.000 N 
ENDROOT
BRANCH   4   2
ATOM      1  N   UNL     1       3.203   0.422  -1.158  0.00  0.00    +0.000 N 
ATOM      2  C   UNL     1       2.522  -0.050  -0.071  0.00  0.00    +0.000 C 
ATOM      3  O   UNL     1       1.334  -0.345  -0.143  0.00  0.00    +0.000 OA
ATOM     25  H   UNL     1       2.694   0.466  -2.034  0.00  0.00    +0.000 HD
ATOM     26  H   UNL     1       4.211   0.477  -1.199  0.00  0.00    +0.000 HD
ENDBRANCH   4   2
BRANCH  11  12
ATOM     12  C   UNL     1       7.568   0.470   5.448  0.00  0.00    +0.000 C 
ATOM     13  C   UNL     1       8.061   1.909   5.503  0.00  0.00    +0.000 C 
ATOM     14  C   UNL     1       8.933   0.857   4.914  0.00  0.00    +0.000 C 
ENDBRANCH  11  12
BRANCH  15  16
ATOM     16  C   UNL     1       5.299  -1.795   5.654  0.00  0.00    +0.000 C 
BRANCH  16  17
ATOM     17  C   UNL     1       4.969  -1.258   7.038  0.00  0.00    +0.000 C 
ATOM     18  O   UNL     1       4.943  -0.051   7.283  0.00  0.00    +0.000 OA
ATOM     19  N   UNL     1       4.706  -2.193   8.042  0.00  0.00    +0.000 N 
ATOM     20  C   UNL     1       4.754  -3.657   7.925  0.00  0.00    +0.000 C 
ATOM     21  C   UNL     1       3.404  -4.299   8.318  0.00  0.00    +0.000 C 
ATOM     22  N   UNL     1       2.872  -3.832   9.614  0.00  0.00    +0.000 NA
ATOM     23  C   UNL     1       2.830  -2.354   9.632  0.00  0.00    +0.000 C 
ATOM     24  C   UNL     1       4.203  -1.723   9.336  0.00  0.00    +0.000 C 
ATOM     27  H   UNL     1       3.495  -4.143  10.359  0.00  0.00    +0.000 HD
ENDBRANCH  16  17
ENDBRANCH  15  16
TORSDOF 4
