REMARK  Name = 
REMARK  7 active torsions:
REMARK  status: ('A' for Active; 'I' for Inactive)
REMARK    1  A    between atoms: C_2  and  C_20
REMARK    2  A    between atoms: N_3  and  C_4
REMARK    3  A    between atoms: C_4  and  C_5
REMARK    4  A    between atoms: C_8  and  C_9
REMARK    5  A    between atoms: C_9  and  N_10
REMARK    6  A    between atoms: N_10  and  C_11
REMARK    7  A    between atoms: C_11  and  C_12
REMARK                            x       y       z     vdW  Elec       q    Type
REMARK                         _______ _______ _______ _____ _____    ______ ____
ROOT
ATOM      4  C   UNL     1       2.306   0.661  -2.367  0.00  0.00    +0.000 C 
ENDROOT
BRANCH   4   5
ATOM      5  C   UNL     1       3.279   1.016  -3.461  0.00  0.00    +0.000 A 
ATOM      6  C   UNL     1       3.412   2.345  -3.878  0.00  0.00    +0.000 A 
ATOM      7  C   UNL     1       4.320   2.688  -4.881  0.00  0.00    +0.000 A 
ATOM      8  C   UNL     1       5.112   1.708  -5.496  0.00  0.00    +0.000 A 
ATOM     18  C   UNL     1       4.958   0.373  -5.098  0.00  0.00    +0.000 A 
ATOM     19  C   UNL     1       4.044   0.029  -4.096  0.00  0.00    +0.000 A 
BRANCH   8   9
ATOM      9  C   UNL     1       6.094   2.081  -6.584  0.00  0.00    +0.000 C 
BRANCH   9  10
ATOM     10  N   UNL     1       7.094   3.025  -6.093  0.00  0.00    +0.000 NA
ATOM     31  H   UNL     1       7.586   2.613  -5.301  0.00  0.00    +0.000 HD
BRANCH  10  11
ATOM     11  C   UNL     1       8.063   3.368  -7.131  0.00  0.00    +0.000 C 
BRANCH  11  12
ATOM     12  C   UNL     1       9.088   4.349  -6.612  0.00  0.00    +0.000 A 
ATOM     13  C   UNL     1      10.451   4.023  -6.583  0.00  0.00    +0.000 A 
ATOM     14  C   UNL     1      11.391   4.947  -6.122  0.00  0.00    +0.000 A 
ATOM     15  C   UNL     1      10.980   6.205  -5.686  0.00  0.00    +0.000 A 
ATOM     16  C   UNL     1       9.627   6.540  -5.702  0.00  0.00    +0.000 A 
ATOM     17  C   UNL     1       8.687   5.618  -6.162  0.00  0.00    +0.000 A 
ENDBRANCH  11  12
ENDBRANCH  10  11
ENDBRANCH   9  10
ENDBRANCH   8   9
ENDBRANCH   4   5
BRANCH   4   3
ATOM      1  O   UNL     1       0.167   2.484  -2.637  0.00  0.00    +0.000 OA
ATOM      2  C   UNL     1       0.034   1.336  -3.048  0.00  0.00    +0.000 C 
ATOM      3  N   UNL     1       0.999   0.374  -2.896  0.00  0.00    +0.000 N 
ATOM     30  H   UNL     1       0.920  -0.488  -3.422  0.00  0.00    +0.000 HD
BRANCH   2  20
ATOM     20  C   UNL     1      -1.212   0.890  -3.684  0.00  0.00    +0.000 A 
ATOM     21  C   UNL     1      -2.407   1.535  -3.402  0.00  0.00    +0.000 A 
ATOM     22  S   UNL     1      -3.749   0.867  -4.220  0.00  0.00    +0.000 S 
ATOM     23  C   UNL     1      -2.768  -0.280  -5.008  0.00  0.00    +0.000 A 
ATOM     24  N   UNL     1      -3.297  -1.168  -5.889  0.00  0.00    +0.000 NA
ATOM     25  C   UNL     1      -2.429  -1.953  -6.442  0.00  0.00    +0.000 A 
ATOM     26  N   UNL     1      -1.085  -1.934  -6.183  0.00  0.00    +0.000 N 
ATOM     27  C   UNL     1      -0.518  -1.108  -5.243  0.00  0.00    +0.000 A 
ATOM     28  O   UNL     1       0.663  -1.228  -4.936  0.00  0.00    +0.000 OA
ATOM     29  C   UNL     1      -1.442  -0.173  -4.631  0.00  0.00    +0.000 A 
ATOM     32  H   UNL     1      -0.465  -2.599  -6.621  0.00  0.00    +0.000 HD
ENDBRANCH   2  20
ENDBRANCH   4   3
TORSDOF 7
