REMARK  Name = 
REMARK  15 active torsions:
REMARK  status: ('A' for Active; 'I' for Inactive)
REMARK    1  A    between atoms: C_1  and  C_2
REMARK    2  A    between atoms: C_2  and  C_3
REMARK    3  A    between atoms: C_3  and  C_4
REMARK    4  A    between atoms: C_4  and  C_5
REMARK    5  A    between atoms: C_5  and  C_6
REMARK    6  A    between atoms: C_6  and  C_7
REMARK    7  A    between atoms: C_7  and  C_8
REMARK    8  A    between atoms: C_8  and  C_9
REMARK    9  A    between atoms: C_9  and  C_10
REMARK   10  A    between atoms: C_10  and  N_11
REMARK   11  A    between atoms: N_11  and  C_12
REMARK   12  A    between atoms: C_12  and  C_13
REMARK   13  A    between atoms: C_16  and  C_17
REMARK   14  A    between atoms: C_17  and  N_18
REMARK   15  A    between atoms: C_19  and  C_21
REMARK                            x       y       z     vdW  Elec       q    Type
REMARK                         _______ _______ _______ _____ _____    ______ ____
ROOT
ATOM     13  C   UNL     1      13.221  -0.341  -6.641  0.00  0.00    +0.000 A 
ATOM     14  C   UNL     1      12.863  -1.531  -7.290  0.00  0.00    +0.000 A 
ATOM     15  C   UNL     1      13.311  -2.764  -6.814  0.00  0.00    +0.000 A 
ATOM     16  C   UNL     1      14.123  -2.831  -5.675  0.00  0.00    +0.000 A 
ATOM     31  C   UNL     1      14.511  -1.640  -5.047  0.00  0.00    +0.000 A 
ATOM     32  C   UNL     1      14.055  -0.406  -5.518  0.00  0.00    +0.000 A 
ENDROOT
BRANCH  13  12
ATOM     12  C   UNL     1      12.656   0.981  -7.108  0.00  0.00    +0.000 C 
BRANCH  12  11
ATOM     11  N   UNL     1      11.191   1.012  -7.088  0.00  0.00    +0.000 NA
ATOM     33  H   UNL     1      10.872   1.905  -7.459  0.00  0.00    +0.000 HD
BRANCH  11  10
ATOM     10  C   UNL     1      10.677   0.844  -5.730  0.00  0.00    +0.000 C 
BRANCH  10   9
ATOM      9  C   UNL     1       9.155   0.854  -5.746  0.00  0.00    +0.000 C 
BRANCH   9   8
ATOM      8  C   UNL     1       8.633   0.641  -4.330  0.00  0.00    +0.000 C 
BRANCH   8   7
ATOM      7  C   UNL     1       7.114   0.644  -4.310  0.00  0.00    +0.000 C 
BRANCH   7   6
ATOM      6  C   UNL     1       6.605   0.443  -2.890  0.00  0.00    +0.000 C 
BRANCH   6   5
ATOM      5  C   UNL     1       5.084   0.452  -2.869  0.00  0.00    +0.000 C 
BRANCH   5   4
ATOM      4  C   UNL     1       4.565   0.256  -1.451  0.00  0.00    +0.000 C 
BRANCH   4   3
ATOM      3  C   UNL     1       3.042   0.266  -1.435  0.00  0.00    +0.000 C 
BRANCH   3   2
ATOM      1  C   UNL     1       0.992   0.080  -0.006  0.00  0.00    +0.000 C 
ATOM      2  C   UNL     1       2.510   0.070  -0.020  0.00  0.00    +0.000 C 
ENDBRANCH   3   2
ENDBRANCH   4   3
ENDBRANCH   5   4
ENDBRANCH   6   5
ENDBRANCH   7   6
ENDBRANCH   8   7
ENDBRANCH   9   8
ENDBRANCH  10   9
ENDBRANCH  11  10
ENDBRANCH  12  11
ENDBRANCH  13  12
BRANCH  16  17
ATOM     17  C   UNL     1      14.585  -4.160  -5.139  0.00  0.00    +0.000 C 
BRANCH  17  18
ATOM     18  N   UNL     1      15.798  -4.592  -5.781  0.00  0.00    +0.000 N 
ATOM     19  C   UNL     1      16.386  -5.785  -5.448  0.00  0.00    +0.000 C 
ATOM     20  O   UNL     1      15.876  -6.563  -4.645  0.00  0.00    +0.000 OA
ATOM     34  H   UNL     1      16.332  -3.890  -6.282  0.00  0.00    +0.000 HD
BRANCH  19  21
ATOM     21  C   UNL     1      17.630  -6.116  -6.148  0.00  0.00    +0.000 A 
ATOM     22  C   UNL     1      18.000  -7.445  -6.309  0.00  0.00    +0.000 A 
ATOM     23  S   UNL     1      19.455  -7.648  -7.177  0.00  0.00    +0.000 S 
ATOM     24  C   UNL     1      19.663  -5.965  -7.327  0.00  0.00    +0.000 A 
ATOM     25  N   UNL     1      20.751  -5.449  -7.961  0.00  0.00    +0.000 NA
ATOM     26  C   UNL     1      20.798  -4.159  -7.973  0.00  0.00    +0.000 A 
ATOM     27  N   UNL     1      19.853  -3.337  -7.414  0.00  0.00    +0.000 N 
ATOM     28  C   UNL     1      18.721  -3.813  -6.797  0.00  0.00    +0.000 A 
ATOM     29  O   UNL     1      17.865  -3.047  -6.361  0.00  0.00    +0.000 OA
ATOM     30  C   UNL     1      18.629  -5.259  -6.740  0.00  0.00    +0.000 A 
ATOM     35  H   UNL     1      19.941  -2.333  -7.472  0.00  0.00    +0.000 HD
ENDBRANCH  19  21
ENDBRANCH  17  18
ENDBRANCH  16  17
TORSDOF 14
