REMARK  Name = 
REMARK  17 active torsions:
REMARK  status: ('A' for Active; 'I' for Inactive)
REMARK    1  A    between atoms: C_1  and  C_2
REMARK    2  A    between atoms: C_2  and  C_3
REMARK    3  A    between atoms: C_3  and  C_4
REMARK    4  A    between atoms: C_4  and  C_5
REMARK    5  A    between atoms: C_5  and  C_6
REMARK    6  A    between atoms: C_6  and  C_7
REMARK    7  A    between atoms: C_7  and  C_8
REMARK    8  A    between atoms: C_8  and  C_9
REMARK    9  A    between atoms: C_9  and  C_10
REMARK   10  A    between atoms: C_10  and  C_11
REMARK   11  A    between atoms: C_11  and  C_12
REMARK   12  A    between atoms: C_12  and  N_13
REMARK   13  A    between atoms: N_13  and  C_14
REMARK   14  A    between atoms: C_14  and  C_15
REMARK   15  A    between atoms: C_18  and  C_19
REMARK   16  A    between atoms: C_19  and  N_20
REMARK   17  A    between atoms: C_21  and  C_23
REMARK                            x       y       z     vdW  Elec       q    Type
REMARK                         _______ _______ _______ _____ _____    ______ ____
ROOT
ATOM     15  C   UNL     1      13.229   9.273   5.204  0.00  0.00    +0.000 A 
ATOM     16  C   UNL     1      12.339  10.277   5.583  0.00  0.00    +0.000 A 
ATOM     17  C   UNL     1      12.806  11.445   6.180  0.00  0.00    +0.000 A 
ATOM     18  C   UNL     1      14.181  11.650   6.382  0.00  0.00    +0.000 A 
ATOM     33  C   UNL     1      15.068  10.641   5.980  0.00  0.00    +0.000 A 
ATOM     34  C   UNL     1      14.601   9.471   5.376  0.00  0.00    +0.000 A 
ENDROOT
BRANCH  15  14
ATOM     14  C   UNL     1      12.687   7.975   4.691  0.00  0.00    +0.000 C 
BRANCH  14  13
ATOM     13  N   UNL     1      13.138   7.763   3.317  0.00  0.00    +0.000 NA
ATOM     35  H   UNL     1      12.831   8.554   2.751  0.00  0.00    +0.000 HD
BRANCH  13  12
ATOM     12  C   UNL     1      12.608   6.522   2.780  0.00  0.00    +0.000 C 
BRANCH  12  11
ATOM     11  C   UNL     1      11.085   6.548   2.772  0.00  0.00    +0.000 C 
BRANCH  11  10
ATOM     10  C   UNL     1      10.557   5.247   2.211  0.00  0.00    +0.000 C 
BRANCH  10   9
ATOM      9  C   UNL     1       9.040   5.252   2.205  0.00  0.00    +0.000 C 
BRANCH   9   8
ATOM      8  C   UNL     1       8.528   3.940   1.635  0.00  0.00    +0.000 C 
BRANCH   8   7
ATOM      7  C   UNL     1       7.009   3.931   1.622  0.00  0.00    +0.000 C 
BRANCH   7   6
ATOM      6  C   UNL     1       6.500   2.619   1.049  0.00  0.00    +0.000 C 
BRANCH   6   5
ATOM      5  C   UNL     1       4.980   2.610   1.035  0.00  0.00    +0.000 C 
BRANCH   5   4
ATOM      4  C   UNL     1       4.466   1.297   0.465  0.00  0.00    +0.000 C 
BRANCH   4   3
ATOM      3  C   UNL     1       2.945   1.290   0.452  0.00  0.00    +0.000 C 
BRANCH   3   2
ATOM      1  C   UNL     1       0.898  -0.021  -0.126  0.00  0.00    +0.000 C 
ATOM      2  C   UNL     1       2.414  -0.019  -0.115  0.00  0.00    +0.000 C 
ENDBRANCH   3   2
ENDBRANCH   4   3
ENDBRANCH   5   4
ENDBRANCH   6   5
ENDBRANCH   7   6
ENDBRANCH   8   7
ENDBRANCH   9   8
ENDBRANCH  10   9
ENDBRANCH  11  10
ENDBRANCH  12  11
ENDBRANCH  13  12
ENDBRANCH  14  13
ENDBRANCH  15  14
BRANCH  18  19
ATOM     19  C   UNL     1      14.721  12.925   6.992  0.00  0.00    +0.000 C 
BRANCH  19  20
ATOM     20  N   UNL     1      14.838  12.882   8.426  0.00  0.00    +0.000 N 
ATOM     21  C   UNL     1      15.314  13.928   9.168  0.00  0.00    +0.000 C 
ATOM     22  O   UNL     1      15.685  14.991   8.679  0.00  0.00    +0.000 OA
ATOM     36  H   UNL     1      14.714  11.991   8.886  0.00  0.00    +0.000 HD
BRANCH  21  23
ATOM     23  C   UNL     1      15.263  13.714  10.617  0.00  0.00    +0.000 A 
ATOM     24  C   UNL     1      15.102  14.787  11.483  0.00  0.00    +0.000 A 
ATOM     25  S   UNL     1      15.008  14.323  13.123  0.00  0.00    +0.000 S 
ATOM     26  C   UNL     1      15.211  12.680  12.731  0.00  0.00    +0.000 A 
ATOM     27  N   UNL     1      15.244  11.720  13.699  0.00  0.00    +0.000 NA
ATOM     28  C   UNL     1      15.421  10.523  13.257  0.00  0.00    +0.000 A 
ATOM     29  N   UNL     1      15.568  10.184  11.932  0.00  0.00    +0.000 N 
ATOM     30  C   UNL     1      15.526  11.116  10.915  0.00  0.00    +0.000 A 
ATOM     31  O   UNL     1      15.617  10.780   9.752  0.00  0.00    +0.000 OA
ATOM     32  C   UNL     1      15.335  12.484  11.373  0.00  0.00    +0.000 A 
ATOM     37  H   UNL     1      15.690   9.227  11.653  0.00  0.00    +0.000 HD
ENDBRANCH  21  23
ENDBRANCH  19  20
ENDBRANCH  18  19
TORSDOF 16
