REMARK  Name = 
REMARK  6 active torsions:
REMARK  status: ('A' for Active; 'I' for Inactive)
REMARK    1  A    between atoms: C_2  and  C_19
REMARK    2  A    between atoms: N_3  and  C_4
REMARK    3  A    between atoms: C_4  and  C_5
REMARK    4  A    between atoms: C_8  and  C_9
REMARK    5  A    between atoms: C_9  and  N_10
REMARK    6  A    between atoms: N_10  and  C_11
REMARK                            x       y       z     vdW  Elec       q    Type
REMARK                         _______ _______ _______ _____ _____    ______ ____
ROOT
ATOM      4  C   UNL     1       2.148   2.259   1.179  0.00  0.00    +0.000 C 
ENDROOT
BRANCH   4   5
ATOM      5  C   UNL     1       3.070   3.331   1.696  0.00  0.00    +0.000 A 
ATOM      6  C   UNL     1       2.814   4.680   1.415  0.00  0.00    +0.000 A 
ATOM      7  C   UNL     1       3.648   5.681   1.917  0.00  0.00    +0.000 A 
ATOM      8  C   UNL     1       4.761   5.354   2.702  0.00  0.00    +0.000 A 
ATOM     17  C   UNL     1       5.032   4.001   2.957  0.00  0.00    +0.000 A 
ATOM     18  C   UNL     1       4.200   2.999   2.452  0.00  0.00    +0.000 A 
BRANCH   8   9
ATOM      9  C   UNL     1       5.673   6.431   3.242  0.00  0.00    +0.000 C 
BRANCH   9  10
ATOM     10  N   UNL     1       4.979   7.314   4.180  0.00  0.00    +0.000 NA
ATOM     30  H   UNL     1       4.563   6.748   4.920  0.00  0.00    +0.000 HD
BRANCH  10  11
ATOM     11  C   UNL     1       5.845   8.352   4.759  0.00  0.00    +0.000 C 
ATOM     12  C   UNL     1       7.005   7.770   5.589  0.00  0.00    +0.000 C 
ATOM     13  C   UNL     1       7.814   8.856   6.293  0.00  0.00    +0.000 C 
ATOM     14  C   UNL     1       6.927   9.737   7.161  0.00  0.00    +0.000 C 
ATOM     15  C   UNL     1       5.796  10.349   6.343  0.00  0.00    +0.000 C 
ATOM     16  C   UNL     1       4.972   9.276   5.629  0.00  0.00    +0.000 C 
ENDBRANCH  10  11
ENDBRANCH   9  10
ENDBRANCH   8   9
ENDBRANCH   4   5
BRANCH   4   3
ATOM      1  O   UNL     1       1.011   3.161  -1.225  0.00  0.00    +0.000 OA
ATOM      2  C   UNL     1       1.933   2.350  -1.273  0.00  0.00    +0.000 C 
ATOM      3  N   UNL     1       2.517   1.834  -0.147  0.00  0.00    +0.000 N 
ATOM     29  H   UNL     1       3.381   1.310  -0.228  0.00  0.00    +0.000 HD
BRANCH   2  19
ATOM     19  C   UNL     1       2.426   1.834  -2.558  0.00  0.00    +0.000 A 
ATOM     20  C   UNL     1       1.613   1.912  -3.681  0.00  0.00    +0.000 A 
ATOM     21  S   UNL     1       2.327   1.267  -5.088  0.00  0.00    +0.000 S 
ATOM     22  C   UNL     1       3.767   0.902  -4.258  0.00  0.00    +0.000 A 
ATOM     23  N   UNL     1       4.832   0.356  -4.905  0.00  0.00    +0.000 NA
ATOM     24  C   UNL     1       5.869   0.172  -4.160  0.00  0.00    +0.000 A 
ATOM     25  N   UNL     1       5.938   0.469  -2.824  0.00  0.00    +0.000 N 
ATOM     26  C   UNL     1       4.864   0.944  -2.113  0.00  0.00    +0.000 A 
ATOM     27  O   UNL     1       4.915   1.064  -0.893  0.00  0.00    +0.000 OA
ATOM     28  C   UNL     1       3.689   1.224  -2.915  0.00  0.00    +0.000 A 
ATOM     31  H   UNL     1       6.771   0.267  -2.294  0.00  0.00    +0.000 HD
ENDBRANCH   2  19
ENDBRANCH   4   3
TORSDOF 6
