REMARK  Name = 
REMARK  9 active torsions:
REMARK  status: ('A' for Active; 'I' for Inactive)
REMARK    1  A    between atoms: C_1  and  C_2
REMARK    2  A    between atoms: C_2  and  N_3
REMARK    3  A    between atoms: N_3  and  C_4
REMARK    4  A    between atoms: N_3  and  C_11
REMARK    5  A    between atoms: C_4  and  C_5
REMARK    6  A    between atoms: C_11  and  C_12
REMARK    7  A    between atoms: C_15  and  C_16
REMARK    8  A    between atoms: C_16  and  N_17
REMARK    9  A    between atoms: C_18  and  C_20
REMARK                            x       y       z     vdW  Elec       q    Type
REMARK                         _______ _______ _______ _____ _____    ______ ____
ROOT
ATOM     12  C   UNL     1       4.975  -1.150  -2.479  0.00  0.00    +0.000 A 
ATOM     13  C   UNL     1       5.670  -0.359  -3.405  0.00  0.00    +0.000 A 
ATOM     14  C   UNL     1       6.063  -0.888  -4.636  0.00  0.00    +0.000 A 
ATOM     15  C   UNL     1       5.761  -2.215  -4.966  0.00  0.00    +0.000 A 
ATOM     30  C   UNL     1       5.138  -3.027  -4.010  0.00  0.00    +0.000 A 
ATOM     31  C   UNL     1       4.744  -2.500  -2.779  0.00  0.00    +0.000 A 
ENDROOT
BRANCH  15  16
ATOM     16  C   UNL     1       6.128  -2.779  -6.314  0.00  0.00    +0.000 C 
BRANCH  16  17
ATOM     17  N   UNL     1       7.445  -3.352  -6.275  0.00  0.00    +0.000 N 
ATOM     18  C   UNL     1       8.042  -3.874  -7.394  0.00  0.00    +0.000 C 
ATOM     19  O   UNL     1       7.516  -3.828  -8.501  0.00  0.00    +0.000 OA
ATOM     32  H   UNL     1       7.792  -3.611  -5.360  0.00  0.00    +0.000 HD
BRANCH  18  20
ATOM     20  C   UNL     1       9.388  -4.425  -7.197  0.00  0.00    +0.000 A 
ATOM     21  C   UNL     1      10.261  -4.521  -8.271  0.00  0.00    +0.000 A 
ATOM     22  S   UNL     1      11.813  -5.085  -7.839  0.00  0.00    +0.000 S 
ATOM     23  C   UNL     1      11.351  -5.277  -6.212  0.00  0.00    +0.000 A 
ATOM     24  N   UNL     1      12.232  -5.736  -5.282  0.00  0.00    +0.000 NA
ATOM     25  C   UNL     1      11.739  -5.858  -4.094  0.00  0.00    +0.000 A 
ATOM     26  N   UNL     1      10.443  -5.569  -3.752  0.00  0.00    +0.000 N 
ATOM     27  C   UNL     1       9.522  -5.093  -4.654  0.00  0.00    +0.000 A 
ATOM     28  O   UNL     1       8.374  -4.834  -4.310  0.00  0.00    +0.000 OA
ATOM     29  C   UNL     1      10.032  -4.920  -6.001  0.00  0.00    +0.000 A 
ATOM     33  H   UNL     1      10.116  -5.690  -2.805  0.00  0.00    +0.000 HD
ENDBRANCH  18  20
ENDBRANCH  16  17
ENDBRANCH  15  16
BRANCH  12  11
ATOM     11  C   UNL     1       4.406  -0.532  -1.216  0.00  0.00    +0.000 C 
BRANCH  11   3
ATOM      3  N   UNL     1       3.403   0.528  -1.493  0.00  0.00    +0.000 NA
BRANCH   3   2
ATOM      1  C   UNL     1       1.187   0.954  -2.664  0.00  0.00    +0.000 C 
ATOM      2  C   UNL     1       2.263  -0.045  -2.249  0.00  0.00    +0.000 C 
ENDBRANCH   3   2
BRANCH   3   4
ATOM      4  C   UNL     1       2.945   1.143  -0.232  0.00  0.00    +0.000 C 
BRANCH   4   5
ATOM      5  C   UNL     1       4.015   1.860   0.571  0.00  0.00    +0.000 A 
ATOM      6  C   UNL     1       4.788   2.881  -0.003  0.00  0.00    +0.000 A 
ATOM      7  C   UNL     1       5.691   3.611   0.774  0.00  0.00    +0.000 A 
ATOM      8  C   UNL     1       5.832   3.330   2.132  0.00  0.00    +0.000 A 
ATOM      9  C   UNL     1       5.087   2.304   2.710  0.00  0.00    +0.000 A 
ATOM     10  C   UNL     1       4.185   1.572   1.934  0.00  0.00    +0.000 A 
ENDBRANCH   4   5
ENDBRANCH   3   4
ENDBRANCH  11   3
ENDBRANCH  12  11
TORSDOF 8
