REMARK  Name = 
REMARK  15 active torsions:
REMARK  status: ('A' for Active; 'I' for Inactive)
REMARK    1  A    between atoms: C_1  and  C_2
REMARK    2  A    between atoms: C_2  and  C_3
REMARK    3  A    between atoms: C_3  and  C_4
REMARK    4  A    between atoms: C_4  and  C_5
REMARK    5  A    between atoms: C_5  and  C_6
REMARK    6  A    between atoms: C_6  and  C_7
REMARK    7  A    between atoms: C_7  and  C_8
REMARK    8  A    between atoms: C_8  and  N_9
REMARK    9  A    between atoms: N_9  and  C_10
REMARK   10  A    between atoms: C_10  and  C_11
REMARK   11  A    between atoms: C_14  and  C_15
REMARK   12  A    between atoms: C_15  and  N_16
REMARK   13  A    between atoms: C_17  and  C_19
REMARK   14  A    between atoms: C_26  and  O_27
REMARK   15  A    between atoms: O_27  and  C_28
REMARK                            x       y       z     vdW  Elec       q    Type
REMARK                         _______ _______ _______ _____ _____    ______ ____
ROOT
ATOM     11  C   UNL     1      10.995  -1.969   6.740  0.00  0.00    +0.000 A 
ATOM     12  C   UNL     1      11.329  -0.964   7.659  0.00  0.00    +0.000 A 
ATOM     13  C   UNL     1      11.687  -1.278   8.970  0.00  0.00    +0.000 A 
ATOM     14  C   UNL     1      11.708  -2.612   9.404  0.00  0.00    +0.000 A 
ATOM     30  C   UNL     1      11.353  -3.612   8.486  0.00  0.00    +0.000 A 
ATOM     31  C   UNL     1      11.018  -3.301   7.163  0.00  0.00    +0.000 A 
ENDROOT
BRANCH  11  10
ATOM     10  C   UNL     1      10.581  -1.609   5.334  0.00  0.00    +0.000 C 
BRANCH  10   9
ATOM      9  N   UNL     1      11.625  -0.842   4.661  0.00  0.00    +0.000 NA
ATOM     32  H   UNL     1      11.838  -0.007   5.202  0.00  0.00    +0.000 HD
BRANCH   9   8
ATOM      8  C   UNL     1      11.201  -0.451   3.325  0.00  0.00    +0.000 C 
BRANCH   8   7
ATOM      7  C   UNL     1      12.315   0.360   2.675  0.00  0.00    +0.000 C 
BRANCH   7   6
ATOM      6  C   UNL     1      11.896   0.766   1.269  0.00  0.00    +0.000 C 
BRANCH   6   5
ATOM      5  C   UNL     1      12.990   1.575   0.589  0.00  0.00    +0.000 C 
BRANCH   5   4
ATOM      4  C   UNL     1      12.555   1.973  -0.816  0.00  0.00    +0.000 C 
BRANCH   4   3
ATOM      3  C   UNL     1      13.647   2.782  -1.503  0.00  0.00    +0.000 C 
BRANCH   3   2
ATOM      1  C   UNL     1      14.314   3.993  -3.590  0.00  0.00    +0.000 C 
ATOM      2  C   UNL     1      13.222   3.186  -2.910  0.00  0.00    +0.000 C 
ENDBRANCH   3   2
ENDBRANCH   4   3
ENDBRANCH   5   4
ENDBRANCH   6   5
ENDBRANCH   7   6
ENDBRANCH   8   7
ENDBRANCH   9   8
ENDBRANCH  10   9
ENDBRANCH  11  10
BRANCH  14  15
ATOM     15  C   UNL     1      12.108  -2.971  10.813  0.00  0.00    +0.000 C 
BRANCH  15  16
ATOM     16  N   UNL     1      10.988  -2.975  11.721  0.00  0.00    +0.000 N 
ATOM     17  C   UNL     1      11.128  -3.289  13.056  0.00  0.00    +0.000 C 
ATOM     18  O   UNL     1      12.211  -3.525  13.564  0.00  0.00    +0.000 OA
ATOM     33  H   UNL     1      10.073  -3.068  11.305  0.00  0.00    +0.000 HD
BRANCH  17  19
ATOM     19  C   UNL     1       9.886  -3.270  13.850  0.00  0.00    +0.000 A 
ATOM     20  C   UNL     1       9.928  -2.966  15.205  0.00  0.00    +0.000 A 
ATOM     21  S   UNL     1       8.394  -2.991  15.952  0.00  0.00    +0.000 S 
ATOM     22  C   UNL     1       7.634  -3.436  14.497  0.00  0.00    +0.000 A 
ATOM     23  N   UNL     1       6.306  -3.647  14.460  0.00  0.00    +0.000 NA
ATOM     24  C   UNL     1       5.875  -3.991  13.244  0.00  0.00    +0.000 A 
ATOM     25  N   UNL     1       6.602  -4.129  12.127  0.00  0.00    +0.000 NA
ATOM     26  C   UNL     1       7.925  -3.913  12.220  0.00  0.00    +0.000 A 
ATOM     29  C   UNL     1       8.520  -3.545  13.436  0.00  0.00    +0.000 A 
BRANCH  26  27
ATOM     27  O   UNL     1       8.722  -4.052  11.108  0.00  0.00    +0.000 OA
ATOM     28  C   UNL     1       8.048  -4.380   9.906  0.00  0.00    +0.000 C 
ENDBRANCH  26  27
ENDBRANCH  17  19
ENDBRANCH  15  16
ENDBRANCH  14  15
TORSDOF 13
