REMARK  Name = 
REMARK  13 active torsions:
REMARK  status: ('A' for Active; 'I' for Inactive)
REMARK    1  A    between atoms: C_1  and  C_2
REMARK    2  A    between atoms: C_2  and  C_3
REMARK    3  A    between atoms: C_3  and  C_4
REMARK    4  A    between atoms: C_4  and  C_5
REMARK    5  A    between atoms: C_5  and  C_6
REMARK    6  A    between atoms: C_6  and  C_7
REMARK    7  A    between atoms: C_7  and  C_8
REMARK    8  A    between atoms: C_8  and  N_9
REMARK    9  A    between atoms: N_9  and  C_10
REMARK   10  A    between atoms: C_10  and  C_11
REMARK   11  A    between atoms: C_14  and  C_15
REMARK   12  A    between atoms: C_15  and  N_16
REMARK   13  A    between atoms: C_17  and  C_19
REMARK                            x       y       z     vdW  Elec       q    Type
REMARK                         _______ _______ _______ _____ _____    ______ ____
ROOT
ATOM     11  C   UNL     1      11.023   7.122   0.603  0.00  0.00    +0.000 A 
ATOM     12  C   UNL     1      10.711   7.858   1.754  0.00  0.00    +0.000 A 
ATOM     13  C   UNL     1      11.240   9.133   1.949  0.00  0.00    +0.000 A 
ATOM     14  C   UNL     1      12.094   9.702   0.997  0.00  0.00    +0.000 A 
ATOM     29  C   UNL     1      12.441   8.947  -0.133  0.00  0.00    +0.000 A 
ATOM     30  C   UNL     1      11.878   7.686  -0.350  0.00  0.00    +0.000 A 
ENDROOT
BRANCH  11  10
ATOM     10  C   UNL     1      10.496   5.720   0.442  0.00  0.00    +0.000 C 
BRANCH  10   9
ATOM      9  N   UNL     1       9.038   5.698   0.441  0.00  0.00    +0.000 NA
ATOM     31  H   UNL     1       8.690   6.112   1.303  0.00  0.00    +0.000 HD
BRANCH   9   8
ATOM      8  C   UNL     1       8.554   4.331   0.336  0.00  0.00    +0.000 C 
BRANCH   8   7
ATOM      7  C   UNL     1       7.033   4.346   0.362  0.00  0.00    +0.000 C 
BRANCH   7   6
ATOM      6  C   UNL     1       6.508   2.925   0.237  0.00  0.00    +0.000 C 
BRANCH   6   5
ATOM      5  C   UNL     1       4.989   2.916   0.253  0.00  0.00    +0.000 C 
BRANCH   5   4
ATOM      4  C   UNL     1       4.476   1.489   0.128  0.00  0.00    +0.000 C 
BRANCH   4   3
ATOM      3  C   UNL     1       2.956   1.476   0.142  0.00  0.00    +0.000 C 
BRANCH   3   2
ATOM      1  C   UNL     1       0.914   0.043   0.030  0.00  0.00    +0.000 C 
ATOM      2  C   UNL     1       2.431   0.052   0.015  0.00  0.00    +0.000 C 
ENDBRANCH   3   2
ENDBRANCH   4   3
ENDBRANCH   5   4
ENDBRANCH   6   5
ENDBRANCH   7   6
ENDBRANCH   8   7
ENDBRANCH   9   8
ENDBRANCH  10   9
ENDBRANCH  11  10
BRANCH  14  15
ATOM     15  C   UNL     1      12.586  11.119   1.160  0.00  0.00    +0.000 C 
BRANCH  15  16
ATOM     16  N   UNL     1      13.795  11.211   1.938  0.00  0.00    +0.000 N 
ATOM     17  C   UNL     1      14.406  12.421   2.184  0.00  0.00    +0.000 C 
ATOM     18  O   UNL     1      13.941  13.487   1.784  0.00  0.00    +0.000 OA
ATOM     32  H   UNL     1      14.284  10.347   2.138  0.00  0.00    +0.000 HD
BRANCH  17  19
ATOM     19  C   UNL     1      15.628  12.365   2.994  0.00  0.00    +0.000 A 
ATOM     20  C   UNL     1      15.984  13.439   3.797  0.00  0.00    +0.000 A 
ATOM     21  S   UNL     1      17.427  13.189   4.675  0.00  0.00    +0.000 S 
ATOM     22  C   UNL     1      17.646  11.648   3.985  0.00  0.00    +0.000 A 
ATOM     23  N   UNL     1      18.727  10.883   4.300  0.00  0.00    +0.000 NA
ATOM     24  C   UNL     1      18.754   9.737   3.708  0.00  0.00    +0.000 A 
ATOM     25  N   UNL     1      17.806   9.282   2.834  0.00  0.00    +0.000 N 
ATOM     26  C   UNL     1      16.700  10.022   2.479  0.00  0.00    +0.000 A 
ATOM     27  O   UNL     1      15.860   9.577   1.708  0.00  0.00    +0.000 OA
ATOM     28  C   UNL     1      16.617  11.320   3.118  0.00  0.00    +0.000 A 
ATOM     33  H   UNL     1      17.870   8.367   2.415  0.00  0.00    +0.000 HD
ENDBRANCH  17  19
ENDBRANCH  15  16
ENDBRANCH  14  15
TORSDOF 12
