REMARK  Name = 
REMARK  9 active torsions:
REMARK  status: ('A' for Active; 'I' for Inactive)
REMARK    1  A    between atoms: C_1  and  C_2
REMARK    2  A    between atoms: C_2  and  N_3
REMARK    3  A    between atoms: N_3  and  C_4
REMARK    4  A    between atoms: N_3  and  C_6
REMARK    5  A    between atoms: C_4  and  C_5
REMARK    6  A    between atoms: C_6  and  C_7
REMARK    7  A    between atoms: C_10  and  C_11
REMARK    8  A    between atoms: C_11  and  N_12
REMARK    9  A    between atoms: C_13  and  C_15
REMARK                            x       y       z     vdW  Elec       q    Type
REMARK                         _______ _______ _______ _____ _____    ______ ____
ROOT
ATOM     12  N   UNL     1       7.227  -6.225  -4.027  0.00  0.00    +0.000 N 
ATOM     13  C   UNL     1       7.698  -7.282  -4.754  0.00  0.00    +0.000 C 
ATOM     14  O   UNL     1       7.194  -7.649  -5.818  0.00  0.00    +0.000 OA
ATOM     27  H   UNL     1       7.407  -6.246  -3.025  0.00  0.00    +0.000 HD
ENDROOT
BRANCH  13  15
ATOM     15  C   UNL     1       8.901  -7.920  -4.213  0.00  0.00    +0.000 A 
ATOM     16  C   UNL     1       9.826  -8.527  -5.051  0.00  0.00    +0.000 A 
ATOM     17  S   UNL     1      11.182  -9.151  -4.218  0.00  0.00    +0.000 S 
ATOM     18  C   UNL     1      10.551  -8.670  -2.719  0.00  0.00    +0.000 A 
ATOM     19  N   UNL     1      11.216  -8.925  -1.554  0.00  0.00    +0.000 NA
ATOM     20  C   UNL     1      10.595  -8.543  -0.483  0.00  0.00    +0.000 A 
ATOM     21  N   UNL     1       9.369  -7.915  -0.467  0.00  0.00    +0.000 N 
ATOM     22  C   UNL     1       8.709  -7.568  -1.608  0.00  0.00    +0.000 A 
ATOM     23  O   UNL     1       7.676  -6.902  -1.572  0.00  0.00    +0.000 OA
ATOM     24  C   UNL     1       9.341  -8.024  -2.842  0.00  0.00    +0.000 A 
ATOM     28  H   UNL     1       8.959  -7.612   0.397  0.00  0.00    +0.000 HD
ENDBRANCH  13  15
BRANCH  12  11
ATOM     11  C   UNL     1       6.094  -5.450  -4.437  0.00  0.00    +0.000 C 
BRANCH  11  10
ATOM      7  C   UNL     1       4.899  -2.270  -1.732  0.00  0.00    +0.000 A 
ATOM      8  C   UNL     1       5.845  -2.018  -2.722  0.00  0.00    +0.000 A 
ATOM      9  C   UNL     1       6.267  -3.039  -3.589  0.00  0.00    +0.000 A 
ATOM     10  C   UNL     1       5.742  -4.338  -3.474  0.00  0.00    +0.000 A 
ATOM     25  C   UNL     1       4.834  -4.595  -2.443  0.00  0.00    +0.000 A 
ATOM     26  C   UNL     1       4.410  -3.580  -1.581  0.00  0.00    +0.000 A 
BRANCH   7   6
ATOM      6  C   UNL     1       4.324  -1.144  -0.893  0.00  0.00    +0.000 C 
BRANCH   6   3
ATOM      3  N   UNL     1       3.626  -0.105  -1.689  0.00  0.00    +0.000 NA
BRANCH   3   4
ATOM      4  C   UNL     1       3.210   1.023  -0.832  0.00  0.00    +0.000 C 
ATOM      5  C   UNL     1       2.249   0.677   0.300  0.00  0.00    +0.000 C 
ENDBRANCH   3   4
BRANCH   3   2
ATOM      1  C   UNL     1       1.714   0.169  -3.349  0.00  0.00    +0.000 C 
ATOM      2  C   UNL     1       2.515  -0.738  -2.426  0.00  0.00    +0.000 C 
ENDBRANCH   3   2
ENDBRANCH   6   3
ENDBRANCH   7   6
ENDBRANCH  11  10
ENDBRANCH  12  11
TORSDOF 7
