REMARK  Name = 
REMARK  17 active torsions:
REMARK  status: ('A' for Active; 'I' for Inactive)
REMARK    1  A    between atoms: C_1  and  C_2
REMARK    2  A    between atoms: C_2  and  C_3
REMARK    3  A    between atoms: C_3  and  C_4
REMARK    4  A    between atoms: C_4  and  C_5
REMARK    5  A    between atoms: C_5  and  C_6
REMARK    6  A    between atoms: C_6  and  C_7
REMARK    7  A    between atoms: C_7  and  C_8
REMARK    8  A    between atoms: C_8  and  N_9
REMARK    9  A    between atoms: N_9  and  C_10
REMARK   10  A    between atoms: C_10  and  C_11
REMARK   11  A    between atoms: C_14  and  C_15
REMARK   12  A    between atoms: C_15  and  N_16
REMARK   13  A    between atoms: C_17  and  C_19
REMARK   14  A    between atoms: C_26  and  O_27
REMARK   15  A    between atoms: O_27  and  C_28
REMARK   16  A    between atoms: C_28  and  C_29
REMARK   17  A    between atoms: C_32  and  N_33
REMARK                            x       y       z     vdW  Elec       q    Type
REMARK                         _______ _______ _______ _____ _____    ______ ____
ROOT
ATOM     16  N   UNL     1      12.873  -7.409  -9.208  0.00  0.00    +0.000 N 
ATOM     17  C   UNL     1      12.847  -7.854 -10.501  0.00  0.00    +0.000 C 
ATOM     18  O   UNL     1      12.054  -8.698 -10.901  0.00  0.00    +0.000 OA
ATOM     42  H   UNL     1      13.680  -6.885  -8.905  0.00  0.00    +0.000 HD
ENDROOT
BRANCH  17  19
ATOM     19  C   UNL     1      13.795  -7.185 -11.399  0.00  0.00    +0.000 A 
ATOM     20  C   UNL     1      13.515  -7.087 -12.754  0.00  0.00    +0.000 A 
ATOM     21  S   UNL     1      14.684  -6.196 -13.618  0.00  0.00    +0.000 S 
ATOM     22  C   UNL     1      15.619  -5.964 -12.217  0.00  0.00    +0.000 A 
ATOM     23  N   UNL     1      16.767  -5.266 -12.279  0.00  0.00    +0.000 NA
ATOM     24  C   UNL     1      17.381  -5.178 -11.098  0.00  0.00    +0.000 A 
ATOM     25  N   UNL     1      16.986  -5.707  -9.932  0.00  0.00    +0.000 NA
ATOM     26  C   UNL     1      15.840  -6.409  -9.927  0.00  0.00    +0.000 A 
ATOM     38  C   UNL     1      15.067  -6.550 -11.088  0.00  0.00    +0.000 A 
BRANCH  26  27
ATOM     27  O   UNL     1      15.372  -6.896  -8.725  0.00  0.00    +0.000 OA
BRANCH  27  28
ATOM     28  C   UNL     1      16.373  -7.358  -7.821  0.00  0.00    +0.000 C 
BRANCH  28  29
ATOM     29  C   UNL     1      16.738  -8.796  -8.105  0.00  0.00    +0.000 A 
ATOM     30  C   UNL     1      17.778  -9.086  -8.996  0.00  0.00    +0.000 A 
ATOM     31  C   UNL     1      18.154 -10.407  -9.249  0.00  0.00    +0.000 A 
ATOM     32  C   UNL     1      17.507 -11.475  -8.613  0.00  0.00    +0.000 A 
ATOM     36  C   UNL     1      16.437 -11.181  -7.758  0.00  0.00    +0.000 A 
ATOM     37  C   UNL     1      16.050  -9.858  -7.507  0.00  0.00    +0.000 A 
BRANCH  32  33
ATOM     33  N   UNL     1      17.835 -12.826  -8.825  0.00  0.00    +0.000 NA
ATOM     34  N   UNL     1      19.051 -13.052  -8.989  0.00  0.00    +0.000 NA
ATOM     35  N   UNL     1      20.158 -13.267  -9.150  0.00  0.00    +0.000 NA
ENDBRANCH  32  33
ENDBRANCH  28  29
ENDBRANCH  27  28
ENDBRANCH  26  27
ENDBRANCH  17  19
BRANCH  16  15
ATOM     15  C   UNL     1      12.035  -7.923  -8.162  0.00  0.00    +0.000 C 
BRANCH  15  14
ATOM     11  C   UNL     1      10.954  -5.032  -5.114  0.00  0.00    +0.000 A 
ATOM     12  C   UNL     1      11.812  -4.652  -6.154  0.00  0.00    +0.000 A 
ATOM     13  C   UNL     1      12.180  -5.568  -7.140  0.00  0.00    +0.000 A 
ATOM     14  C   UNL     1      11.723  -6.894  -7.098  0.00  0.00    +0.000 A 
ATOM     39  C   UNL     1      10.902  -7.279  -6.029  0.00  0.00    +0.000 A 
ATOM     40  C   UNL     1      10.515  -6.358  -5.054  0.00  0.00    +0.000 A 
BRANCH  11  10
ATOM     10  C   UNL     1      10.489  -4.021  -4.098  0.00  0.00    +0.000 C 
BRANCH  10   9
ATOM      9  N   UNL     1       9.726  -2.959  -4.747  0.00  0.00    +0.000 NA
ATOM     41  H   UNL     1      10.301  -2.511  -5.457  0.00  0.00    +0.000 HD
BRANCH   9   8
ATOM      8  C   UNL     1       9.281  -1.965  -3.782  0.00  0.00    +0.000 C 
BRANCH   8   7
ATOM      7  C   UNL     1       8.535  -0.864  -4.527  0.00  0.00    +0.000 C 
BRANCH   7   6
ATOM      6  C   UNL     1       8.042   0.191  -3.546  0.00  0.00    +0.000 C 
BRANCH   6   5
ATOM      5  C   UNL     1       7.290   1.297  -4.274  0.00  0.00    +0.000 C 
BRANCH   5   4
ATOM      4  C   UNL     1       6.801   2.346  -3.283  0.00  0.00    +0.000 C 
BRANCH   4   3
ATOM      3  C   UNL     1       6.045   3.456  -4.003  0.00  0.00    +0.000 C 
BRANCH   3   2
ATOM      1  C   UNL     1       4.800   5.615  -3.731  0.00  0.00    +0.000 C 
ATOM      2  C   UNL     1       5.553   4.509  -3.015  0.00  0.00    +0.000 C 
ENDBRANCH   3   2
ENDBRANCH   4   3
ENDBRANCH   5   4
ENDBRANCH   6   5
ENDBRANCH   7   6
ENDBRANCH   8   7
ENDBRANCH   9   8
ENDBRANCH  10   9
ENDBRANCH  11  10
ENDBRANCH  15  14
ENDBRANCH  16  15
TORSDOF 16
