REMARK  Name = 
REMARK  9 active torsions:
REMARK  status: ('A' for Active; 'I' for Inactive)
REMARK    1  A    between atoms: C_1  and  O_2
REMARK    2  A    between atoms: O_2  and  C_3
REMARK    3  A    between atoms: C_10  and  C_11
REMARK    4  A    between atoms: N_13  and  C_14
REMARK    5  A    between atoms: C_14  and  C_15
REMARK    6  A    between atoms: C_18  and  C_19
REMARK    7  A    between atoms: C_19  and  N_20
REMARK    8  A    between atoms: N_20  and  C_21
REMARK    9  A    between atoms: C_21  and  C_22
REMARK                            x       y       z     vdW  Elec       q    Type
REMARK                         _______ _______ _______ _____ _____    ______ ____
ROOT
ATOM     14  C   UNL     1       2.888   2.289   2.507  0.00  0.00    +0.000 C 
ENDROOT
BRANCH  14  15
ATOM     15  C   UNL     1       1.724   2.903   1.773  0.00  0.00    +0.000 A 
ATOM     16  C   UNL     1       0.624   2.120   1.399  0.00  0.00    +0.000 A 
ATOM     17  C   UNL     1      -0.429   2.676   0.664  0.00  0.00    +0.000 A 
ATOM     18  C   UNL     1      -0.405   4.025   0.283  0.00  0.00    +0.000 A 
ATOM     28  C   UNL     1       0.689   4.811   0.673  0.00  0.00    +0.000 A 
ATOM     29  C   UNL     1       1.743   4.254   1.405  0.00  0.00    +0.000 A 
BRANCH  18  19
ATOM     19  C   UNL     1      -1.509   4.607  -0.573  0.00  0.00    +0.000 C 
BRANCH  19  20
ATOM     20  N   UNL     1      -2.811   4.511   0.081  0.00  0.00    +0.000 NA
ATOM     32  H   UNL     1      -2.778   5.007   0.971  0.00  0.00    +0.000 HD
BRANCH  20  21
ATOM     21  C   UNL     1      -3.866   5.097  -0.747  0.00  0.00    +0.000 C 
BRANCH  21  22
ATOM     22  C   UNL     1      -5.216   4.985  -0.075  0.00  0.00    +0.000 A 
ATOM     23  C   UNL     1      -5.975   6.126   0.213  0.00  0.00    +0.000 A 
ATOM     24  C   UNL     1      -7.231   6.012   0.818  0.00  0.00    +0.000 A 
ATOM     25  C   UNL     1      -7.740   4.753   1.137  0.00  0.00    +0.000 A 
ATOM     26  C   UNL     1      -6.996   3.610   0.853  0.00  0.00    +0.000 A 
ATOM     27  C   UNL     1      -5.743   3.725   0.249  0.00  0.00    +0.000 A 
ENDBRANCH  21  22
ENDBRANCH  20  21
ENDBRANCH  19  20
ENDBRANCH  18  19
ENDBRANCH  14  15
BRANCH  14  13
ATOM     11  C   UNL     1       4.978   1.092   2.029  0.00  0.00    +0.000 C 
ATOM     12  O   UNL     1       5.207   0.977   3.232  0.00  0.00    +0.000 OA
ATOM     13  N   UNL     1       3.854   1.734   1.586  0.00  0.00    +0.000 N 
ATOM     31  H   UNL     1       3.683   1.845   0.595  0.00  0.00    +0.000 HD
BRANCH  11  10
ATOM      3  C   UNL     1       4.968   0.986  -1.424  0.00  0.00    +0.000 A 
ATOM      4  N   UNL     1       5.203   0.768  -2.735  0.00  0.00    +0.000 NA
ATOM      5  C   UNL     1       6.308   0.099  -3.077  0.00  0.00    +0.000 A 
ATOM      6  N   UNL     1       7.230  -0.392  -2.255  0.00  0.00    +0.000 NA
ATOM      7  C   UNL     1       6.955  -0.163  -0.960  0.00  0.00    +0.000 A 
ATOM      8  S   UNL     1       8.030  -0.721   0.229  0.00  0.00    +0.000 S 
ATOM      9  C   UNL     1       7.053  -0.101   1.471  0.00  0.00    +0.000 A 
ATOM     10  C   UNL     1       5.901   0.538   1.022  0.00  0.00    +0.000 A 
ATOM     30  C   UNL     1       5.851   0.508  -0.439  0.00  0.00    +0.000 A 
BRANCH   3   2
ATOM      1  C   UNL     1       3.055   2.125  -2.181  0.00  0.00    +0.000 C 
ATOM      2  O   UNL     1       3.847   1.709  -1.070  0.00  0.00    +0.000 OA
ENDBRANCH   3   2
ENDBRANCH  11  10
ENDBRANCH  14  13
TORSDOF 8
