REMARK  Name = 
REMARK  11 active torsions:
REMARK  status: ('A' for Active; 'I' for Inactive)
REMARK    1  A    between atoms: N_2  and  C_3
REMARK    2  A    between atoms: C_3  and  C_4
REMARK    3  A    between atoms: C_4  and  C_5
REMARK    4  A    between atoms: C_5  and  C_6
REMARK    5  A    between atoms: C_6  and  C_7
REMARK    6  A    between atoms: C_7  and  N_8
REMARK    7  A    between atoms: N_8  and  C_9
REMARK    8  A    between atoms: C_9  and  C_10
REMARK    9  A    between atoms: C_13  and  C_14
REMARK   10  A    between atoms: C_14  and  N_15
REMARK   11  A    between atoms: C_16  and  C_18
REMARK                            x       y       z     vdW  Elec       q    Type
REMARK                         _______ _______ _______ _____ _____    ______ ____
ROOT
ATOM      1 CL   UNL     1       0.707   0.541  -2.651  0.00  0.00    +0.000 Cl
ATOM      2  H   UNL     1       0.777  -0.117  -1.445  0.00  0.00    +0.000 HD
ENDROOT
TORSDOF 0
REMARK  Name = 
REMARK  11 active torsions:
REMARK  status: ('A' for Active; 'I' for Inactive)
REMARK    1  A    between atoms: N_2  and  C_3
REMARK    2  A    between atoms: C_3  and  C_4
REMARK    3  A    between atoms: C_4  and  C_5
REMARK    4  A    between atoms: C_5  and  C_6
REMARK    5  A    between atoms: C_6  and  C_7
REMARK    6  A    between atoms: C_7  and  N_8
REMARK    7  A    between atoms: N_8  and  C_9
REMARK    8  A    between atoms: C_9  and  C_10
REMARK    9  A    between atoms: C_13  and  C_14
REMARK   10  A    between atoms: C_14  and  N_15
REMARK   11  A    between atoms: C_16  and  C_18
REMARK                            x       y       z     vdW  Elec       q    Type
REMARK                         _______ _______ _______ _____ _____    ______ ____
ROOT
ATOM      9  C   UNL     1       8.921  -5.540  -1.307  0.00  0.00    +0.000 A 
ATOM     10  C   UNL     1      10.235  -5.705  -1.774  0.00  0.00    +0.000 A 
ATOM     11  C   UNL     1      10.713  -6.978  -2.097  0.00  0.00    +0.000 A 
ATOM     12  C   UNL     1       9.881  -8.102  -1.956  0.00  0.00    +0.000 A 
ATOM     27  C   UNL     1       8.576  -7.937  -1.473  0.00  0.00    +0.000 A 
ATOM     28  C   UNL     1       8.096  -6.666  -1.151  0.00  0.00    +0.000 A 
ENDROOT
BRANCH   9   8
ATOM      8  C   UNL     1       8.383  -4.162  -1.020  0.00  0.00    +0.000 C 
BRANCH   8   7
ATOM      7  N   UNL     1       8.429  -3.328  -2.228  0.00  0.00    +0.000 NA
ATOM     31  H   UNL     1       8.076  -2.372  -1.982  0.00  0.00    +0.000 HD
BRANCH   7   6
ATOM      6  C   UNL     1       7.607  -3.875  -3.318  0.00  0.00    +0.000 C 
BRANCH   6   5
ATOM      5  C   UNL     1       7.737  -3.004  -4.567  0.00  0.00    +0.000 C 
BRANCH   5   4
ATOM      4  C   UNL     1       9.198  -2.935  -5.026  0.00  0.00    +0.000 C 
BRANCH   4   3
ATOM      3  C   UNL     1       9.346  -2.070  -6.275  0.00  0.00    +0.000 C 
BRANCH   3   2
ATOM      2  C   UNL     1      10.807  -2.044  -6.732  0.00  0.00    +0.000 C 
BRANCH   2   1
ATOM      1  N   UNL     1      10.970  -1.201  -7.915  0.00  0.00    +0.000 NA
ATOM     29  H   UNL     1      11.793  -1.555  -8.456  0.00  0.00    +0.000 HD
ATOM     30  H   UNL     1      10.136  -1.264  -8.541  0.00  0.00    +0.000 HD
ENDBRANCH   2   1
ENDBRANCH   3   2
ENDBRANCH   4   3
ENDBRANCH   5   4
ENDBRANCH   6   5
ENDBRANCH   7   6
ENDBRANCH   8   7
ENDBRANCH   9   8
BRANCH  12  13
ATOM     13  C   UNL     1      10.371  -9.477  -2.334  0.00  0.00    +0.000 C 
BRANCH  13  14
ATOM     14  N   UNL     1      10.985 -10.140  -1.199  0.00  0.00    +0.000 N 
ATOM     15  C   UNL     1      11.548 -11.377  -1.314  0.00  0.00    +0.000 C 
ATOM     16  O   UNL     1      11.533 -11.942  -2.392  0.00  0.00    +0.000 OA
ATOM     32  H   UNL     1      11.028  -9.638  -0.301  0.00  0.00    +0.000 HD
BRANCH  15  17
ATOM     17  C   UNL     1      12.197 -12.029  -0.136  0.00  0.00    +0.000 A 
ATOM     18  C   UNL     1      11.872 -11.665   1.182  0.00  0.00    +0.000 A 
ATOM     19  S   UNL     1      12.766 -12.576   2.283  0.00  0.00    +0.000 S 
ATOM     20  C   UNL     1      13.590 -13.428   1.107  0.00  0.00    +0.000 A 
ATOM     21  N   UNL     1      14.541 -14.363   1.337  0.00  0.00    +0.000 NA
ATOM     22  C   UNL     1      15.155 -14.951   0.274  0.00  0.00    +0.000 A 
ATOM     23  N   UNL     1      14.809 -14.617  -0.997  0.00  0.00    +0.000 N 
ATOM     24  C   UNL     1      13.835 -13.673  -1.252  0.00  0.00    +0.000 A 
ATOM     25  O   UNL     1      13.576 -13.385  -2.404  0.00  0.00    +0.000 OA
ATOM     26  C   UNL     1      13.197 -13.048  -0.166  0.00  0.00    +0.000 A 
ATOM     33  H   UNL     1      15.300 -15.079  -1.797  0.00  0.00    +0.000 HD
ENDBRANCH  15  17
ENDBRANCH  13  14
ENDBRANCH  12  13
TORSDOF 11
