REMARK  Name = 
REMARK  7 active torsions:
REMARK  status: ('A' for Active; 'I' for Inactive)
REMARK    1  A    between atoms: C_1  and  N_2
REMARK    2  A    between atoms: C_5  and  N_6
REMARK    3  A    between atoms: N_6  and  C_7
REMARK    4  A    between atoms: C_8  and  C_10
REMARK    5  A    between atoms: C_10  and  N_11
REMARK    6  A    between atoms: C_12  and  C_13
REMARK    7  A    between atoms: C_19  and  C_20
REMARK                            x       y       z     vdW  Elec       q    Type
REMARK                         _______ _______ _______ _____ _____    ______ ____
ROOT
ATOM     11  N   UNL     1       2.974  -2.449  -4.541  0.00  0.00    +0.000 N 
ATOM     12  C   UNL     1       3.004  -2.804  -5.879  0.00  0.00    +0.000 A 
ATOM     16  C   UNL     1       3.737  -3.972  -5.971  0.00  0.00    +0.000 A 
ATOM     17  C   UNL     1       4.159  -4.350  -4.679  0.00  0.00    +0.000 A 
ATOM     18  C   UNL     1       4.916  -5.401  -4.146  0.00  0.00    +0.000 A 
ATOM     19  C   UNL     1       5.123  -5.426  -2.763  0.00  0.00    +0.000 A 
ATOM     23  C   UNL     1       4.557  -4.429  -1.984  0.00  0.00    +0.000 A 
ATOM     24  N   UNL     1       3.813  -3.404  -2.462  0.00  0.00    +0.000 NA
ATOM     25  C   UNL     1       3.656  -3.393  -3.802  0.00  0.00    +0.000 A 
ENDROOT
BRANCH  19  20
ATOM     20  C   UNL     1       5.904  -6.490  -2.094  0.00  0.00    +0.000 C 
ATOM     21  N   UNL     1       6.866  -7.125  -2.834  0.00  0.00    +0.000 N 
ATOM     22  O   UNL     1       5.716  -6.780  -0.919  0.00  0.00    +0.000 OA
ATOM     28  H   UNL     1       7.188  -6.779  -3.726  0.00  0.00    +0.000 HD
ATOM     29  H   UNL     1       7.446  -7.794  -2.348  0.00  0.00    +0.000 HD
ENDBRANCH  19  20
BRANCH  12  13
ATOM     13  C   UNL     1       2.454  -2.169  -7.154  0.00  0.00    +0.000 C 
ATOM     14  C   UNL     1       2.278  -0.677  -7.284  0.00  0.00    +0.000 C 
ATOM     15  C   UNL     1       1.076  -1.559  -7.237  0.00  0.00    +0.000 C 
ENDBRANCH  12  13
BRANCH  11  10
ATOM     10  C   UNL     1       2.349  -1.244  -4.001  0.00  0.00    +0.000 C 
BRANCH  10   8
ATOM      6  N   UNL     1       1.488  -1.552  -1.659  0.00  0.00    +0.000 N 
ATOM      7  C   UNL     1       0.456  -2.423  -2.230  0.00  0.00    +0.000 C 
ATOM      8  C   UNL     1       2.497  -1.049  -2.505  0.00  0.00    +0.000 C 
ATOM      9  O   UNL     1       3.473  -0.404  -2.113  0.00  0.00    +0.000 OA
BRANCH   6   5
ATOM      1  C   UNL     1      -0.322   2.110   0.361  0.00  0.00    +0.000 C 
ATOM      2  N   UNL     1       0.391   0.889   0.743  0.00  0.00    +0.000 NA
ATOM      3  C   UNL     1      -0.380  -0.290   0.326  0.00  0.00    +0.000 C 
ATOM      4  C   UNL     1       0.378  -1.588   0.615  0.00  0.00    +0.000 C 
ATOM      5  C   UNL     1       1.704  -1.590  -0.171  0.00  0.00    +0.000 C 
ATOM     26  C   UNL     1       2.492  -0.405   0.424  0.00  0.00    +0.000 C 
ATOM     27  C   UNL     1       1.750   0.908   0.170  0.00  0.00    +0.000 C 
ENDBRANCH   6   5
ENDBRANCH  10   8
ENDBRANCH  11  10
TORSDOF 5
