REMARK  Name = 
REMARK  5 active torsions:
REMARK  status: ('A' for Active; 'I' for Inactive)
REMARK    1  A    between atoms: N_1  and  C_2
REMARK    2  A    between atoms: C_2  and  C_3
REMARK    3  A    between atoms: C_6  and  C_7
REMARK    4  A    between atoms: C_7  and  N_8
REMARK    5  A    between atoms: C_13  and  C_14
REMARK                            x       y       z     vdW  Elec       q    Type
REMARK                         _______ _______ _______ _____ _____    ______ ____
ROOT
ATOM      8  N   UNL     1       4.203  -4.938  -4.516  0.00  0.00    +0.000 N 
ATOM      9  C   UNL     1       3.544  -5.915  -5.236  0.00  0.00    +0.000 A 
ATOM     10  C   UNL     1       3.886  -5.698  -6.540  0.00  0.00    +0.000 A 
ATOM     11  C   UNL     1       5.253  -5.356  -6.436  0.00  0.00    +0.000 A 
ATOM     12  C   UNL     1       6.417  -5.540  -7.196  0.00  0.00    +0.000 A 
ATOM     13  C   UNL     1       7.610  -4.907  -6.803  0.00  0.00    +0.000 A 
ATOM     17  C   UNL     1       7.549  -3.933  -5.799  0.00  0.00    +0.000 A 
ATOM     18  C   UNL     1       6.400  -3.746  -5.011  0.00  0.00    +0.000 A 
ATOM     19  C   UNL     1       5.315  -4.586  -5.269  0.00  0.00    +0.000 A 
ENDROOT
BRANCH  13  14
ATOM     14  C   UNL     1       8.857  -5.385  -7.442  0.00  0.00    +0.000 C 
ATOM     15  N   UNL     1      10.073  -4.808  -7.037  0.00  0.00    +0.000 N 
ATOM     16  O   UNL     1       8.897  -6.289  -8.244  0.00  0.00    +0.000 OA
ATOM     24  H   UNL     1      10.166  -4.109  -6.332  0.00  0.00    +0.000 HD
ATOM     25  H   UNL     1      10.900  -5.231  -7.416  0.00  0.00    +0.000 HD
ENDBRANCH  13  14
BRANCH   8   7
ATOM      7  C   UNL     1       4.074  -4.837  -3.071  0.00  0.00    +0.000 C 
BRANCH   7   6
ATOM      3  C   UNL     1       3.528  -1.035  -1.103  0.00  0.00    +0.000 A 
ATOM      4  C   UNL     1       2.536  -1.506  -1.983  0.00  0.00    +0.000 A 
ATOM      5  C   UNL     1       2.736  -2.715  -2.684  0.00  0.00    +0.000 A 
ATOM      6  C   UNL     1       3.901  -3.466  -2.509  0.00  0.00    +0.000 A 
ATOM     20  C   UNL     1       4.896  -2.971  -1.631  0.00  0.00    +0.000 A 
ATOM     21  C   UNL     1       4.708  -1.773  -0.944  0.00  0.00    +0.000 A 
BRANCH   3   2
ATOM      2  C   UNL     1       3.347   0.254  -0.344  0.00  0.00    +0.000 C 
BRANCH   2   1
ATOM      1  N   UNL     1       2.189   0.214   0.541  0.00  0.00    +0.000 NA
ATOM     22  H   UNL     1       2.170   1.066   1.098  0.00  0.00    +0.000 HD
ATOM     23  H   UNL     1       2.303  -0.556   1.199  0.00  0.00    +0.000 HD
ENDBRANCH   2   1
ENDBRANCH   3   2
ENDBRANCH   7   6
ENDBRANCH   8   7
TORSDOF 5
