REMARK  Name = 
REMARK  5 active torsions:
REMARK  status: ('A' for Active; 'I' for Inactive)
REMARK    1  A    between atoms: N_1  and  C_2
REMARK    2  A    between atoms: C_2  and  C_3
REMARK    3  A    between atoms: C_6  and  C_7
REMARK    4  A    between atoms: C_7  and  N_8
REMARK    5  A    between atoms: C_12  and  C_13
REMARK                            x       y       z     vdW  Elec       q    Type
REMARK                         _______ _______ _______ _____ _____    ______ ____
ROOT
ATOM      8  N   UNL     1       2.918   6.193  -1.644  0.00  0.00    +0.000 N 
ATOM      9  C   UNL     1       3.264   7.470  -2.109  0.00  0.00    +0.000 A 
ATOM     10  C   UNL     1       2.341   8.504  -1.974  0.00  0.00    +0.000 A 
ATOM     11  C   UNL     1       2.673   9.784  -2.425  0.00  0.00    +0.000 A 
ATOM     12  C   UNL     1       3.922  10.011  -3.001  0.00  0.00    +0.000 A 
ATOM     16  C   UNL     1       4.770   8.923  -3.109  0.00  0.00    +0.000 A 
ATOM     17  N   UNL     1       4.464   7.672  -2.687  0.00  0.00    +0.000 NA
ATOM     22  H   UNL     1       2.677   6.252  -0.659  0.00  0.00    +0.000 HD
ENDROOT
BRANCH  12  13
ATOM     13  C   UNL     1       4.282  11.373  -3.459  0.00  0.00    +0.000 C 
ATOM     14  N   UNL     1       5.515  11.583  -4.010  0.00  0.00    +0.000 N 
ATOM     15  O   UNL     1       3.496  12.308  -3.344  0.00  0.00    +0.000 OA
ATOM     23  H   UNL     1       6.233  10.891  -4.155  0.00  0.00    +0.000 HD
ATOM     24  H   UNL     1       5.717  12.527  -4.307  0.00  0.00    +0.000 HD
ENDBRANCH  12  13
BRANCH   8   7
ATOM      7  C   UNL     1       3.954   5.189  -1.877  0.00  0.00    +0.000 C 
BRANCH   7   6
ATOM      3  C   UNL     1       2.879   1.245  -0.418  0.00  0.00    +0.000 A 
ATOM      4  C   UNL     1       1.886   2.135  -0.849  0.00  0.00    +0.000 A 
ATOM      5  C   UNL     1       2.220   3.410  -1.310  0.00  0.00    +0.000 A 
ATOM      6  C   UNL     1       3.553   3.839  -1.321  0.00  0.00    +0.000 A 
ATOM     18  C   UNL     1       4.547   2.949  -0.884  0.00  0.00    +0.000 A 
ATOM     19  C   UNL     1       4.214   1.668  -0.434  0.00  0.00    +0.000 A 
BRANCH   3   2
ATOM      2  C   UNL     1       2.509  -0.138   0.056  0.00  0.00    +0.000 C 
BRANCH   2   1
ATOM      1  N   UNL     1       1.801  -0.889  -0.976  0.00  0.00    +0.000 NA
ATOM     20  H   UNL     1       1.639  -1.838  -0.648  0.00  0.00    +0.000 HD
ATOM     21  H   UNL     1       2.401  -0.962  -1.797  0.00  0.00    +0.000 HD
ENDBRANCH   2   1
ENDBRANCH   3   2
ENDBRANCH   7   6
ENDBRANCH   8   7
TORSDOF 5
