REMARK  Name = 
REMARK  20 active torsions:
REMARK  status: ('A' for Active; 'I' for Inactive)
REMARK    1  A    between atoms: C_1  and  C_2
REMARK    2  A    between atoms: C_2  and  C_3
REMARK    3  A    between atoms: C_3  and  C_4
REMARK    4  A    between atoms: C_4  and  C_5
REMARK    5  A    between atoms: C_5  and  C_6
REMARK    6  A    between atoms: C_6  and  C_7
REMARK    7  A    between atoms: C_7  and  C_8
REMARK    8  A    between atoms: C_8  and  N_9
REMARK    9  A    between atoms: N_9  and  C_10
REMARK   10  A    between atoms: C_10  and  C_11
REMARK   11  A    between atoms: C_14  and  C_15
REMARK   12  A    between atoms: C_15  and  N_16
REMARK   13  A    between atoms: C_17  and  C_19
REMARK   14  A    between atoms: C_26  and  O_27
REMARK   15  A    between atoms: O_27  and  C_28
REMARK   16  A    between atoms: C_28  and  C_29
REMARK   17  A    between atoms: C_29  and  C_30
REMARK   18  A    between atoms: C_30  and  C_31
REMARK   19  A    between atoms: C_31  and  C_32
REMARK   20  A    between atoms: C_32  and  C_33
REMARK                            x       y       z     vdW  Elec       q    Type
REMARK                         _______ _______ _______ _____ _____    ______ ____
ROOT
ATOM     16  N   UNL     1      13.257  -9.832  -6.071  0.00  0.00    +0.000 N 
ATOM     17  C   UNL     1      13.480 -11.162  -6.306  0.00  0.00    +0.000 C 
ATOM     18  O   UNL     1      12.736 -11.835  -7.016  0.00  0.00    +0.000 OA
ATOM     38  H   UNL     1      13.892  -9.320  -5.474  0.00  0.00    +0.000 HD
ENDROOT
BRANCH  17  19
ATOM     19  C   UNL     1      14.690 -11.746  -5.702  0.00  0.00    +0.000 A 
ATOM     20  C   UNL     1      15.273 -12.875  -6.260  0.00  0.00    +0.000 A 
ATOM     21  S   UNL     1      16.676 -13.393  -5.442  0.00  0.00    +0.000 S 
ATOM     22  C   UNL     1      16.525 -12.152  -4.290  0.00  0.00    +0.000 A 
ATOM     23  N   UNL     1      17.410 -12.051  -3.283  0.00  0.00    +0.000 NA
ATOM     24  C   UNL     1      17.130 -11.039  -2.457  0.00  0.00    +0.000 A 
ATOM     25  N   UNL     1      16.123 -10.171  -2.549  0.00  0.00    +0.000 NA
ATOM     26  C   UNL     1      15.277 -10.300  -3.584  0.00  0.00    +0.000 A 
ATOM     34  C   UNL     1      15.434 -11.330  -4.526  0.00  0.00    +0.000 A 
BRANCH  26  27
ATOM     27  O   UNL     1      14.200  -9.465  -3.686  0.00  0.00    +0.000 OA
BRANCH  27  28
ATOM     28  C   UNL     1      14.350  -8.168  -3.111  0.00  0.00    +0.000 C 
BRANCH  28  29
ATOM     29  C   UNL     1      13.243  -7.961  -2.093  0.00  0.00    +0.000 C 
BRANCH  29  30
ATOM     30  C   UNL     1      13.347  -8.947  -0.939  0.00  0.00    +0.000 C 
BRANCH  30  31
ATOM     31  C   UNL     1      12.228  -8.726   0.070  0.00  0.00    +0.000 C 
BRANCH  31  32
ATOM     32  C   UNL     1      12.373  -9.706   1.227  0.00  0.00    +0.000 C 
ATOM     33  C   UNL     1      11.289  -9.492   2.266  0.00  0.00    +0.000 C 
ENDBRANCH  31  32
ENDBRANCH  30  31
ENDBRANCH  29  30
ENDBRANCH  28  29
ENDBRANCH  27  28
ENDBRANCH  26  27
ENDBRANCH  17  19
BRANCH  16  15
ATOM     15  C   UNL     1      12.123  -9.117  -6.603  0.00  0.00    +0.000 C 
BRANCH  15  14
ATOM     11  C   UNL     1      10.968  -5.720  -4.161  0.00  0.00    +0.000 A 
ATOM     12  C   UNL     1      11.980  -5.594  -5.124  0.00  0.00    +0.000 A 
ATOM     13  C   UNL     1      12.354  -6.684  -5.917  0.00  0.00    +0.000 A 
ATOM     14  C   UNL     1      11.739  -7.933  -5.748  0.00  0.00    +0.000 A 
ATOM     35  C   UNL     1      10.758  -8.067  -4.757  0.00  0.00    +0.000 A 
ATOM     36  C   UNL     1      10.364  -6.969  -3.984  0.00  0.00    +0.000 A 
BRANCH  11  10
ATOM     10  C   UNL     1      10.533  -4.535  -3.330  0.00  0.00    +0.000 C 
BRANCH  10   9
ATOM      9  N   UNL     1       9.969  -3.495  -4.184  0.00  0.00    +0.000 NA
ATOM     37  H   UNL     1      10.663  -3.204  -4.868  0.00  0.00    +0.000 HD
BRANCH   9   8
ATOM      8  C   UNL     1       9.536  -2.344  -3.405  0.00  0.00    +0.000 C 
BRANCH   8   7
ATOM      7  C   UNL     1       9.008  -1.283  -4.364  0.00  0.00    +0.000 C 
BRANCH   7   6
ATOM      6  C   UNL     1       8.526  -0.064  -3.588  0.00  0.00    +0.000 C 
BRANCH   6   5
ATOM      5  C   UNL     1       7.986   1.000  -4.534  0.00  0.00    +0.000 C 
BRANCH   5   4
ATOM      4  C   UNL     1       7.503   2.213  -3.748  0.00  0.00    +0.000 C 
BRANCH   4   3
ATOM      3  C   UNL     1       6.959   3.282  -4.688  0.00  0.00    +0.000 C 
BRANCH   3   2
ATOM      1  C   UNL     1       5.936   5.563  -4.844  0.00  0.00    +0.000 C 
ATOM      2  C   UNL     1       6.476   4.500  -3.907  0.00  0.00    +0.000 C 
ENDBRANCH   3   2
ENDBRANCH   4   3
ENDBRANCH   5   4
ENDBRANCH   6   5
ENDBRANCH   7   6
ENDBRANCH   8   7
ENDBRANCH   9   8
ENDBRANCH  10   9
ENDBRANCH  11  10
ENDBRANCH  15  14
ENDBRANCH  16  15
TORSDOF 18
