REMARK  Name = 
REMARK  6 active torsions:
REMARK  status: ('A' for Active; 'I' for Inactive)
REMARK    1  A    between atoms: C_1  and  N_2
REMARK    2  A    between atoms: N_2  and  C_21
REMARK    3  A    between atoms: C_3  and  C_5
REMARK    4  A    between atoms: C_5  and  N_6
REMARK    5  A    between atoms: C_7  and  C_8
REMARK    6  A    between atoms: C_14  and  C_15
REMARK                            x       y       z     vdW  Elec       q    Type
REMARK                         _______ _______ _______ _____ _____    ______ ____
ROOT
ATOM      6  N   UNL     1       3.486  -2.123  -3.257  0.00  0.00    +0.000 N 
ATOM      7  C   UNL     1       4.251  -3.276  -3.222  0.00  0.00    +0.000 A 
ATOM     11  C   UNL     1       4.997  -3.325  -4.381  0.00  0.00    +0.000 A 
ATOM     12  C   UNL     1       4.556  -2.289  -5.219  0.00  0.00    +0.000 A 
ATOM     13  C   UNL     1       4.848  -1.932  -6.538  0.00  0.00    +0.000 A 
ATOM     14  C   UNL     1       4.149  -0.866  -7.089  0.00  0.00    +0.000 A 
ATOM     18  C   UNL     1       3.215  -0.204  -6.289  0.00  0.00    +0.000 A 
ATOM     19  N   UNL     1       2.907  -0.501  -4.992  0.00  0.00    +0.000 NA
ATOM     20  C   UNL     1       3.608  -1.555  -4.515  0.00  0.00    +0.000 A 
ENDROOT
BRANCH  14  15
ATOM     15  C   UNL     1       4.350  -0.431  -8.489  0.00  0.00    +0.000 C 
ATOM     16  N   UNL     1       5.249  -1.115  -9.263  0.00  0.00    +0.000 N 
ATOM     17  O   UNL     1       3.728   0.512  -8.956  0.00  0.00    +0.000 OA
ATOM     27  H   UNL     1       5.798  -1.910  -8.967  0.00  0.00    +0.000 HD
ATOM     28  H   UNL     1       5.370  -0.802 -10.217  0.00  0.00    +0.000 HD
ENDBRANCH  14  15
BRANCH   7   8
ATOM      8  C   UNL     1       4.293  -4.370  -2.157  0.00  0.00    +0.000 C 
ATOM      9  C   UNL     1       5.583  -5.140  -1.938  0.00  0.00    +0.000 C 
ATOM     10  C   UNL     1       4.464  -5.798  -2.665  0.00  0.00    +0.000 C 
ENDBRANCH   7   8
BRANCH   6   5
ATOM      5  C   UNL     1       2.543  -1.633  -2.255  0.00  0.00    +0.000 C 
BRANCH   5   3
ATOM      1  C   UNL     1       2.975  -0.321   1.307  0.00  0.00    +0.000 C 
ATOM      2  N   UNL     1       2.272  -0.706   0.075  0.00  0.00    +0.000 N 
ATOM      3  C   UNL     1       3.137  -1.225  -0.924  0.00  0.00    +0.000 C 
ATOM      4  O   UNL     1       4.340  -1.387  -0.698  0.00  0.00    +0.000 OA
BRANCH   2  21
ATOM     21  C   UNL     1       0.933  -0.046  -0.155  0.00  0.00    +0.000 C 
ATOM     22  C   UNL     1       0.168   0.290   1.156  0.00  0.00    +0.000 C 
ATOM     23  C   UNL     1      -0.381  -0.976   1.828  0.00  0.00    +0.000 C 
ATOM     24  N   UNL     1      -1.250  -1.754   0.943  0.00  0.00    +0.000 NA
ATOM     25  C   UNL     1      -0.585  -2.064  -0.321  0.00  0.00    +0.000 C 
ATOM     26  C   UNL     1      -0.109  -0.793  -1.012  0.00  0.00    +0.000 C 
ATOM     29  H   UNL     1      -2.102  -1.226   0.756  0.00  0.00    +0.000 HD
ENDBRANCH   2  21
ENDBRANCH   5   3
ENDBRANCH   6   5
TORSDOF 5
