REMARK  Name = 
REMARK  8 active torsions:
REMARK  status: ('A' for Active; 'I' for Inactive)
REMARK    1  A    between atoms: C_2  and  C_24
REMARK    2  A    between atoms: N_3  and  C_4
REMARK    3  A    between atoms: C_4  and  C_5
REMARK    4  A    between atoms: C_8  and  C_9
REMARK    5  A    between atoms: C_9  and  N_10
REMARK    6  A    between atoms: C_11  and  C_13
REMARK    7  A    between atoms: C_17  and  O_18
REMARK    8  A    between atoms: N_20  and  O_21
REMARK                            x       y       z     vdW  Elec       q    Type
REMARK                         _______ _______ _______ _____ _____    ______ ____
ROOT
ATOM      5  C   UNL     1       3.052   3.737   0.859  0.00  0.00    +0.000 A 
ATOM      6  C   UNL     1       2.662   5.063   0.633  0.00  0.00    +0.000 A 
ATOM      7  C   UNL     1       3.517   6.126   0.948  0.00  0.00    +0.000 A 
ATOM      8  C   UNL     1       4.795   5.885   1.471  0.00  0.00    +0.000 A 
ATOM     22  C   UNL     1       5.186   4.559   1.700  0.00  0.00    +0.000 A 
ATOM     23  C   UNL     1       4.329   3.496   1.388  0.00  0.00    +0.000 A 
ENDROOT
BRANCH   8   9
ATOM      9  C   UNL     1       5.726   7.030   1.784  0.00  0.00    +0.000 C 
BRANCH   9  10
ATOM     10  N   UNL     1       5.516   7.550   3.111  0.00  0.00    +0.000 N 
ATOM     11  C   UNL     1       6.337   8.510   3.647  0.00  0.00    +0.000 C 
ATOM     12  O   UNL     1       7.206   9.086   3.000  0.00  0.00    +0.000 OA
ATOM     35  H   UNL     1       4.912   7.049   3.750  0.00  0.00    +0.000 HD
BRANCH  11  13
ATOM     13  C   UNL     1       6.071   8.833   5.099  0.00  0.00    +0.000 A 
ATOM     14  C   UNL     1       6.481  10.050   5.502  0.00  0.00    +0.000 A 
ATOM     15  C   UNL     1       6.234  10.448   6.907  0.00  0.00    +0.000 A 
ATOM     16  O   UNL     1       6.554  11.551   7.343  0.00  0.00    +0.000 OA
ATOM     17  C   UNL     1       5.576   9.460   7.811  0.00  0.00    +0.000 A 
ATOM     19  C   UNL     1       5.233   8.279   7.286  0.00  0.00    +0.000 A 
ATOM     20  N   UNL     1       5.419   7.938   5.958  0.00  0.00    +0.000 N 
BRANCH  17  18
ATOM     18  O   UNL     1       5.369   9.785   9.134  0.00  0.00    +0.000 OA
ATOM     36  H   UNL     1       5.724  10.695   9.231  0.00  0.00    +0.000 HD
ENDBRANCH  17  18
BRANCH  20  21
ATOM     21  O   UNL     1       5.305   6.592   5.605  0.00  0.00    +0.000 OA
ATOM     37  H   UNL     1       4.466   6.311   6.014  0.00  0.00    +0.000 HD
ENDBRANCH  20  21
ENDBRANCH  11  13
ENDBRANCH   9  10
ENDBRANCH   8   9
BRANCH   5   4
ATOM      4  C   UNL     1       2.128   2.599   0.500  0.00  0.00    +0.000 C 
BRANCH   4   3
ATOM      1  O   UNL     1       0.559   0.731  -0.907  0.00  0.00    +0.000 OA
ATOM      2  C   UNL     1       1.578   1.172  -1.423  0.00  0.00    +0.000 C 
ATOM      3  N   UNL     1       2.357   2.150  -0.848  0.00  0.00    +0.000 N 
ATOM     34  H   UNL     1       3.253   2.370  -1.254  0.00  0.00    +0.000 HD
BRANCH   2  24
ATOM     24  C   UNL     1       2.186   0.572  -2.610  0.00  0.00    +0.000 A 
ATOM     25  C   UNL     1       2.124  -0.791  -2.850  0.00  0.00    +0.000 A 
ATOM     26  S   UNL     1       3.203  -1.287  -4.084  0.00  0.00    +0.000 S 
ATOM     27  C   UNL     1       3.758   0.309  -4.312  0.00  0.00    +0.000 A 
ATOM     28  N   UNL     1       4.844   0.600  -5.076  0.00  0.00    +0.000 NA
ATOM     29  C   UNL     1       5.131   1.859  -5.129  0.00  0.00    +0.000 A 
ATOM     30  N   UNL     1       4.384   2.864  -4.562  0.00  0.00    +0.000 N 
ATOM     31  C   UNL     1       3.233   2.619  -3.853  0.00  0.00    +0.000 A 
ATOM     32  O   UNL     1       2.500   3.524  -3.470  0.00  0.00    +0.000 OA
ATOM     33  C   UNL     1       2.995   1.214  -3.604  0.00  0.00    +0.000 A 
ATOM     38  H   UNL     1       4.613   3.834  -4.720  0.00  0.00    +0.000 HD
ENDBRANCH   2  24
ENDBRANCH   4   3
ENDBRANCH   5   4
TORSDOF 8
