REMARK  Name = 
REMARK  7 active torsions:
REMARK  status: ('A' for Active; 'I' for Inactive)
REMARK    1  A    between atoms: C_1  and  C_2
REMARK    2  A    between atoms: C_2  and  C_3
REMARK    3  A    between atoms: C_2  and  C_4
REMARK    4  A    between atoms: C_7  and  C_9
REMARK    5  A    between atoms: C_9  and  N_10
REMARK    6  A    between atoms: C_11  and  C_12
REMARK    7  A    between atoms: C_18  and  C_19
REMARK                            x       y       z     vdW  Elec       q    Type
REMARK                         _______ _______ _______ _____ _____    ______ ____
ROOT
ATOM     10  N   UNL     1       2.791   5.619   3.817  0.00  0.00    +0.000 N 
ATOM     11  C   UNL     1       3.372   5.556   5.077  0.00  0.00    +0.000 A 
ATOM     15  C   UNL     1       3.332   6.819   5.616  0.00  0.00    +0.000 A 
ATOM     16  C   UNL     1       2.711   7.679   4.684  0.00  0.00    +0.000 A 
ATOM     17  C   UNL     1       2.431   9.048   4.653  0.00  0.00    +0.000 A 
ATOM     18  C   UNL     1       1.768   9.559   3.536  0.00  0.00    +0.000 A 
ATOM     22  C   UNL     1       1.404   8.666   2.529  0.00  0.00    +0.000 A 
ATOM     23  N   UNL     1       1.635   7.325   2.517  0.00  0.00    +0.000 NA
ATOM     24  C   UNL     1       2.331   6.901   3.593  0.00  0.00    +0.000 A 
ENDROOT
BRANCH  18  19
ATOM     19  C   UNL     1       1.447  10.999   3.381  0.00  0.00    +0.000 C 
ATOM     20  N   UNL     1       1.798  11.859   4.398  0.00  0.00    +0.000 N 
ATOM     21  O   UNL     1       0.883  11.422   2.375  0.00  0.00    +0.000 OA
ATOM     28  H   UNL     1       2.270  11.602   5.245  0.00  0.00    +0.000 HD
ATOM     29  H   UNL     1       1.579  12.835   4.248  0.00  0.00    +0.000 HD
ENDBRANCH  18  19
BRANCH  11  12
ATOM     12  C   UNL     1       3.954   4.328   5.774  0.00  0.00    +0.000 C 
ATOM     13  C   UNL     1       3.475   4.041   7.184  0.00  0.00    +0.000 C 
ATOM     14  C   UNL     1       4.876   4.499   6.967  0.00  0.00    +0.000 C 
ENDBRANCH  11  12
BRANCH  10   9
ATOM      9  C   UNL     1       2.509   4.510   2.908  0.00  0.00    +0.000 C 
BRANCH   9   7
ATOM      4  C   UNL     1       2.263   3.931  -1.794  0.00  0.00    +0.000 C 
ATOM      5  C   UNL     1       3.397   3.699  -0.750  0.00  0.00    +0.000 C 
ATOM      6  N   UNL     1       2.861   3.621   0.615  0.00  0.00    +0.000 N 
ATOM      7  C   UNL     1       3.159   4.629   1.535  0.00  0.00    +0.000 C 
ATOM      8  O   UNL     1       3.948   5.529   1.251  0.00  0.00    +0.000 OA
ATOM     25  C   UNL     1       1.847   2.576   0.773  0.00  0.00    +0.000 C 
ATOM     26  C   UNL     1       0.730   2.744  -0.275  0.00  0.00    +0.000 C 
ATOM     27  N   UNL     1       1.243   2.854  -1.652  0.00  0.00    +0.000 NA
ATOM     30  H   UNL     1       0.472   3.011  -2.296  0.00  0.00    +0.000 HD
BRANCH   4   2
ATOM      1  C   UNL     1       0.529   5.577  -2.770  0.00  0.00    +0.000 C 
ATOM      2  C   UNL     1       1.663   5.375  -1.752  0.00  0.00    +0.000 C 
ATOM      3  C   UNL     1       2.721   6.454  -2.026  0.00  0.00    +0.000 C 
ENDBRANCH   4   2
ENDBRANCH   9   7
ENDBRANCH  10   9
TORSDOF 5
