REMARK  Name = 
REMARK  4 active torsions:
REMARK  status: ('A' for Active; 'I' for Inactive)
REMARK    1  A    between atoms: C_2  and  C_4
REMARK    2  A    between atoms: N_11  and  C_12
REMARK    3  A    between atoms: C_12  and  C_13
REMARK    4  A    between atoms: N_15  and  C_16
REMARK                            x       y       z     vdW  Elec       q    Type
REMARK                         _______ _______ _______ _____ _____    ______ ____
ROOT
ATOM      4  C   UNL     1       3.335  -0.702  -1.003  0.00  0.00    +0.000 A 
ATOM      5  C   UNL     1       2.980  -0.516  -2.337  0.00  0.00    +0.000 A 
ATOM      6  N   UNL     1       3.615  -1.055  -3.414  0.00  0.00    +0.000 NA
ATOM      7  C   UNL     1       4.629  -1.875  -3.062  0.00  0.00    +0.000 A 
ATOM      8  C   UNL     1       5.058  -2.175  -1.770  0.00  0.00    +0.000 A 
ATOM      9  C   UNL     1       6.133  -3.095  -1.890  0.00  0.00    +0.000 A 
ATOM     10  C   UNL     1       6.336  -3.326  -3.234  0.00  0.00    +0.000 A 
ATOM     11  N   UNL     1       5.427  -2.572  -3.935  0.00  0.00    +0.000 N 
ATOM     20  C   UNL     1       4.393  -1.561  -0.697  0.00  0.00    +0.000 A 
ENDROOT
BRANCH   4   2
ATOM      1  N   UNL     1       3.229   0.301   1.207  0.00  0.00    +0.000 N 
ATOM      2  C   UNL     1       2.572   0.013   0.040  0.00  0.00    +0.000 C 
ATOM      3  O   UNL     1       1.415   0.364  -0.138  0.00  0.00    +0.000 OA
ATOM     21  H   UNL     1       2.735   0.881   1.874  0.00  0.00    +0.000 HD
ATOM     22  H   UNL     1       4.233   0.242   1.299  0.00  0.00    +0.000 HD
ENDBRANCH   4   2
BRANCH  11  12
ATOM     12  C   UNL     1       5.282  -2.563  -5.377  0.00  0.00    +0.000 C 
BRANCH  12  13
ATOM     13  C   UNL     1       6.146  -1.514  -6.038  0.00  0.00    +0.000 C 
ATOM     14  O   UNL     1       7.113  -1.820  -6.736  0.00  0.00    +0.000 OA
ATOM     15  N   UNL     1       5.750  -0.204  -5.859  0.00  0.00    +0.000 N 
ATOM     23  H   UNL     1       4.943  -0.025  -5.263  0.00  0.00    +0.000 HD
BRANCH  15  16
ATOM     16  C   UNL     1       6.433   0.899  -6.574  0.00  0.00    +0.000 C 
ATOM     17  C   UNL     1       5.921   2.323  -6.291  0.00  0.00    +0.000 C 
ATOM     18  N   UNL     1       5.918   2.599  -7.744  0.00  0.00    +0.000 NA
ATOM     19  C   UNL     1       5.924   1.145  -8.010  0.00  0.00    +0.000 C 
ATOM     24  H   UNL     1       6.765   3.066  -8.072  0.00  0.00    +0.000 HD
ENDBRANCH  15  16
ENDBRANCH  12  13
ENDBRANCH  11  12
TORSDOF 4
