REMARK  Name = 
REMARK  14 active torsions:
REMARK  status: ('A' for Active; 'I' for Inactive)
REMARK    1  A    between atoms: C_2  and  C_3
REMARK    2  A    between atoms: C_3  and  C_4
REMARK    3  A    between atoms: C_4  and  C_5
REMARK    4  A    between atoms: C_5  and  C_6
REMARK    5  A    between atoms: C_6  and  C_7
REMARK    6  A    between atoms: C_7  and  N_8
REMARK    7  A    between atoms: C_9  and  C_11
REMARK    8  A    between atoms: C_15  and  O_16
REMARK    9  A    between atoms: N_18  and  O_19
REMARK   10  A    between atoms: N_20  and  C_21
REMARK   11  A    between atoms: C_21  and  C_22
REMARK   12  A    between atoms: C_25  and  C_26
REMARK   13  A    between atoms: C_26  and  N_27
REMARK   14  A    between atoms: C_28  and  C_30
REMARK                            x       y       z     vdW  Elec       q    Type
REMARK                         _______ _______ _______ _____ _____    ______ ____
ROOT
ATOM      1  O   UNL     1       2.857  -0.913   0.709  0.00  0.00    +0.000 OA
ATOM      2  C   UNL     1       2.323  -0.008   0.076  0.00  0.00    +0.000 C 
ATOM     20  N   UNL     1       3.021   0.975  -0.588  0.00  0.00    +0.000 N 
ATOM     45  H   UNL     1       2.516   1.740  -1.012  0.00  0.00    +0.000 HD
ENDROOT
BRANCH   2   3
ATOM      3  C   UNL     1       0.812   0.095  -0.070  0.00  0.00    +0.000 C 
BRANCH   3   4
ATOM      4  C   UNL     1       0.119   0.180   1.290  0.00  0.00    +0.000 C 
BRANCH   4   5
ATOM      5  C   UNL     1      -1.402   0.288   1.138  0.00  0.00    +0.000 C 
BRANCH   5   6
ATOM      6  C   UNL     1      -2.109   0.405   2.492  0.00  0.00    +0.000 C 
BRANCH   6   7
ATOM      7  C   UNL     1      -3.624   0.520   2.318  0.00  0.00    +0.000 C 
BRANCH   7   8
ATOM      8  N   UNL     1      -4.309   0.641   3.587  0.00  0.00    +0.000 N 
ATOM      9  C   UNL     1      -4.492   1.836   4.230  0.00  0.00    +0.000 C 
ATOM     10  O   UNL     1      -4.098   2.906   3.773  0.00  0.00    +0.000 OA
ATOM     42  H   UNL     1      -4.632  -0.194   4.068  0.00  0.00    +0.000 HD
BRANCH   9  11
ATOM     11  C   UNL     1      -5.212   1.753   5.558  0.00  0.00    +0.000 A 
ATOM     12  C   UNL     1      -5.114   2.868   6.311  0.00  0.00    +0.000 A 
ATOM     13  C   UNL     1      -5.768   2.879   7.644  0.00  0.00    +0.000 A 
ATOM     14  O   UNL     1      -5.693   3.852   8.391  0.00  0.00    +0.000 OA
ATOM     15  C   UNL     1      -6.528   1.669   8.065  0.00  0.00    +0.000 A 
ATOM     17  C   UNL     1      -6.553   0.634   7.219  0.00  0.00    +0.000 A 
ATOM     18  N   UNL     1      -5.931   0.625   5.985  0.00  0.00    +0.000 N 
BRANCH  15  16
ATOM     16  O   UNL     1      -7.145   1.654   9.296  0.00  0.00    +0.000 OA
ATOM     43  H   UNL     1      -6.916   2.517   9.703  0.00  0.00    +0.000 HD
ENDBRANCH  15  16
BRANCH  18  19
ATOM     19  O   UNL     1      -5.910  -0.572   5.272  0.00  0.00    +0.000 OA
ATOM     44  H   UNL     1      -6.853  -0.820   5.215  0.00  0.00    +0.000 HD
ENDBRANCH  18  19
ENDBRANCH   9  11
ENDBRANCH   7   8
ENDBRANCH   6   7
ENDBRANCH   5   6
ENDBRANCH   4   5
ENDBRANCH   3   4
ENDBRANCH   2   3
BRANCH  20  21
ATOM     21  C   UNL     1       4.470   1.059  -0.579  0.00  0.00    +0.000 C 
BRANCH  21  22
ATOM     22  C   UNL     1       4.923   2.349   0.061  0.00  0.00    +0.000 A 
ATOM     23  C   UNL     1       5.204   2.389   1.432  0.00  0.00    +0.000 A 
ATOM     24  C   UNL     1       5.489   3.601   2.070  0.00  0.00    +0.000 A 
ATOM     25  C   UNL     1       5.473   4.804   1.352  0.00  0.00    +0.000 A 
ATOM     40  C   UNL     1       5.266   4.756  -0.036  0.00  0.00    +0.000 A 
ATOM     41  C   UNL     1       4.987   3.541  -0.675  0.00  0.00    +0.000 A 
BRANCH  25  26
ATOM     26  C   UNL     1       5.451   6.120   2.091  0.00  0.00    +0.000 C 
BRANCH  26  27
ATOM     27  N   UNL     1       6.718   6.676   2.498  0.00  0.00    +0.000 N 
ATOM     28  C   UNL     1       6.675   7.815   3.279  0.00  0.00    +0.000 C 
ATOM     29  O   UNL     1       5.596   8.277   3.652  0.00  0.00    +0.000 OA
ATOM     46  H   UNL     1       7.595   6.260   2.192  0.00  0.00    +0.000 HD
BRANCH  28  30
ATOM     30  C   UNL     1       7.920   8.508   3.628  0.00  0.00    +0.000 A 
ATOM     31  C   UNL     1       7.877   9.554   4.545  0.00  0.00    +0.000 A 
ATOM     32  S   UNL     1       9.362  10.368   4.733  0.00  0.00    +0.000 S 
ATOM     33  C   UNL     1      10.063   9.449   3.487  0.00  0.00    +0.000 A 
ATOM     34  N   UNL     1      11.257   9.801   2.943  0.00  0.00    +0.000 NA
ATOM     35  C   UNL     1      11.618   9.064   1.945  0.00  0.00    +0.000 A 
ATOM     36  N   UNL     1      10.948   7.945   1.516  0.00  0.00    +0.000 N 
ATOM     37  C   UNL     1       9.806   7.482   2.126  0.00  0.00    +0.000 A 
ATOM     38  O   UNL     1       9.323   6.385   1.864  0.00  0.00    +0.000 OA
ATOM     39  C   UNL     1       9.250   8.397   3.097  0.00  0.00    +0.000 A 
ATOM     47  H   UNL     1      11.342   7.357   0.797  0.00  0.00    +0.000 HD
ENDBRANCH  28  30
ENDBRANCH  26  27
ENDBRANCH  25  26
ENDBRANCH  21  22
ENDBRANCH  20  21
TORSDOF 14
