REMARK  Name = 
REMARK  14 active torsions:
REMARK  status: ('A' for Active; 'I' for Inactive)
REMARK    1  A    between atoms: C_1  and  C_2
REMARK    2  A    between atoms: C_2  and  C_3
REMARK    3  A    between atoms: C_3  and  C_4
REMARK    4  A    between atoms: C_4  and  C_5
REMARK    5  A    between atoms: C_5  and  C_6
REMARK    6  A    between atoms: C_6  and  O_7
REMARK    7  A    between atoms: O_7  and  C_8
REMARK    8  A    between atoms: C_15  and  C_16
REMARK    9  A    between atoms: N_18  and  C_19
REMARK   10  A    between atoms: C_19  and  C_20
REMARK   11  A    between atoms: C_23  and  C_24
REMARK   12  A    between atoms: C_24  and  N_25
REMARK   13  A    between atoms: N_25  and  C_26
REMARK   14  A    between atoms: C_26  and  C_27
REMARK                            x       y       z     vdW  Elec       q    Type
REMARK                         _______ _______ _______ _____ _____    ______ ____
ROOT
ATOM     16  C   UNL     1       6.718  -6.532  -1.528  0.00  0.00    +0.000 C 
ATOM     17  O   UNL     1       6.389  -7.196  -2.510  0.00  0.00    +0.000 OA
ATOM     18  N   UNL     1       5.779  -5.914  -0.739  0.00  0.00    +0.000 N 
ATOM     36  H   UNL     1       6.063  -5.309   0.021  0.00  0.00    +0.000 HD
ENDROOT
BRANCH  16  15
ATOM      8  C   UNL     1       8.452  -5.625   1.331  0.00  0.00    +0.000 A 
ATOM      9  N   UNL     1       9.396  -5.408   2.275  0.00  0.00    +0.000 NA
ATOM     10  C   UNL     1      10.683  -5.494   1.934  0.00  0.00    +0.000 A 
ATOM     11  N   UNL     1      11.168  -5.762   0.731  0.00  0.00    +0.000 NA
ATOM     12  C   UNL     1      10.210  -5.996  -0.180  0.00  0.00    +0.000 A 
ATOM     13  S   UNL     1      10.669  -6.382  -1.767  0.00  0.00    +0.000 S 
ATOM     14  C   UNL     1       9.053  -6.581  -2.231  0.00  0.00    +0.000 A 
ATOM     15  C   UNL     1       8.137  -6.339  -1.212  0.00  0.00    +0.000 A 
ATOM     35  C   UNL     1       8.828  -5.969   0.017  0.00  0.00    +0.000 A 
BRANCH   8   7
ATOM      7  O   UNL     1       7.125  -5.558   1.724  0.00  0.00    +0.000 OA
BRANCH   7   6
ATOM      6  C   UNL     1       6.915  -4.661   2.829  0.00  0.00    +0.000 C 
BRANCH   6   5
ATOM      5  C   UNL     1       5.635  -5.017   3.586  0.00  0.00    +0.000 C 
BRANCH   5   4
ATOM      4  C   UNL     1       5.598  -6.427   4.189  0.00  0.00    +0.000 C 
BRANCH   4   3
ATOM      3  C   UNL     1       6.633  -6.764   5.271  0.00  0.00    +0.000 C 
BRANCH   3   2
ATOM      1  C   UNL     1       5.274  -6.012   7.324  0.00  0.00    +0.000 C 
ATOM      2  C   UNL     1       6.592  -5.945   6.566  0.00  0.00    +0.000 C 
ENDBRANCH   3   2
ENDBRANCH   4   3
ENDBRANCH   5   4
ENDBRANCH   6   5
ENDBRANCH   7   6
ENDBRANCH   8   7
ENDBRANCH  16  15
BRANCH  18  19
ATOM     19  C   UNL     1       4.383  -5.956  -1.123  0.00  0.00    +0.000 C 
BRANCH  19  20
ATOM     20  C   UNL     1       3.438  -6.050   0.042  0.00  0.00    +0.000 A 
ATOM     21  C   UNL     1       2.382  -5.145   0.219  0.00  0.00    +0.000 A 
ATOM     22  C   UNL     1       1.390  -5.387   1.180  0.00  0.00    +0.000 A 
ATOM     23  C   UNL     1       1.427  -6.547   1.963  0.00  0.00    +0.000 A 
ATOM     33  C   UNL     1       2.528  -7.402   1.835  0.00  0.00    +0.000 A 
ATOM     34  C   UNL     1       3.517  -7.161   0.888  0.00  0.00    +0.000 A 
BRANCH  23  24
ATOM     24  C   UNL     1       0.347  -6.922   2.952  0.00  0.00    +0.000 C 
BRANCH  24  25
ATOM     25  N   UNL     1      -1.009  -6.669   2.463  0.00  0.00    +0.000 NA
ATOM     37  H   UNL     1      -1.100  -7.038   1.517  0.00  0.00    +0.000 HD
BRANCH  25  26
ATOM     26  C   UNL     1      -1.982  -7.361   3.316  0.00  0.00    +0.000 C 
BRANCH  26  27
ATOM     27  C   UNL     1      -3.399  -7.094   2.872  0.00  0.00    +0.000 A 
ATOM     28  C   UNL     1      -4.245  -8.144   2.486  0.00  0.00    +0.000 A 
ATOM     29  C   UNL     1      -5.563  -7.885   2.105  0.00  0.00    +0.000 A 
ATOM     30  C   UNL     1      -6.048  -6.578   2.108  0.00  0.00    +0.000 A 
ATOM     31  C   UNL     1      -5.215  -5.527   2.487  0.00  0.00    +0.000 A 
ATOM     32  C   UNL     1      -3.899  -5.784   2.870  0.00  0.00    +0.000 A 
ENDBRANCH  26  27
ENDBRANCH  25  26
ENDBRANCH  24  25
ENDBRANCH  23  24
ENDBRANCH  19  20
ENDBRANCH  18  19
TORSDOF 13
