REMARK  Name = 
REMARK  3 active torsions:
REMARK  status: ('A' for Active; 'I' for Inactive)
REMARK    1  A    between atoms: O_1  and  C_2
REMARK    2  A    between atoms: C_2  and  C_3
REMARK    3  A    between atoms: C_5  and  C_6
REMARK                            x       y       z     vdW  Elec       q    Type
REMARK                         _______ _______ _______ _____ _____    ______ ____
ROOT
ATOM      3  C   UNL     1       2.760   1.276   0.747  0.00  0.00    +0.000 A 
ATOM      4  C   UNL     1       2.302   2.554   0.359  0.00  0.00    +0.000 A 
ATOM      5  C   UNL     1       2.877   3.441   1.240  0.00  0.00    +0.000 A 
ATOM     11  N   UNL     1       3.654   2.672   2.063  0.00  0.00    +0.000 N 
ATOM     12  N   UNL     1       3.600   1.352   1.791  0.00  0.00    +0.000 NA
ATOM     14  H   UNL     1       4.234   2.987   2.833  0.00  0.00    +0.000 HD
ENDROOT
BRANCH   5   6
ATOM      6  C   UNL     1       2.730   4.863   1.323  0.00  0.00    +0.000 A 
ATOM      7  C   UNL     1       1.897   5.640   0.540  0.00  0.00    +0.000 A 
ATOM      8  C   UNL     1       1.996   7.028   0.841  0.00  0.00    +0.000 A 
ATOM      9  C   UNL     1       2.896   7.267   1.854  0.00  0.00    +0.000 A 
ATOM     10  S   UNL     1       3.596   5.823   2.446  0.00  0.00    +0.000 S 
ENDBRANCH   5   6
BRANCH   3   2
ATOM      2  C   UNL     1       2.388  -0.031   0.136  0.00  0.00    +0.000 C 
BRANCH   2   1
ATOM      1  O   UNL     1       1.456   0.128  -0.938  0.00  0.00    +0.000 OA
ATOM     13  H   UNL     1       1.240  -0.770  -1.239  0.00  0.00    +0.000 HD
ENDBRANCH   2   1
ENDBRANCH   3   2
TORSDOF 3
