REMARK  Name = 
REMARK  4 active torsions:
REMARK  status: ('A' for Active; 'I' for Inactive)
REMARK    1  A    between atoms: C_2  and  C_4
REMARK    2  A    between atoms: N_11  and  C_12
REMARK    3  A    between atoms: C_12  and  C_13
REMARK    4  A    between atoms: N_15  and  C_16
REMARK                            x       y       z     vdW  Elec       q    Type
REMARK                         _______ _______ _______ _____ _____    ______ ____
ROOT
ATOM      4  C   UNL     1       3.655   0.987   4.293  0.00  0.00    +0.000 A 
ATOM      5  C   UNL     1       3.547  -0.060   5.206  0.00  0.00    +0.000 A 
ATOM      6  N   UNL     1       4.164  -1.266   5.101  0.00  0.00    +0.000 NA
ATOM      7  C   UNL     1       4.969  -1.353   4.023  0.00  0.00    +0.000 A 
ATOM      8  C   UNL     1       5.204  -0.365   3.069  0.00  0.00    +0.000 A 
ATOM      9  C   UNL     1       6.143  -0.893   2.144  0.00  0.00    +0.000 A 
ATOM     10  C   UNL     1       6.434  -2.182   2.536  0.00  0.00    +0.000 A 
ATOM     11  N   UNL     1       5.696  -2.460   3.661  0.00  0.00    +0.000 N 
ATOM     22  C   UNL     1       4.520   0.853   3.204  0.00  0.00    +0.000 A 
ENDROOT
BRANCH   4   2
ATOM      1  N   UNL     1       2.486   2.912   3.385  0.00  0.00    +0.000 N 
ATOM      2  C   UNL     1       2.837   2.201   4.500  0.00  0.00    +0.000 C 
ATOM      3  O   UNL     1       2.453   2.532   5.612  0.00  0.00    +0.000 OA
ATOM     23  H   UNL     1       1.833   3.674   3.522  0.00  0.00    +0.000 HD
ATOM     24  H   UNL     1       2.583   2.548   2.447  0.00  0.00    +0.000 HD
ENDBRANCH   4   2
BRANCH  11  12
ATOM     12  C   UNL     1       5.742  -3.705   4.407  0.00  0.00    +0.000 C 
BRANCH  12  13
ATOM     13  C   UNL     1       4.759  -4.763   3.943  0.00  0.00    +0.000 C 
ATOM     14  O   UNL     1       5.094  -5.950   3.938  0.00  0.00    +0.000 OA
ATOM     15  N   UNL     1       3.481  -4.369   3.589  0.00  0.00    +0.000 N 
ATOM     25  H   UNL     1       3.184  -3.421   3.806  0.00  0.00    +0.000 HD
BRANCH  15  16
ATOM     16  C   UNL     1       2.486  -5.365   3.180  0.00  0.00    +0.000 C 
ATOM     17  C   UNL     1       1.476  -4.817   2.166  0.00  0.00    +0.000 C 
ATOM     18  C   UNL     1       0.305  -4.090   2.815  0.00  0.00    +0.000 C 
ATOM     19  N   UNL     1      -0.346  -4.911   3.834  0.00  0.00    +0.000 NA
ATOM     20  C   UNL     1       0.599  -5.240   4.901  0.00  0.00    +0.000 C 
ATOM     21  C   UNL     1       1.795  -6.031   4.379  0.00  0.00    +0.000 C 
ATOM     26  H   UNL     1      -0.694  -5.770   3.412  0.00  0.00    +0.000 HD
ENDBRANCH  15  16
ENDBRANCH  12  13
ENDBRANCH  11  12
TORSDOF 4
