REMARK  Name = 
REMARK  15 active torsions:
REMARK  status: ('A' for Active; 'I' for Inactive)
REMARK    1  A    between atoms: C_1  and  C_2
REMARK    2  A    between atoms: C_2  and  C_3
REMARK    3  A    between atoms: C_3  and  C_4
REMARK    4  A    between atoms: C_4  and  C_5
REMARK    5  A    between atoms: C_5  and  C_6
REMARK    6  A    between atoms: C_6  and  C_7
REMARK    7  A    between atoms: C_7  and  C_8
REMARK    8  A    between atoms: C_8  and  N_9
REMARK    9  A    between atoms: N_9  and  C_10
REMARK   10  A    between atoms: N_9  and  C_12
REMARK   11  A    between atoms: C_10  and  C_11
REMARK   12  A    between atoms: C_12  and  C_13
REMARK   13  A    between atoms: C_16  and  C_17
REMARK   14  A    between atoms: C_17  and  N_18
REMARK   15  A    between atoms: C_19  and  C_21
REMARK                            x       y       z     vdW  Elec       q    Type
REMARK                         _______ _______ _______ _____ _____    ______ ____
ROOT
ATOM     13  C   UNL     1      11.096   5.403  -0.110  0.00  0.00    +0.000 A 
ATOM     14  C   UNL     1      10.702   6.239  -1.164  0.00  0.00    +0.000 A 
ATOM     15  C   UNL     1      11.258   6.089  -2.440  0.00  0.00    +0.000 A 
ATOM     16  C   UNL     1      12.207   5.090  -2.692  0.00  0.00    +0.000 A 
ATOM     31  C   UNL     1      12.587   4.243  -1.641  0.00  0.00    +0.000 A 
ATOM     32  C   UNL     1      12.031   4.392  -0.367  0.00  0.00    +0.000 A 
ENDROOT
BRANCH  13  12
ATOM     12  C   UNL     1      10.542   5.597   1.290  0.00  0.00    +0.000 C 
BRANCH  12   9
ATOM      9  N   UNL     1       9.073   5.525   1.369  0.00  0.00    +0.000 NA
BRANCH   9  10
ATOM     10  C   UNL     1       8.580   5.970   2.686  0.00  0.00    +0.000 C 
ATOM     11  C   UNL     1       9.026   5.155   3.899  0.00  0.00    +0.000 C 
ENDBRANCH   9  10
BRANCH   9   8
ATOM      8  C   UNL     1       8.592   4.192   0.965  0.00  0.00    +0.000 C 
BRANCH   8   7
ATOM      7  C   UNL     1       7.069   4.096   0.948  0.00  0.00    +0.000 C 
BRANCH   7   6
ATOM      6  C   UNL     1       6.586   2.721   0.501  0.00  0.00    +0.000 C 
BRANCH   6   5
ATOM      5  C   UNL     1       5.061   2.724   0.503  0.00  0.00    +0.000 C 
BRANCH   5   4
ATOM      4  C   UNL     1       4.496   1.372   0.101  0.00  0.00    +0.000 C 
BRANCH   4   3
ATOM      3  C   UNL     1       2.971   1.412   0.115  0.00  0.00    +0.000 C 
BRANCH   3   2
ATOM      1  C   UNL     1       0.880   0.077  -0.275  0.00  0.00    +0.000 C 
ATOM      2  C   UNL     1       2.397   0.058  -0.284  0.00  0.00    +0.000 C 
ENDBRANCH   3   2
ENDBRANCH   4   3
ENDBRANCH   5   4
ENDBRANCH   6   5
ENDBRANCH   7   6
ENDBRANCH   8   7
ENDBRANCH   9   8
ENDBRANCH  12   9
ENDBRANCH  13  12
BRANCH  16  17
ATOM     17  C   UNL     1      12.853   4.946  -4.047  0.00  0.00    +0.000 C 
BRANCH  17  18
ATOM     18  N   UNL     1      14.050   5.743  -4.135  0.00  0.00    +0.000 N 
ATOM     19  C   UNL     1      14.798   5.802  -5.288  0.00  0.00    +0.000 C 
ATOM     20  O   UNL     1      14.478   5.195  -6.308  0.00  0.00    +0.000 OA
ATOM     33  H   UNL     1      14.464   6.047  -3.264  0.00  0.00    +0.000 HD
BRANCH  19  21
ATOM     21  C   UNL     1      15.967   6.689  -5.255  0.00  0.00    +0.000 A 
ATOM     22  C   UNL     1      16.447   7.241  -6.433  0.00  0.00    +0.000 A 
ATOM     23  S   UNL     1      17.767   8.300  -6.202  0.00  0.00    +0.000 S 
ATOM     24  C   UNL     1      17.776   8.005  -4.527  0.00  0.00    +0.000 A 
ATOM     25  N   UNL     1      18.703   8.596  -3.721  0.00  0.00    +0.000 NA
ATOM     26  C   UNL     1      18.610   8.266  -2.475  0.00  0.00    +0.000 A 
ATOM     27  N   UNL     1      17.677   7.406  -1.960  0.00  0.00    +0.000 N 
ATOM     28  C   UNL     1      16.702   6.817  -2.733  0.00  0.00    +0.000 A 
ATOM     29  O   UNL     1      15.845   6.094  -2.232  0.00  0.00    +0.000 OA
ATOM     30  C   UNL     1      16.775   7.137  -4.146  0.00  0.00    +0.000 A 
ATOM     34  H   UNL     1      17.647   7.200  -0.976  0.00  0.00    +0.000 HD
ENDBRANCH  19  21
ENDBRANCH  17  18
ENDBRANCH  16  17
TORSDOF 13
