REMARK  Name = 
REMARK  3 active torsions:
REMARK  status: ('A' for Active; 'I' for Inactive)
REMARK    1  A    between atoms: C_2  and  C_4
REMARK    2  A    between atoms: C_8  and  C_9
REMARK    3  A    between atoms: C_9  and  C_10
REMARK                            x       y       z     vdW  Elec       q    Type
REMARK                         _______ _______ _______ _____ _____    ______ ____
ROOT
ATOM      1  C   UNL     1       4.112   2.011  -0.449  0.00  0.00    +0.000 A 
ATOM      2  C   UNL     1       2.877   2.490  -0.853  0.00  0.00    +0.000 A 
ATOM      3  C   UNL     1       2.560   2.393  -2.200  0.00  0.00    +0.000 A 
ATOM      4  C   UNL     1       3.474   1.807  -3.077  0.00  0.00    +0.000 A 
ATOM      5  C   UNL     1       4.700   1.327  -2.599  0.00  0.00    +0.000 A 
ATOM      6  N   UNL     1       5.028   1.447  -1.287  0.00  0.00    +0.000 NA
ENDROOT
BRANCH   1   8
ATOM      7  N   UNL     1       5.791   1.682   1.259  0.00  0.00    +0.000 N 
ATOM      8  C   UNL     1       4.511   2.087   0.993  0.00  0.00    +0.000 C 
ATOM      9  O   UNL     1       3.756   2.479   1.872  0.00  0.00    +0.000 OA
ATOM     10  H   UNL     1       6.130   1.679   2.209  0.00  0.00    +0.000 HD
ATOM     11  H   UNL     1       6.372   1.350   0.496  0.00  0.00    +0.000 HD
ENDBRANCH   1   8
BRANCH   5  12
ATOM     12  C   UNL     1       5.694   0.616  -3.518  0.00  0.00    +0.000 C 
ATOM     13  C   UNL     1       7.099   1.216  -3.595  0.00  0.00    +0.000 C 
ATOM     14  C   UNL     1       6.195   1.313  -4.779  0.00  0.00    +0.000 C 
BRANCH  12  15
ATOM     15  C   UNL     1       5.574  -0.907  -3.575  0.00  0.00    +0.000 A 
ATOM     16  C   UNL     1       4.716  -1.538  -4.485  0.00  0.00    +0.000 A 
ATOM     17  C   UNL     1       4.690  -2.925  -4.550  0.00  0.00    +0.000 A 
ATOM     18  N   UNL     1       5.448  -3.723  -3.774  0.00  0.00    +0.000 NA
ATOM     19  C   UNL     1       6.248  -3.110  -2.878  0.00  0.00    +0.000 A 
ATOM     20  C   UNL     1       6.333  -1.734  -2.737  0.00  0.00    +0.000 A 
ENDBRANCH  12  15
ENDBRANCH   5  12
TORSDOF 3
