REMARK  Name = 
REMARK  8 active torsions:
REMARK  status: ('A' for Active; 'I' for Inactive)
REMARK    1  A    between atoms: C_2  and  O_3
REMARK    2  A    between atoms: C_2  and  C_20
REMARK    3  A    between atoms: O_3  and  C_4
REMARK    4  A    between atoms: C_4  and  C_5
REMARK    5  A    between atoms: C_8  and  C_9
REMARK    6  A    between atoms: C_9  and  O_10
REMARK    7  A    between atoms: C_9  and  C_11
REMARK    8  A    between atoms: C_11  and  C_12
REMARK                            x       y       z     vdW  Elec       q    Type
REMARK                         _______ _______ _______ _____ _____    ______ ____
ROOT
ATOM      1  C   UNL     1       4.599  -1.346   2.272  0.00  0.00    +0.000 A 
ATOM      2  C   UNL     1       4.314  -2.690   2.155  0.00  0.00    +0.000 A 
ATOM      3  N   UNL     1       4.674  -3.608   3.069  0.00  0.00    +0.000 NA
ATOM      4  C   UNL     1       5.345  -3.155   4.143  0.00  0.00    +0.000 A 
ATOM      5  N   UNL     1       5.702  -1.873   4.332  0.00  0.00    +0.000 NA
ATOM      6  C   UNL     1       5.283  -0.984   3.406  0.00  0.00    +0.000 A 
ENDROOT
BRANCH   1   7
ATOM      7  C   UNL     1       4.207  -0.376   1.218  0.00  0.00    +0.000 C 
BRANCH   7   8
ATOM      8  O   UNL     1       3.291   0.596   1.712  0.00  0.00    +0.000 OA
BRANCH   8  10
ATOM      9  O   UNL     1       1.524  -0.817   1.355  0.00  0.00    +0.000 OA
ATOM     10  C   UNL     1       1.971   0.280   1.658  0.00  0.00    +0.000 C 
BRANCH  10  11
ATOM     11  C   UNL     1       1.160   1.485   1.771  0.00  0.00    +0.000 A 
ATOM     12  C   UNL     1      -0.076   1.626   1.167  0.00  0.00    +0.000 A 
ATOM     13  S   UNL     1      -0.563   3.267   1.072  0.00  0.00    +0.000 S 
ATOM     14  C   UNL     1       0.859   3.790   1.855  0.00  0.00    +0.000 A 
ATOM     15  N   UNL     1       1.226   5.097   1.911  0.00  0.00    +0.000 NA
ATOM     16  C   UNL     1       2.347   5.306   2.522  0.00  0.00    +0.000 A 
ATOM     17  N   UNL     1       3.089   4.342   3.162  0.00  0.00    +0.000 N 
ATOM     18  C   UNL     1       2.713   3.022   3.200  0.00  0.00    +0.000 A 
ATOM     19  O   UNL     1       3.292   2.202   3.907  0.00  0.00    +0.000 OA
ATOM     20  C   UNL     1       1.575   2.725   2.358  0.00  0.00    +0.000 A 
ATOM     21  H   UNL     1       3.898   4.588   3.713  0.00  0.00    +0.000 HD
ENDBRANCH  10  11
ENDBRANCH   8  10
ENDBRANCH   7   8
ENDBRANCH   1   7
BRANCH   4  22
ATOM     22  C   UNL     1       5.826  -4.192   5.150  0.00  0.00    +0.000 C 
BRANCH  22  23
ATOM     23  O   UNL     1       7.166  -4.609   4.842  0.00  0.00    +0.000 OA
ATOM     24  H   UNL     1       7.651  -3.793   4.625  0.00  0.00    +0.000 HD
ENDBRANCH  22  23
BRANCH  22  25
ATOM     25  C   UNL     1       5.803  -3.642   6.582  0.00  0.00    +0.000 C 
BRANCH  25  26
ATOM     26  C   UNL     1       6.308  -4.640   7.647  0.00  0.00    +0.000 C 
ATOM     27  C   UNL     1       5.444  -5.904   7.782  0.00  0.00    +0.000 C 
ATOM     28  C   UNL     1       4.129  -5.651   8.517  0.00  0.00    +0.000 C 
ATOM     29  C   UNL     1       4.316  -4.826   9.789  0.00  0.00    +0.000 C 
ATOM     30  N   UNL     1       5.096  -3.612   9.551  0.00  0.00    +0.000 NA
ATOM     31  C   UNL     1       6.416  -3.941   9.012  0.00  0.00    +0.000 C 
ATOM     32  H   UNL     1       5.208  -3.106  10.429  0.00  0.00    +0.000 HD
ENDBRANCH  25  26
ENDBRANCH  22  25
ENDBRANCH   4  22
TORSDOF 8
