REMARK  Name = 
REMARK  4 active torsions:
REMARK  status: ('A' for Active; 'I' for Inactive)
REMARK    1  A    between atoms: N_1  and  S_2
REMARK    2  A    between atoms: S_2  and  C_5
REMARK    3  A    between atoms: C_8  and  C_9
REMARK    4  A    between atoms: C_9  and  N_10
REMARK                            x       y       z     vdW  Elec       q    Type
REMARK                         _______ _______ _______ _____ _____    ______ ____
ROOT
ATOM      1  C   UNL     1       3.368  -0.447   1.550  0.00  0.00    +0.000 A 
ATOM      2  C   UNL     1       3.918   0.463   2.434  0.00  0.00    +0.000 A 
ATOM      3  C   UNL     1       4.330  -0.019   3.675  0.00  0.00    +0.000 A 
ATOM      4  C   UNL     1       4.168  -1.378   3.988  0.00  0.00    +0.000 A 
ATOM      5  C   UNL     1       3.617  -2.205   3.011  0.00  0.00    +0.000 A 
ATOM      6  N   UNL     1       3.215  -1.779   1.794  0.00  0.00    +0.000 NA
ENDROOT
BRANCH   1   7
ATOM      7  S   UNL     1       2.774   0.064  -0.056  0.00  0.00    +0.000 S 
ATOM      8  O   UNL     1       3.154   1.440  -0.281  0.00  0.00    +0.000 OA
ATOM      9  O   UNL     1       1.407  -0.382  -0.234  0.00  0.00    +0.000 OA
BRANCH   7  10
ATOM     10  N   UNL     1       3.712  -0.839  -1.124  0.00  0.00    +0.000 NA
ATOM     11  H   UNL     1       3.962  -0.263  -1.931  0.00  0.00    +0.000 HD
ATOM     12  H   UNL     1       3.236  -1.710  -1.355  0.00  0.00    +0.000 HD
ENDBRANCH   7  10
ENDBRANCH   1   7
BRANCH   4  13
ATOM     13  C   UNL     1       4.562  -1.935   5.331  0.00  0.00    +0.000 C 
BRANCH  13  14
ATOM     14  N   UNL     1       5.945  -2.401   5.296  0.00  0.00    +0.000 N 
ATOM     15  C   UNL     1       6.380  -2.923   6.532  0.00  0.00    +0.000 A 
ATOM     16  C   UNL     1       7.678  -3.411   6.635  0.00  0.00    +0.000 A 
ATOM     17  C   UNL     1       8.128  -3.928   7.850  0.00  0.00    +0.000 A 
ATOM     18  C   UNL     1       7.250  -3.935   8.912  0.00  0.00    +0.000 A 
ATOM     19 CL   UNL     1       7.702  -4.518  10.455  0.00  0.00    +0.000 Cl
ATOM     20  N   UNL     1       5.992  -3.479   8.809  0.00  0.00    +0.000 NA
ATOM     21  N   UNL     1       5.557  -2.982   7.603  0.00  0.00    +0.000 NA
ATOM     22  H   UNL     1       6.587  -1.667   5.005  0.00  0.00    +0.000 HD
ENDBRANCH  13  14
ENDBRANCH   4  13
TORSDOF 4
