REMARK  Name = 
REMARK  4 active torsions:
REMARK  status: ('A' for Active; 'I' for Inactive)
REMARK    1  A    between atoms: C_2  and  C_4
REMARK    2  A    between atoms: C_7  and  N_8
REMARK    3  A    between atoms: N_8  and  C_9
REMARK    4  A    between atoms: C_9  and  C_10
REMARK                            x       y       z     vdW  Elec       q    Type
REMARK                         _______ _______ _______ _____ _____    ______ ____
ROOT
ATOM      1  N   UNL     1       5.347  -0.194  -4.641  0.00  0.00    +0.000 N 
ATOM      2  H   UNL     1       6.083  -0.882  -4.492  0.00  0.00    +0.000 HD
ENDROOT
BRANCH   1   6
ATOM      3  C   UNL     1       2.982  -0.098  -1.141  0.00  0.00    +0.000 A 
ATOM      4  C   UNL     1       2.392  -0.467  -2.352  0.00  0.00    +0.000 A 
ATOM      5  C   UNL     1       3.149  -0.485  -3.531  0.00  0.00    +0.000 A 
ATOM      6  C   UNL     1       4.506  -0.157  -3.512  0.00  0.00    +0.000 A 
ATOM      7  C   UNL     1       5.089   0.203  -2.289  0.00  0.00    +0.000 A 
ATOM      8  C   UNL     1       4.335   0.253  -1.115  0.00  0.00    +0.000 A 
BRANCH   3  10
ATOM      9  N   UNL     1       1.136  -0.869   0.244  0.00  0.00    +0.000 N 
ATOM     10  C   UNL     1       2.217  -0.038   0.132  0.00  0.00    +0.000 C 
ATOM     11  O   UNL     1       2.550   0.688   1.055  0.00  0.00    +0.000 OA
ATOM     12  H   UNL     1       0.684  -0.893   1.150  0.00  0.00    +0.000 HD
ATOM     13  H   UNL     1       0.989  -1.657  -0.373  0.00  0.00    +0.000 HD
ENDBRANCH   3  10
ENDBRANCH   1   6
BRANCH   1  14
ATOM     14  C   UNL     1       4.888  -0.064  -6.040  0.00  0.00    +0.000 C 
ATOM     15  C   UNL     1       5.744   0.875  -6.876  0.00  0.00    +0.000 C 
ATOM     16  C   UNL     1       4.332   1.246  -6.560  0.00  0.00    +0.000 C 
BRANCH  14  17
ATOM     17  C   UNL     1       4.418  -1.370  -6.666  0.00  0.00    +0.000 A 
ATOM     18  C   UNL     1       5.280  -2.464  -6.833  0.00  0.00    +0.000 A 
ATOM     19  C   UNL     1       4.794  -3.694  -7.274  0.00  0.00    +0.000 A 
ATOM     20  C   UNL     1       3.446  -3.792  -7.562  0.00  0.00    +0.000 A 
ATOM     21 CL   UNL     1       2.749  -5.286  -8.031  0.00  0.00    +0.000 Cl
ATOM     22  N   UNL     1       2.576  -2.770  -7.471  0.00  0.00    +0.000 NA
ATOM     23  C   UNL     1       3.086  -1.594  -7.033  0.00  0.00    +0.000 A 
ENDBRANCH  14  17
ENDBRANCH   1  14
TORSDOF 4
