REMARK  Name = 
REMARK  5 active torsions:
REMARK  status: ('A' for Active; 'I' for Inactive)
REMARK    1  A    between atoms: C_2  and  C_4
REMARK    2  A    between atoms: C_7  and  C_8
REMARK    3  A    between atoms: C_8  and  C_9
REMARK    4  A    between atoms: C_9  and  C_10
REMARK    5  A    between atoms: C_13  and  C_14
REMARK                            x       y       z     vdW  Elec       q    Type
REMARK                         _______ _______ _______ _____ _____    ______ ____
ROOT
ATOM      1  C   UNL     1       5.504  -5.030   2.739  0.00  0.00    +0.000 C 
ATOM      2  C   UNL     1       4.980  -5.909   1.601  0.00  0.00    +0.000 C 
ATOM      3  C   UNL     1       4.245  -5.887   2.906  0.00  0.00    +0.000 C 
ENDROOT
BRANCH   1   4
ATOM      4  C   UNL     1       6.741  -5.561   3.463  0.00  0.00    +0.000 A 
ATOM      5  C   UNL     1       6.733  -5.679   4.853  0.00  0.00    +0.000 A 
ATOM      6  C   UNL     1       7.632  -6.541   5.464  0.00  0.00    +0.000 A 
ATOM      7  C   UNL     1       8.547  -7.242   4.679  0.00  0.00    +0.000 A 
ATOM      8  C   UNL     1       8.606  -6.932   3.330  0.00  0.00    +0.000 A 
ATOM      9  N   UNL     1       7.735  -6.106   2.716  0.00  0.00    +0.000 NA
BRANCH   7  10
ATOM     10  C   UNL     1       9.366  -8.372   5.209  0.00  0.00    +0.000 C 
ATOM     11  F   UNL     1       9.151  -8.625   6.530  0.00  0.00    +0.000 F 
ATOM     12  F   UNL     1       9.093  -9.542   4.564  0.00  0.00    +0.000 F 
ATOM     13  F   UNL     1      10.704  -8.174   5.074  0.00  0.00    +0.000 F 
ENDBRANCH   7  10
ENDBRANCH   1   4
BRANCH   1  14
ATOM     14  C   UNL     1       5.461  -3.514   2.658  0.00  0.00    +0.000 C 
BRANCH  14  18
ATOM     15  C   UNL     1       1.973  -1.256   1.690  0.00  0.00    +0.000 A 
ATOM     16  C   UNL     1       2.594  -1.984   0.677  0.00  0.00    +0.000 A 
ATOM     17  C   UNL     1       3.704  -2.777   0.985  0.00  0.00    +0.000 A 
ATOM     18  C   UNL     1       4.158  -2.835   2.302  0.00  0.00    +0.000 A 
ATOM     19  N   UNL     1       3.542  -2.154   3.301  0.00  0.00    +0.000 NA
ATOM     20  C   UNL     1       2.483  -1.366   2.974  0.00  0.00    +0.000 A 
BRANCH  15  22
ATOM     21  N   UNL     1       0.003  -0.636   0.413  0.00  0.00    +0.000 N 
ATOM     22  C   UNL     1       0.836  -0.340   1.458  0.00  0.00    +0.000 C 
ATOM     23  O   UNL     1       0.632   0.624   2.179  0.00  0.00    +0.000 OA
ATOM     24  H   UNL     1      -0.826  -0.064   0.330  0.00  0.00    +0.000 HD
ATOM     25  H   UNL     1      -0.003  -1.540  -0.034  0.00  0.00    +0.000 HD
ENDBRANCH  15  22
ENDBRANCH  14  18
ENDBRANCH   1  14
TORSDOF 5
