REMARK  Name = 
REMARK  6 active torsions:
REMARK  status: ('A' for Active; 'I' for Inactive)
REMARK    1  A    between atoms: C_2  and  C_25
REMARK    2  A    between atoms: N_3  and  C_4
REMARK    3  A    between atoms: C_4  and  C_5
REMARK    4  A    between atoms: C_8  and  C_9
REMARK    5  A    between atoms: C_9  and  N_10
REMARK    6  A    between atoms: C_11  and  C_13
REMARK                            x       y       z     vdW  Elec       q    Type
REMARK                         _______ _______ _______ _____ _____    ______ ____
ROOT
ATOM      1  C   UNL     1       3.345   3.693  -0.129  0.00  0.00    +0.000 C 
ATOM      2  C   UNL     1       4.361   3.495   0.997  0.00  0.00    +0.000 C 
ATOM      3  C   UNL     1       5.386   4.613   1.026  0.00  0.00    +0.000 C 
ATOM      4  C   UNL     1       4.746   5.995   1.200  0.00  0.00    +0.000 C 
ATOM      5  C   UNL     1       3.709   6.219   0.087  0.00  0.00    +0.000 C 
ATOM      6  C   UNL     1       2.682   5.076   0.007  0.00  0.00    +0.000 C 
ENDROOT
BRANCH   1   7
ATOM      7  C   UNL     1       2.308   2.555  -0.110  0.00  0.00    +0.000 C 
BRANCH   7  10
ATOM      8  O   UNL     1       1.435   0.054   0.940  0.00  0.00    +0.000 OA
ATOM      9  C   UNL     1       2.426   0.089   0.221  0.00  0.00    +0.000 C 
ATOM     10  N   UNL     1       2.926   1.257  -0.316  0.00  0.00    +0.000 N 
ATOM     11  H   UNL     1       3.616   1.177  -1.048  0.00  0.00    +0.000 HD
BRANCH   9  12
ATOM     12  C   UNL     1       3.171  -1.104  -0.139  0.00  0.00    +0.000 A 
ATOM     13  C   UNL     1       4.359  -1.261  -0.836  0.00  0.00    +0.000 A 
ATOM     14  C   UNL     1       4.649  -2.642  -0.925  0.00  0.00    +0.000 A 
ATOM     15  C   UNL     1       3.644  -3.310  -0.267  0.00  0.00    +0.000 A 
ATOM     16  N   UNL     1       2.764  -2.376   0.218  0.00  0.00    +0.000 N 
ATOM     17  H   UNL     1       1.924  -2.576   0.749  0.00  0.00    +0.000 HD
ENDBRANCH   9  12
ENDBRANCH   7  10
ENDBRANCH   1   7
BRANCH   4  18
ATOM     18  C   UNL     1       5.820   7.100   1.208  0.00  0.00    +0.000 C 
BRANCH  18  19
ATOM     19  N   UNL     1       6.762   6.954   2.305  0.00  0.00    +0.000 N 
ATOM     20  C   UNL     1       7.798   7.837   2.492  0.00  0.00    +0.000 C 
ATOM     21  O   UNL     1       7.946   8.833   1.789  0.00  0.00    +0.000 OA
ATOM     22  H   UNL     1       6.852   6.041   2.735  0.00  0.00    +0.000 HD
BRANCH  20  23
ATOM     23  C   UNL     1       8.690   7.562   3.628  0.00  0.00    +0.000 A 
ATOM     24  C   UNL     1       9.329   8.611   4.272  0.00  0.00    +0.000 A 
ATOM     25  S   UNL     1      10.304   8.118   5.585  0.00  0.00    +0.000 S 
ATOM     26  C   UNL     1       9.937   6.480   5.317  0.00  0.00    +0.000 A 
ATOM     27  N   UNL     1      10.478   5.502   6.096  0.00  0.00    +0.000 NA
ATOM     28  C   UNL     1      10.122   4.302   5.768  0.00  0.00    +0.000 A 
ATOM     29  N   UNL     1       9.274   3.995   4.737  0.00  0.00    +0.000 N 
ATOM     30  C   UNL     1       8.712   4.949   3.927  0.00  0.00    +0.000 A 
ATOM     31  O   UNL     1       7.958   4.643   3.015  0.00  0.00    +0.000 OA
ATOM     32  C   UNL     1       9.070   6.314   4.253  0.00  0.00    +0.000 A 
ATOM     33  H   UNL     1       9.030   3.036   4.532  0.00  0.00    +0.000 HD
ENDBRANCH  20  23
ENDBRANCH  18  19
ENDBRANCH   4  18
TORSDOF 6
