REMARK  Name = 
REMARK  12 active torsions:
REMARK  status: ('A' for Active; 'I' for Inactive)
REMARK    1  A    between atoms: C_1  and  C_2
REMARK    2  A    between atoms: C_2  and  N_3
REMARK    3  A    between atoms: N_3  and  C_4
REMARK    4  A    between atoms: C_5  and  C_7
REMARK    5  A    between atoms: C_10  and  O_11
REMARK    6  A    between atoms: O_11  and  C_12
REMARK    7  A    between atoms: C_12  and  C_13
REMARK    8  A    between atoms: C_13  and  C_14
REMARK    9  A    between atoms: C_13  and  C_15
REMARK   10  A    between atoms: C_13  and  C_16
REMARK   11  A    between atoms: C_19  and  S_20
REMARK   12  A    between atoms: S_20  and  N_21
REMARK                            x       y       z     vdW  Elec       q    Type
REMARK                         _______ _______ _______ _____ _____    ______ ____
ROOT
ATOM      1  C   UNL     1       7.055  -5.407   7.362  0.00  0.00    +0.000 C 
ATOM      2  C   UNL     1       8.518  -5.545   6.866  0.00  0.00    +0.000 C 
ATOM      3  C   UNL     1       7.089  -4.327   8.474  0.00  0.00    +0.000 C 
ENDROOT
BRANCH   1   4
ATOM      4  C   UNL     1       6.501  -6.751   7.881  0.00  0.00    +0.000 A 
ATOM      5  C   UNL     1       6.928  -7.977   7.334  0.00  0.00    +0.000 A 
ATOM      6  C   UNL     1       6.497  -9.199   7.858  0.00  0.00    +0.000 A 
ATOM      7  C   UNL     1       5.616  -9.209   8.936  0.00  0.00    +0.000 A 
ATOM      8  C   UNL     1       5.109  -8.016   9.446  0.00  0.00    +0.000 A 
ATOM      9  C   UNL     1       5.548  -6.800   8.917  0.00  0.00    +0.000 A 
BRANCH   7  10
ATOM     10  S   UNL     1       5.162 -10.742   9.684  0.00  0.00    +0.000 S 
ATOM     11  O   UNL     1       3.892 -10.591  10.354  0.00  0.00    +0.000 OA
ATOM     12  O   UNL     1       5.435 -11.824   8.767  0.00  0.00    +0.000 OA
BRANCH  10  13
ATOM     13  N   UNL     1       6.319 -10.860  10.896  0.00  0.00    +0.000 NA
ATOM     14  H   UNL     1       5.875 -10.835  11.814  0.00  0.00    +0.000 HD
ATOM     15  H   UNL     1       6.917 -11.670  10.738  0.00  0.00    +0.000 HD
ENDBRANCH  10  13
ENDBRANCH   7  10
ENDBRANCH   1   4
BRANCH   1  16
ATOM     16  C   UNL     1       6.158  -4.916   6.194  0.00  0.00    +0.000 C 
BRANCH  16  17
ATOM     17  O   UNL     1       6.644  -3.659   5.708  0.00  0.00    +0.000 OA
BRANCH  17  21
ATOM     18  C   UNL     1       4.854  -1.658   2.598  0.00  0.00    +0.000 A 
ATOM     19  C   UNL     1       4.282  -2.868   2.974  0.00  0.00    +0.000 A 
ATOM     20  C   UNL     1       4.852  -3.590   4.025  0.00  0.00    +0.000 A 
ATOM     21  C   UNL     1       5.969  -3.080   4.676  0.00  0.00    +0.000 A 
ATOM     22  C   UNL     1       6.461  -1.854   4.239  0.00  0.00    +0.000 A 
ATOM     23  N   UNL     1       5.938  -1.131   3.222  0.00  0.00    +0.000 NA
BRANCH  18  26
ATOM     24  N   UNL     1       4.987  -0.017   0.681  0.00  0.00    +0.000 N 
ATOM     25  C   UNL     1       6.438   0.073   0.750  0.00  0.00    +0.000 C 
ATOM     26  C   UNL     1       4.220  -0.879   1.481  0.00  0.00    +0.000 C 
ATOM     27  O   UNL     1       3.013  -1.040   1.286  0.00  0.00    +0.000 OA
BRANCH  24  29
ATOM     28  C   UNL     1       4.068   0.032  -1.616  0.00  0.00    +0.000 C 
ATOM     29  C   UNL     1       4.307   0.794  -0.321  0.00  0.00    +0.000 C 
ENDBRANCH  24  29
ENDBRANCH  18  26
ENDBRANCH  17  21
ENDBRANCH  16  17
ENDBRANCH   1  16
TORSDOF 8
