REMARK  Name = 
REMARK  7 active torsions:
REMARK  status: ('A' for Active; 'I' for Inactive)
REMARK    1  A    between atoms: C_1  and  C_2
REMARK    2  A    between atoms: C_2  and  N_3
REMARK    3  A    between atoms: C_2  and  C_26
REMARK    4  A    between atoms: C_4  and  C_6
REMARK    5  A    between atoms: C_9  and  C_10
REMARK    6  A    between atoms: C_10  and  N_11
REMARK    7  A    between atoms: C_12  and  C_14
REMARK                            x       y       z     vdW  Elec       q    Type
REMARK                         _______ _______ _______ _____ _____    ______ ____
ROOT
ATOM      1  C   UNL     1       3.029   0.223  -3.966  0.00  0.00    +0.000 C 
ATOM      2  C   UNL     1       4.457  -0.250  -4.273  0.00  0.00    +0.000 C 
ATOM      3  C   UNL     1       5.101   0.512  -5.431  0.00  0.00    +0.000 C 
ATOM      4  C   UNL     1       5.076   2.034  -5.231  0.00  0.00    +0.000 C 
ATOM      5  C   UNL     1       3.630   2.495  -5.004  0.00  0.00    +0.000 C 
ATOM      6  C   UNL     1       2.945   1.756  -3.853  0.00  0.00    +0.000 C 
ENDROOT
BRANCH   1   8
ATOM      7  N   UNL     1       1.949  -1.703  -5.000  0.00  0.00    +0.000 N 
ATOM      8  C   UNL     1       2.027  -0.333  -4.981  0.00  0.00    +0.000 C 
ATOM      9  O   UNL     1       1.346   0.372  -5.720  0.00  0.00    +0.000 OA
ATOM     10  H   UNL     1       2.448  -2.267  -4.320  0.00  0.00    +0.000 HD
BRANCH   7  12
ATOM     11  C   UNL     1      -0.302  -2.612  -5.372  0.00  0.00    +0.000 C 
ATOM     12  C   UNL     1       1.104  -2.423  -5.940  0.00  0.00    +0.000 C 
BRANCH  12  13
ATOM     13  C   UNL     1       1.708  -3.773  -6.272  0.00  0.00    +0.000 A 
ATOM     14  C   UNL     1       1.559  -4.308  -7.549  0.00  0.00    +0.000 A 
ATOM     15  N   UNL     1       2.019  -5.534  -7.892  0.00  0.00    +0.000 NA
ATOM     16  C   UNL     1       2.641  -6.213  -6.904  0.00  0.00    +0.000 A 
ATOM     17  C   UNL     1       2.805  -5.690  -5.632  0.00  0.00    +0.000 A 
ATOM     18  N   UNL     1       2.344  -4.466  -5.284  0.00  0.00    +0.000 NA
ENDBRANCH  12  13
ENDBRANCH   7  12
ENDBRANCH   1   8
BRANCH   4  19
ATOM     19  C   UNL     1       5.996   2.525  -4.094  0.00  0.00    +0.000 C 
BRANCH  19  20
ATOM     20  N   UNL     1       7.393   2.332  -4.410  0.00  0.00    +0.000 N 
ATOM     21  C   UNL     1       8.138   1.267  -3.973  0.00  0.00    +0.000 C 
ATOM     22  O   UNL     1       7.721   0.455  -3.155  0.00  0.00    +0.000 OA
ATOM     23  H   UNL     1       7.753   2.908  -5.164  0.00  0.00    +0.000 HD
BRANCH  21  24
ATOM     24  C   UNL     1       9.497   1.174  -4.526  0.00  0.00    +0.000 A 
ATOM     25  C   UNL     1      10.479   0.475  -3.837  0.00  0.00    +0.000 A 
ATOM     26  S   UNL     1      11.993   0.479  -4.621  0.00  0.00    +0.000 S 
ATOM     27  C   UNL     1      11.374   1.365  -5.936  0.00  0.00    +0.000 A 
ATOM     28  N   UNL     1      12.161   1.681  -7.001  0.00  0.00    +0.000 NA
ATOM     29  C   UNL     1      11.549   2.311  -7.947  0.00  0.00    +0.000 A 
ATOM     30  N   UNL     1      10.226   2.665  -7.922  0.00  0.00    +0.000 N 
ATOM     31  C   UNL     1       9.416   2.438  -6.837  0.00  0.00    +0.000 A 
ATOM     32  O   UNL     1       8.277   2.891  -6.794  0.00  0.00    +0.000 OA
ATOM     33  C   UNL     1      10.039   1.684  -5.764  0.00  0.00    +0.000 A 
ATOM     34  H   UNL     1       9.814   3.188  -8.682  0.00  0.00    +0.000 HD
ENDBRANCH  21  24
ENDBRANCH  19  20
ENDBRANCH   4  19
TORSDOF 6
