REMARK  Name = 
REMARK  4 active torsions:
REMARK  status: ('A' for Active; 'I' for Inactive)
REMARK    1  A    between atoms: N_1  and  C_2
REMARK    2  A    between atoms: C_2  and  C_3
REMARK    3  A    between atoms: C_7  and  C_8
REMARK    4  A    between atoms: C_8  and  N_9
REMARK                            x       y       z     vdW  Elec       q    Type
REMARK                         _______ _______ _______ _____ _____    ______ ____
ROOT
ATOM      1  C   UNL     1       4.530   1.938   1.312  0.00  0.00    +0.000 A 
ATOM      2  C   UNL     1       3.501   1.115   0.861  0.00  0.00    +0.000 A 
ATOM      3  N   UNL     1       2.241   1.529   0.609  0.00  0.00    +0.000 NA
ATOM      4  C   UNL     1       1.982   2.844   0.802  0.00  0.00    +0.000 A 
ATOM      5  C   UNL     1       2.920   3.763   1.250  0.00  0.00    +0.000 A 
ATOM      6  C   UNL     1       4.217   3.291   1.494  0.00  0.00    +0.000 A 
ENDROOT
BRANCH   1   7
ATOM      7  C   UNL     1       5.913   1.380   1.493  0.00  0.00    +0.000 C 
BRANCH   7   8
ATOM      8  N   UNL     1       6.651   2.002   2.589  0.00  0.00    +0.000 NA
ATOM      9  H   UNL     1       7.563   1.554   2.669  0.00  0.00    +0.000 HD
ATOM     10  H   UNL     1       6.165   1.807   3.464  0.00  0.00    +0.000 HD
ENDBRANCH   7   8
ENDBRANCH   1   7
BRANCH   5  11
ATOM     11  C   UNL     1       2.539   5.199   1.472  0.00  0.00    +0.000 C 
BRANCH  11  12
ATOM     12  N   UNL     1       2.807   6.052   0.322  0.00  0.00    +0.000 N 
ATOM     13  C   UNL     1       4.060   6.454  -0.087  0.00  0.00    +0.000 A 
ATOM     14  C   UNL     1       3.904   7.387  -1.089  0.00  0.00    +0.000 A 
ATOM     15  C   UNL     1       2.513   7.622  -1.242  0.00  0.00    +0.000 A 
ATOM     16  C   UNL     1       1.734   8.513  -1.996  0.00  0.00    +0.000 A 
ATOM     17  C   UNL     1       0.349   8.441  -1.855  0.00  0.00    +0.000 A 
ATOM     18  C   UNL     1      -0.189   7.482  -1.007  0.00  0.00    +0.000 A 
ATOM     19  N   UNL     1       0.515   6.611  -0.244  0.00  0.00    +0.000 NA
ATOM     20  C   UNL     1       1.851   6.738  -0.391  0.00  0.00    +0.000 A 
ENDBRANCH  11  12
ENDBRANCH   5  11
TORSDOF 4
