REMARK  Name = 
REMARK  4 active torsions:
REMARK  status: ('A' for Active; 'I' for Inactive)
REMARK    1  A    between atoms: C_2  and  C_4
REMARK    2  A    between atoms: C_8  and  O_9
REMARK    3  A    between atoms: O_9  and  C_10
REMARK    4  A    between atoms: C_10  and  C_11
REMARK                            x       y       z     vdW  Elec       q    Type
REMARK                         _______ _______ _______ _____ _____    ______ ____
ROOT
ATOM      1  C   UNL     1       4.812   1.838   0.817  0.00  0.00    +0.000 A 
ATOM      2  C   UNL     1       3.612   1.486   0.226  0.00  0.00    +0.000 A 
ATOM      3  N   UNL     1       2.465   1.390   0.929  0.00  0.00    +0.000 NA
ATOM      4  N   UNL     1       2.483   1.660   2.264  0.00  0.00    +0.000 NA
ATOM      5  C   UNL     1       3.637   2.024   2.865  0.00  0.00    +0.000 A 
ATOM      6  C   UNL     1       4.827   2.140   2.175  0.00  0.00    +0.000 A 
ENDROOT
BRANCH   1   8
ATOM      7  N   UNL     1       7.220   1.640   0.564  0.00  0.00    +0.000 N 
ATOM      8  C   UNL     1       6.015   1.884  -0.033  0.00  0.00    +0.000 C 
ATOM      9  O   UNL     1       5.933   2.085  -1.238  0.00  0.00    +0.000 OA
ATOM     10  H   UNL     1       8.016   1.555  -0.057  0.00  0.00    +0.000 HD
ATOM     11  H   UNL     1       7.304   1.224   1.481  0.00  0.00    +0.000 HD
ENDBRANCH   1   8
BRANCH   5  12
ATOM     12  O   UNL     1       3.644   2.350   4.205  0.00  0.00    +0.000 OA
BRANCH  12  13
ATOM     13  C   UNL     1       2.544   1.756   4.906  0.00  0.00    +0.000 C 
BRANCH  13  14
ATOM     14  C   UNL     1       2.541   2.227   6.343  0.00  0.00    +0.000 A 
ATOM     15  C   UNL     1       2.277   3.564   6.638  0.00  0.00    +0.000 A 
ATOM     16  C   UNL     1       2.240   3.967   7.971  0.00  0.00    +0.000 A 
ATOM     17  C   UNL     1       2.468   3.030   8.971  0.00  0.00    +0.000 A 
ATOM     18  C   UNL     1       2.726   1.723   8.595  0.00  0.00    +0.000 A 
ATOM     19  N   UNL     1       2.768   1.302   7.311  0.00  0.00    +0.000 NA
ENDBRANCH  13  14
ENDBRANCH  12  13
ENDBRANCH   5  12
TORSDOF 4
