REMARK  Name = 
REMARK  5 active torsions:
REMARK  status: ('A' for Active; 'I' for Inactive)
REMARK    1  A    between atoms: C_2  and  C_5
REMARK    2  A    between atoms: C_9  and  C_10
REMARK    3  A    between atoms: C_10  and  O_11
REMARK    4  A    between atoms: O_11  and  C_12
REMARK    5  A    between atoms: C_16  and  N_17
REMARK                            x       y       z     vdW  Elec       q    Type
REMARK                         _______ _______ _______ _____ _____    ______ ____
ROOT
ATOM      1  O   UNL     1       1.177   4.920  -0.762  0.00  0.00    +0.000 OA
ENDROOT
BRANCH   1   2
ATOM      2  C   UNL     1       0.631   5.972  -1.458  0.00  0.00    +0.000 A 
ATOM      3  C   UNL     1       1.405   7.124  -1.706  0.00  0.00    +0.000 A 
ATOM      4  C   UNL     1       0.840   8.161  -2.459  0.00  0.00    +0.000 A 
ATOM      5  C   UNL     1      -0.442   8.035  -2.980  0.00  0.00    +0.000 A 
ATOM      6  C   UNL     1      -1.214   6.876  -2.766  0.00  0.00    +0.000 A 
ATOM      7  C   UNL     1      -0.648   5.881  -1.982  0.00  0.00    +0.000 A 
BRANCH   6   8
ATOM      8  N   UNL     1      -2.460   6.757  -3.345  0.00  0.00    +0.000 N 
ATOM      9  C   UNL     1      -3.541   5.998  -2.715  0.00  0.00    +0.000 C 
ATOM     10  C   UNL     1      -3.864   4.737  -3.511  0.00  0.00    +0.000 C 
ATOM     11  C   UNL     1      -4.075   5.046  -4.992  0.00  0.00    +0.000 C 
ATOM     12  C   UNL     1      -2.881   5.805  -5.563  0.00  0.00    +0.000 C 
ATOM     13  C   UNL     1      -2.593   7.071  -4.761  0.00  0.00    +0.000 C 
ENDBRANCH   6   8
ENDBRANCH   1   2
BRANCH   1  14
ATOM     14  C   UNL     1       0.211   4.115  -0.042  0.00  0.00    +0.000 C 
BRANCH  14  19
ATOM     15  C   UNL     1       2.609   3.408   2.838  0.00  0.00    +0.000 A 
ATOM     16  C   UNL     1       2.084   2.191   3.248  0.00  0.00    +0.000 A 
ATOM     17  N   UNL     1       1.017   1.598   2.663  0.00  0.00    +0.000 NA
ATOM     18  C   UNL     1       0.452   2.237   1.618  0.00  0.00    +0.000 A 
ATOM     19  C   UNL     1       0.903   3.455   1.117  0.00  0.00    +0.000 A 
ATOM     20  C   UNL     1       1.988   4.051   1.764  0.00  0.00    +0.000 A 
BRANCH  15  22
ATOM     21  F   UNL     1       4.284   3.231   4.530  0.00  0.00    +0.000 F 
ATOM     22  C   UNL     1       3.808   3.999   3.510  0.00  0.00    +0.000 C 
ATOM     23  F   UNL     1       3.566   5.224   4.050  0.00  0.00    +0.000 F 
ATOM     24  F   UNL     1       4.855   4.170   2.656  0.00  0.00    +0.000 F 
ENDBRANCH  15  22
ENDBRANCH  14  19
ENDBRANCH   1  14
TORSDOF 5
