REMARK  Name = 
REMARK  4 active torsions:
REMARK  status: ('A' for Active; 'I' for Inactive)
REMARK    1  A    between atoms: C_1  and  N_2
REMARK    2  A    between atoms: C_3  and  C_5
REMARK    3  A    between atoms: N_9  and  C_10
REMARK    4  A    between atoms: C_10  and  C_11
REMARK                            x       y       z     vdW  Elec       q    Type
REMARK                         _______ _______ _______ _____ _____    ______ ____
ROOT
ATOM      1  C   UNL     1       4.745   0.734   0.901  0.00  0.00    +0.000 A 
ATOM      2  C   UNL     1       5.392   0.964  -0.297  0.00  0.00    +0.000 A 
ATOM      3  C   UNL     1       6.783   0.965  -0.301  0.00  0.00    +0.000 A 
ATOM      4  C   UNL     1       7.483   0.700   0.871  0.00  0.00    +0.000 A 
ATOM      5  N   UNL     1       8.875   0.627   0.784  0.00  0.00    +0.000 N 
ATOM      6  N   UNL     1       6.809   0.467   2.020  0.00  0.00    +0.000 NA
ATOM      7  N   UNL     1       5.427   0.501   2.048  0.00  0.00    +0.000 NA
ATOM      8  H   UNL     1       9.267   1.525   0.507  0.00  0.00    +0.000 HD
ENDROOT
BRANCH   1  11
ATOM      9  C   UNL     1       1.289   0.559   2.432  0.00  0.00    +0.000 C 
ATOM     10  N   UNL     1       2.714   0.596   2.230  0.00  0.00    +0.000 N 
ATOM     11  C   UNL     1       3.259   0.724   0.969  0.00  0.00    +0.000 C 
ATOM     12  O   UNL     1       2.582   0.831  -0.050  0.00  0.00    +0.000 OA
ATOM     13  H   UNL     1       3.346   0.515   3.019  0.00  0.00    +0.000 HD
ENDBRANCH   1  11
BRANCH   5  14
ATOM     14  C   UNL     1       9.580   0.081   1.939  0.00  0.00    +0.000 C 
BRANCH  14  15
ATOM     15  C   UNL     1      10.997  -0.266   1.514  0.00  0.00    +0.000 A 
ATOM     16  C   UNL     1      11.237  -1.447   0.809  0.00  0.00    +0.000 A 
ATOM     17  C   UNL     1      12.530  -1.728   0.375  0.00  0.00    +0.000 A 
ATOM     18  C   UNL     1      13.547  -0.824   0.649  0.00  0.00    +0.000 A 
ATOM     19  C   UNL     1      13.226   0.333   1.342  0.00  0.00    +0.000 A 
ATOM     20  N   UNL     1      11.980   0.636   1.773  0.00  0.00    +0.000 NA
ENDBRANCH  14  15
ENDBRANCH   5  14
TORSDOF 3
