REMARK  Name = 
REMARK  7 active torsions:
REMARK  status: ('A' for Active; 'I' for Inactive)
REMARK    1  A    between atoms: C_2  and  C_3
REMARK    2  A    between atoms: C_6  and  C_7
REMARK    3  A    between atoms: N_9  and  C_10
REMARK    4  A    between atoms: C_10  and  C_11
REMARK    5  A    between atoms: C_14  and  C_15
REMARK    6  A    between atoms: C_15  and  N_16
REMARK    7  A    between atoms: C_17  and  C_19
REMARK                            x       y       z     vdW  Elec       q    Type
REMARK                         _______ _______ _______ _____ _____    ______ ____
ROOT
ATOM      1  C   UNL     1      10.367   0.382  -0.475  0.00  0.00    +0.000 A 
ATOM      2  C   UNL     1      11.352   1.323  -0.147  0.00  0.00    +0.000 A 
ATOM      3  C   UNL     1      12.626   0.911   0.265  0.00  0.00    +0.000 A 
ATOM      4  C   UNL     1      12.947  -0.452   0.339  0.00  0.00    +0.000 A 
ATOM      5  C   UNL     1      11.955  -1.390   0.021  0.00  0.00    +0.000 A 
ATOM      6  C   UNL     1      10.685  -0.979  -0.396  0.00  0.00    +0.000 A 
ENDROOT
BRANCH   1   7
ATOM      7  C   UNL     1       8.998   0.829  -0.909  0.00  0.00    +0.000 C 
BRANCH   7  10
ATOM      8  C   UNL     1       7.735   1.447  -2.900  0.00  0.00    +0.000 C 
ATOM      9  O   UNL     1       6.742   1.715  -2.230  0.00  0.00    +0.000 OA
ATOM     10  N   UNL     1       8.922   1.037  -2.336  0.00  0.00    +0.000 N 
ATOM     11  H   UNL     1       9.718   0.785  -2.905  0.00  0.00    +0.000 HD
BRANCH   8  15
ATOM     12  C   UNL     1       6.672  -0.442  -5.241  0.00  0.00    +0.000 C 
ATOM     13  C   UNL     1       5.718   0.722  -5.511  0.00  0.00    +0.000 C 
ATOM     14  C   UNL     1       6.413   1.995  -5.013  0.00  0.00    +0.000 C 
ATOM     15  C   UNL     1       7.761   1.564  -4.420  0.00  0.00    +0.000 C 
ATOM     16  C   UNL     1       8.042   0.223  -5.099  0.00  0.00    +0.000 C 
BRANCH  12  18
ATOM     17  N   UNL     1       5.957  -1.845  -3.129  0.00  0.00    +0.000 NA
ATOM     18  C   UNL     1       6.273  -1.211  -4.044  0.00  0.00    +0.000 C 
ENDBRANCH  12  18
ENDBRANCH   8  15
ENDBRANCH   7  10
ENDBRANCH   1   7
BRANCH   4  19
ATOM     19  C   UNL     1      14.321  -0.922   0.757  0.00  0.00    +0.000 C 
BRANCH  19  20
ATOM     20  N   UNL     1      14.413  -1.122   2.180  0.00  0.00    +0.000 N 
ATOM     21  C   UNL     1      15.579  -1.541   2.777  0.00  0.00    +0.000 C 
ATOM     22  O   UNL     1      16.610  -1.738   2.142  0.00  0.00    +0.000 OA
ATOM     23  H   UNL     1      13.539  -1.280   2.670  0.00  0.00    +0.000 HD
BRANCH  21  24
ATOM     24  C   UNL     1      15.536  -1.673   4.240  0.00  0.00    +0.000 A 
ATOM     25  C   UNL     1      16.690  -1.510   4.993  0.00  0.00    +0.000 A 
ATOM     26  S   UNL     1      16.433  -1.660   6.675  0.00  0.00    +0.000 S 
ATOM     27  C   UNL     1      14.780  -1.993   6.450  0.00  0.00    +0.000 A 
ATOM     28  N   UNL     1      13.962  -2.254   7.505  0.00  0.00    +0.000 NA
ATOM     29  C   UNL     1      12.740  -2.514   7.183  0.00  0.00    +0.000 A 
ATOM     30  N   UNL     1      12.257  -2.530   5.902  0.00  0.00    +0.000 N 
ATOM     31  C   UNL     1      13.033  -2.233   4.809  0.00  0.00    +0.000 A 
ATOM     32  O   UNL     1      12.553  -2.187   3.681  0.00  0.00    +0.000 OA
ATOM     33  C   UNL     1      14.424  -1.961   5.112  0.00  0.00    +0.000 A 
ATOM     34  H   UNL     1      11.282  -2.720   5.714  0.00  0.00    +0.000 HD
ENDBRANCH  21  24
ENDBRANCH  19  20
ENDBRANCH   4  19
TORSDOF 7
