REMARK  Name = 
REMARK  5 active torsions:
REMARK  status: ('A' for Active; 'I' for Inactive)
REMARK    1  A    between atoms: C_2  and  C_3
REMARK    2  A    between atoms: C_5  and  C_6
REMARK    3  A    between atoms: C_12  and  N_13
REMARK    4  A    between atoms: N_13  and  C_14
REMARK    5  A    between atoms: C_14  and  C_15
REMARK                            x       y       z     vdW  Elec       q    Type
REMARK                         _______ _______ _______ _____ _____    ______ ____
ROOT
ATOM      1  C   UNL     1      -1.277  -0.413   0.731  0.00  0.00    +0.000 A 
ATOM      2  C   UNL     1      -1.731   0.875   0.422  0.00  0.00    +0.000 A 
ATOM      3  C   UNL     1      -1.027   1.663  -0.489  0.00  0.00    +0.000 A 
ATOM      4  C   UNL     1       0.122   1.116  -1.036  0.00  0.00    +0.000 A 
ATOM      5  N   UNL     1       0.590  -0.117  -0.735  0.00  0.00    +0.000 NA
ATOM      6  C   UNL     1      -0.099  -0.889   0.138  0.00  0.00    +0.000 A 
ENDROOT
BRANCH   3   7
ATOM      7  C   UNL     1      -1.473   3.034  -0.893  0.00  0.00    +0.000 C 
ATOM      8  F   UNL     1      -2.591   3.451  -0.238  0.00  0.00    +0.000 F 
ATOM      9  F   UNL     1      -0.527   3.983  -0.659  0.00  0.00    +0.000 F 
ATOM     10  F   UNL     1      -1.766   3.112  -2.219  0.00  0.00    +0.000 F 
ENDBRANCH   3   7
BRANCH   1  12
ATOM     11  N   UNL     1      -2.665  -1.817   2.414  0.00  0.00    +0.000 NA
ATOM     12  C   UNL     1      -2.023  -1.202   1.670  0.00  0.00    +0.000 C 
ENDBRANCH   1  12
BRANCH   6  13
ATOM     13  N   UNL     1       0.412  -2.148   0.507  0.00  0.00    +0.000 N 
ATOM     14  H   UNL     1      -0.265  -2.892   0.336  0.00  0.00    +0.000 HD
BRANCH  13  15
ATOM     15  C   UNL     1       1.807  -2.561   0.164  0.00  0.00    +0.000 C 
ATOM     16  C   UNL     1       2.687  -2.736   1.403  0.00  0.00    +0.000 C 
ATOM     17  C   UNL     1       3.022  -1.678   0.408  0.00  0.00    +0.000 C 
BRANCH  15  18
ATOM     18  C   UNL     1       1.917  -3.612  -0.970  0.00  0.00    +0.000 A 
ATOM     19  N   UNL     1       2.775  -3.395  -1.994  0.00  0.00    +0.000 NA
ATOM     20  C   UNL     1       2.851  -4.328  -2.959  0.00  0.00    +0.000 A 
ATOM     21  C   UNL     1       2.110  -5.481  -2.954  0.00  0.00    +0.000 A 
ATOM     22  C   UNL     1       1.265  -5.629  -1.884  0.00  0.00    +0.000 A 
ATOM     23  N   UNL     1       1.141  -4.722  -0.893  0.00  0.00    +0.000 NA
ENDBRANCH  15  18
ENDBRANCH  13  15
ENDBRANCH   6  13
TORSDOF 5
