REMARK  Name = 
REMARK  7 active torsions:
REMARK  status: ('A' for Active; 'I' for Inactive)
REMARK    1  A    between atoms: C_2  and  C_22
REMARK    2  A    between atoms: N_3  and  C_4
REMARK    3  A    between atoms: C_4  and  C_5
REMARK    4  A    between atoms: C_8  and  C_9
REMARK    5  A    between atoms: C_9  and  C_10
REMARK    6  A    between atoms: C_10  and  O_11
REMARK    7  A    between atoms: C_10  and  C_12
REMARK                            x       y       z     vdW  Elec       q    Type
REMARK                         _______ _______ _______ _____ _____    ______ ____
ROOT
ATOM      1  C   UNL     1       3.308  -2.644  -2.428  0.00  0.00    +0.000 A 
ATOM      2  C   UNL     1       4.394  -2.072  -3.101  0.00  0.00    +0.000 A 
ATOM      3  C   UNL     1       5.302  -2.870  -3.806  0.00  0.00    +0.000 A 
ATOM      4  C   UNL     1       5.141  -4.261  -3.861  0.00  0.00    +0.000 A 
ATOM      5  C   UNL     1       4.038  -4.830  -3.209  0.00  0.00    +0.000 A 
ATOM      6  C   UNL     1       3.128  -4.028  -2.504  0.00  0.00    +0.000 A 
ENDROOT
BRANCH   1   7
ATOM      7  C   UNL     1       2.357  -1.762  -1.661  0.00  0.00    +0.000 C 
BRANCH   7  10
ATOM      8  O   UNL     1       2.304   0.611  -3.173  0.00  0.00    +0.000 OA
ATOM      9  C   UNL     1       1.338  -0.157  -3.209  0.00  0.00    +0.000 C 
ATOM     10  N   UNL     1       1.265  -1.302  -2.467  0.00  0.00    +0.000 N 
ATOM     11  H   UNL     1       0.585  -2.011  -2.713  0.00  0.00    +0.000 HD
BRANCH   9  12
ATOM     12  C   UNL     1       0.168   0.138  -4.034  0.00  0.00    +0.000 A 
ATOM     13  C   UNL     1      -0.208   1.442  -4.350  0.00  0.00    +0.000 A 
ATOM     14  S   UNL     1      -1.600   1.513  -5.331  0.00  0.00    +0.000 S 
ATOM     15  C   UNL     1      -1.721  -0.185  -5.386  0.00  0.00    +0.000 A 
ATOM     16  N   UNL     1      -2.704  -0.808  -6.090  0.00  0.00    +0.000 NA
ATOM     17  C   UNL     1      -2.646  -2.097  -6.060  0.00  0.00    +0.000 A 
ATOM     18  N   UNL     1      -1.699  -2.828  -5.388  0.00  0.00    +0.000 N 
ATOM     19  C   UNL     1      -0.744  -2.250  -4.607  0.00  0.00    +0.000 A 
ATOM     20  O   UNL     1      -0.008  -2.947  -3.904  0.00  0.00    +0.000 OA
ATOM     21  C   UNL     1      -0.733  -0.803  -4.645  0.00  0.00    +0.000 A 
ATOM     22  H   UNL     1      -1.730  -3.838  -5.363  0.00  0.00    +0.000 HD
ENDBRANCH   9  12
ENDBRANCH   7  10
ENDBRANCH   1   7
BRANCH   4  23
ATOM     23  C   UNL     1       6.112  -5.139  -4.632  0.00  0.00    +0.000 C 
BRANCH  23  24
ATOM     24  C   UNL     1       7.563  -5.061  -4.122  0.00  0.00    +0.000 C 
BRANCH  24  25
ATOM     25  C   UNL     1       8.555  -5.816  -5.051  0.00  0.00    +0.000 C 
ATOM     26  O   UNL     1       8.157  -6.430  -6.041  0.00  0.00    +0.000 OA
ATOM     27  N   UNL     1       9.913  -5.692  -4.754  0.00  0.00    +0.000 N 
ATOM     28  C   UNL     1      10.909  -6.203  -5.691  0.00  0.00    +0.000 C 
ATOM     29  C   UNL     1      11.694  -7.357  -5.075  0.00  0.00    +0.000 C 
ATOM     30  C   UNL     1      12.284  -6.964  -3.719  0.00  0.00    +0.000 C 
ATOM     31  C   UNL     1      11.210  -6.392  -2.795  0.00  0.00    +0.000 C 
ATOM     32  C   UNL     1      10.463  -5.242  -3.472  0.00  0.00    +0.000 C 
ENDBRANCH  24  25
BRANCH  24  33
ATOM     33  O   UNL     1       7.605  -5.515  -2.768  0.00  0.00    +0.000 OA
ATOM     34  H   UNL     1       7.187  -6.391  -2.738  0.00  0.00    +0.000 HD
ENDBRANCH  24  33
ENDBRANCH  23  24
ENDBRANCH   4  23
TORSDOF 7
