REMARK  Name = 
REMARK  9 active torsions:
REMARK  status: ('A' for Active; 'I' for Inactive)
REMARK    1  A    between atoms: C_1  and  O_2
REMARK    2  A    between atoms: O_2  and  C_3
REMARK    3  A    between atoms: C_3  and  C_4
REMARK    4  A    between atoms: C_4  and  N_5
REMARK    5  A    between atoms: N_5  and  C_6
REMARK    6  A    between atoms: C_6  and  C_7
REMARK    7  A    between atoms: C_10  and  C_11
REMARK    8  A    between atoms: C_11  and  N_12
REMARK    9  A    between atoms: C_20  and  C_22
REMARK                            x       y       z     vdW  Elec       q    Type
REMARK                         _______ _______ _______ _____ _____    ______ ____
ROOT
ATOM      1  N   UNL     1       4.866   0.269   2.535  0.00  0.00    +0.000 N 
ATOM      2  C   UNL     1       6.216   0.677   2.528  0.00  0.00    +0.000 C 
ATOM      3  O   UNL     1       6.942   0.441   1.560  0.00  0.00    +0.000 OA
ENDROOT
BRANCH   2   4
ATOM      4  C   UNL     1       6.783   1.388   3.694  0.00  0.00    +0.000 A 
ATOM      5  C   UNL     1       6.608   1.006   5.017  0.00  0.00    +0.000 A 
ATOM      6  S   UNL     1       7.384   2.031   6.140  0.00  0.00    +0.000 S 
ATOM      7  C   UNL     1       8.124   2.921   4.895  0.00  0.00    +0.000 A 
ATOM      8  N   UNL     1       9.012   3.912   5.182  0.00  0.00    +0.000 NA
ATOM      9  C   UNL     1       9.539   4.461   4.140  0.00  0.00    +0.000 A 
ATOM     10  N   UNL     1       9.232   4.139   2.841  0.00  0.00    +0.000 N 
ATOM     11  C   UNL     1       8.246   3.232   2.506  0.00  0.00    +0.000 A 
ATOM     12  O   UNL     1       7.852   3.132   1.351  0.00  0.00    +0.000 OA
ATOM     13  C   UNL     1       7.704   2.506   3.643  0.00  0.00    +0.000 A 
ATOM     14  H   UNL     1       9.638   4.652   2.072  0.00  0.00    +0.000 HD
ENDBRANCH   2   4
BRANCH   1  15
ATOM     15  C   UNL     1       4.365  -0.448   1.343  0.00  0.00    +0.000 C 
BRANCH  15  16
ATOM     16  C   UNL     1       4.988  -1.821   1.034  0.00  0.00    +0.000 C 
BRANCH  16  18
ATOM     17  C   UNL     1       4.994  -4.122   1.518  0.00  0.00    +0.000 C 
ATOM     18  O   UNL     1       4.536  -2.833   1.945  0.00  0.00    +0.000 OA
ENDBRANCH  16  18
ENDBRANCH  15  16
ENDBRANCH   1  15
BRANCH   1  19
ATOM     19  C   UNL     1       3.968   0.545   3.656  0.00  0.00    +0.000 C 
BRANCH  19  20
ATOM     20  C   UNL     1       2.484   0.608   3.434  0.00  0.00    +0.000 A 
ATOM     21  C   UNL     1       1.877   1.735   2.879  0.00  0.00    +0.000 A 
ATOM     22  C   UNL     1       0.488   1.837   2.881  0.00  0.00    +0.000 A 
ATOM     23  C   UNL     1      -0.267   0.793   3.408  0.00  0.00    +0.000 A 
ATOM     24  N   UNL     1       0.304  -0.339   3.894  0.00  0.00    +0.000 NA
ATOM     25  C   UNL     1       1.653  -0.404   3.903  0.00  0.00    +0.000 A 
BRANCH  23  26
ATOM     26  C   UNL     1      -1.774   0.915   3.520  0.00  0.00    +0.000 C 
BRANCH  26  27
ATOM     27  N   UNL     1      -2.590   0.476   2.387  0.00  0.00    +0.000 NA
ATOM     28  C   UNL     1      -2.455  -0.944   2.037  0.00  0.00    +0.000 C 
ATOM     29  C   UNL     1      -1.490  -1.249   0.879  0.00  0.00    +0.000 C 
ATOM     30  O   UNL     1      -1.771  -0.432  -0.264  0.00  0.00    +0.000 OA
ATOM     31  C   UNL     1      -1.637   0.950   0.077  0.00  0.00    +0.000 C 
ATOM     32  C   UNL     1      -2.598   1.347   1.210  0.00  0.00    +0.000 C 
ENDBRANCH  26  27
ENDBRANCH  23  26
ENDBRANCH  19  20
ENDBRANCH   1  19
TORSDOF 8
