REMARK  Name = 
REMARK  7 active torsions:
REMARK  status: ('A' for Active; 'I' for Inactive)
REMARK    1  A    between atoms: C_2  and  C_4
REMARK    2  A    between atoms: C_7  and  C_8
REMARK    3  A    between atoms: C_8  and  C_9
REMARK    4  A    between atoms: C_9  and  C_10
REMARK    5  A    between atoms: C_14  and  C_15
REMARK    6  A    between atoms: C_19  and  O_20
REMARK    7  A    between atoms: O_20  and  C_21
REMARK                            x       y       z     vdW  Elec       q    Type
REMARK                         _______ _______ _______ _____ _____    ______ ____
ROOT
ATOM      1  C   UNL     1       5.005  -3.925  -4.479  0.00  0.00    +0.000 C 
ATOM      2  C   UNL     1       4.959  -2.814  -5.532  0.00  0.00    +0.000 C 
ATOM      3  C   UNL     1       3.697  -3.480  -5.109  0.00  0.00    +0.000 C 
ATOM      4  F   UNL     1       2.820  -2.746  -4.333  0.00  0.00    +0.000 F 
ENDROOT
BRANCH   1   5
ATOM      5  C   UNL     1       5.439  -5.329  -4.880  0.00  0.00    +0.000 A 
ATOM      6  C   UNL     1       5.018  -6.451  -4.165  0.00  0.00    +0.000 A 
ATOM      7  C   UNL     1       5.349  -7.721  -4.619  0.00  0.00    +0.000 A 
ATOM      8  C   UNL     1       6.077  -7.853  -5.794  0.00  0.00    +0.000 A 
ATOM      9  C   UNL     1       6.466  -6.706  -6.479  0.00  0.00    +0.000 A 
ATOM     10  N   UNL     1       6.171  -5.467  -6.016  0.00  0.00    +0.000 NA
BRANCH   9  11
ATOM     11  C   UNL     1       7.186  -6.743  -7.760  0.00  0.00    +0.000 A 
ATOM     12  C   UNL     1       8.094  -5.741  -8.109  0.00  0.00    +0.000 A 
ATOM     13  N   UNL     1       8.793  -5.697  -9.269  0.00  0.00    +0.000 NA
ATOM     14  C   UNL     1       8.574  -6.706 -10.142  0.00  0.00    +0.000 A 
ATOM     15  C   UNL     1       7.705  -7.762  -9.908  0.00  0.00    +0.000 A 
ATOM     16  C   UNL     1       6.987  -7.759  -8.712  0.00  0.00    +0.000 A 
BRANCH  15  17
ATOM     17  O   UNL     1       7.611  -8.703 -10.890  0.00  0.00    +0.000 OA
BRANCH  17  18
ATOM     18  C   UNL     1       7.217  -9.995 -10.455  0.00  0.00    +0.000 C 
ATOM     19  F   UNL     1       5.864 -10.037 -10.380  0.00  0.00    +0.000 F 
ATOM     20  F   UNL     1       7.586 -10.877 -11.416  0.00  0.00    +0.000 F 
ENDBRANCH  17  18
ENDBRANCH  15  17
ENDBRANCH   9  11
ENDBRANCH   1   5
BRANCH   1  21
ATOM     21  C   UNL     1       5.264  -3.506  -3.043  0.00  0.00    +0.000 C 
BRANCH  21  25
ATOM     22  C   UNL     1       9.267  -3.149  -1.606  0.00  0.00    +0.000 A 
ATOM     23  C   UNL     1       9.026  -2.883  -2.952  0.00  0.00    +0.000 A 
ATOM     24  C   UNL     1       7.739  -3.056  -3.466  0.00  0.00    +0.000 A 
ATOM     25  C   UNL     1       6.720  -3.500  -2.624  0.00  0.00    +0.000 A 
ATOM     26  N   UNL     1       6.957  -3.810  -1.322  0.00  0.00    +0.000 NA
ATOM     27  C   UNL     1       8.217  -3.642  -0.846  0.00  0.00    +0.000 A 
BRANCH  22  29
ATOM     28  N   UNL     1      11.349  -1.911  -1.487  0.00  0.00    +0.000 N 
ATOM     29  C   UNL     1      10.572  -2.903  -0.958  0.00  0.00    +0.000 C 
ATOM     30  O   UNL     1      10.919  -3.521   0.040  0.00  0.00    +0.000 OA
ATOM     31  H   UNL     1      12.180  -1.662  -0.964  0.00  0.00    +0.000 HD
ATOM     32  H   UNL     1      10.984  -1.222  -2.131  0.00  0.00    +0.000 HD
ENDBRANCH  22  29
ENDBRANCH  21  25
ENDBRANCH   1  21
TORSDOF 7
