REMARK  Name = 
REMARK  7 active torsions:
REMARK  status: ('A' for Active; 'I' for Inactive)
REMARK    1  A    between atoms: C_1  and  C_2
REMARK    2  A    between atoms: C_2  and  N_3
REMARK    3  A    between atoms: C_2  and  C_16
REMARK    4  A    between atoms: C_4  and  C_6
REMARK    5  A    between atoms: C_19  and  C_20
REMARK    6  A    between atoms: C_20  and  N_21
REMARK    7  A    between atoms: C_22  and  C_24
REMARK                            x       y       z     vdW  Elec       q    Type
REMARK                         _______ _______ _______ _____ _____    ______ ____
ROOT
ATOM      1  C   UNL     1       3.618  -0.178  -1.076  0.00  0.00    +0.000 C 
ATOM      2  C   UNL     1       2.573   0.061   0.020  0.00  0.00    +0.000 C 
ENDROOT
BRANCH   2   3
ATOM      3  C   UNL     1       2.929  -0.731   1.274  0.00  0.00    +0.000 A 
ATOM      4  C   UNL     1       3.264  -0.077   2.467  0.00  0.00    +0.000 A 
ATOM      5  C   UNL     1       3.542  -0.808   3.629  0.00  0.00    +0.000 A 
ATOM      6  C   UNL     1       3.498  -2.209   3.624  0.00  0.00    +0.000 A 
ATOM      7  C   UNL     1       3.165  -2.865   2.434  0.00  0.00    +0.000 A 
ATOM      8  C   UNL     1       2.892  -2.136   1.273  0.00  0.00    +0.000 A 
BRANCH   6   9
ATOM      9  C   UNL     1       3.771  -2.995   4.881  0.00  0.00    +0.000 C 
BRANCH   9  10
ATOM     10  N   UNL     1       2.559  -3.226   5.636  0.00  0.00    +0.000 N 
ATOM     11  C   UNL     1       2.576  -3.991   6.777  0.00  0.00    +0.000 C 
ATOM     12  O   UNL     1       3.599  -4.534   7.191  0.00  0.00    +0.000 OA
ATOM     13  H   UNL     1       1.771  -2.612   5.462  0.00  0.00    +0.000 HD
BRANCH  11  14
ATOM     14  C   UNL     1       1.241  -4.199   7.483  0.00  0.00    +0.000 C 
ATOM     15  C   UNL     1       0.238  -4.946   6.633  0.00  0.00    +0.000 C 
ATOM     16  C   UNL     1      -0.499  -3.846   5.898  0.00  0.00    +0.000 C 
ATOM     17  O   UNL     1      -0.320  -2.632   6.643  0.00  0.00    +0.000 OA
ATOM     18  C   UNL     1       0.519  -2.904   7.778  0.00  0.00    +0.000 C 
ENDBRANCH  11  14
ENDBRANCH   9  10
ENDBRANCH   6   9
ENDBRANCH   2   3
BRANCH   2  19
ATOM     19  N   UNL     1       1.228  -0.304  -0.400  0.00  0.00    +0.000 N 
ATOM     20  C   UNL     1       0.578   0.271  -1.462  0.00  0.00    +0.000 C 
ATOM     21  O   UNL     1       1.100   1.111  -2.187  0.00  0.00    +0.000 OA
ATOM     22  H   UNL     1       0.656  -0.744   0.314  0.00  0.00    +0.000 HD
BRANCH  20  23
ATOM     23  C   UNL     1      -0.774  -0.231  -1.736  0.00  0.00    +0.000 A 
ATOM     24  C   UNL     1      -1.267  -0.204  -3.034  0.00  0.00    +0.000 A 
ATOM     25  S   UNL     1      -2.845  -0.834  -3.178  0.00  0.00    +0.000 S 
ATOM     26  C   UNL     1      -2.940  -1.128  -1.505  0.00  0.00    +0.000 A 
ATOM     27  N   UNL     1      -4.069  -1.642  -0.947  0.00  0.00    +0.000 NA
ATOM     28  C   UNL     1      -4.014  -1.782   0.336  0.00  0.00    +0.000 A 
ATOM     29  N   UNL     1      -2.925  -1.472   1.110  0.00  0.00    +0.000 N 
ATOM     30  C   UNL     1      -1.749  -0.993   0.585  0.00  0.00    +0.000 A 
ATOM     31  O   UNL     1      -0.765  -0.796   1.289  0.00  0.00    +0.000 OA
ATOM     32  C   UNL     1      -1.771  -0.782  -0.850  0.00  0.00    +0.000 A 
ATOM     33  H   UNL     1      -2.940  -1.626   2.106  0.00  0.00    +0.000 HD
ENDBRANCH  20  23
ENDBRANCH   2  19
TORSDOF 6
