REMARK  Name = 
REMARK  6 active torsions:
REMARK  status: ('A' for Active; 'I' for Inactive)
REMARK    1  A    between atoms: C_2  and  C_25
REMARK    2  A    between atoms: N_3  and  C_4
REMARK    3  A    between atoms: C_4  and  C_5
REMARK    4  A    between atoms: C_8  and  C_9
REMARK    5  A    between atoms: C_9  and  N_10
REMARK    6  A    between atoms: C_11  and  C_13
REMARK                            x       y       z     vdW  Elec       q    Type
REMARK                         _______ _______ _______ _____ _____    ______ ____
ROOT
ATOM      1  C   UNL     1       3.260   1.818  -3.261  0.00  0.00    +0.000 A 
ATOM      2  C   UNL     1       3.271   3.193  -3.490  0.00  0.00    +0.000 A 
ATOM      3  C   UNL     1       4.104   3.714  -4.481  0.00  0.00    +0.000 A 
ATOM      4  C   UNL     1       4.933   2.862  -5.213  0.00  0.00    +0.000 A 
ATOM      5  C   UNL     1       4.859   1.506  -4.914  0.00  0.00    +0.000 A 
ATOM      6  N   UNL     1       4.052   0.968  -3.964  0.00  0.00    +0.000 NA
ENDROOT
BRANCH   1   7
ATOM      7  C   UNL     1       2.323   1.226  -2.227  0.00  0.00    +0.000 C 
BRANCH   7  10
ATOM      8  O   UNL     1       2.154   3.291  -0.300  0.00  0.00    +0.000 OA
ATOM      9  C   UNL     1       2.736   2.247  -0.011  0.00  0.00    +0.000 C 
ATOM     10  N   UNL     1       2.872   1.197  -0.887  0.00  0.00    +0.000 N 
ATOM     11  H   UNL     1       3.401   0.385  -0.575  0.00  0.00    +0.000 HD
BRANCH   9  12
ATOM     12  C   UNL     1       3.336   2.048   1.350  0.00  0.00    +0.000 A 
ATOM     13  C   UNL     1       3.193   3.050   2.303  0.00  0.00    +0.000 A 
ATOM     14  C   UNL     1       3.742   2.847   3.565  0.00  0.00    +0.000 A 
ATOM     15  C   UNL     1       4.415   1.658   3.828  0.00  0.00    +0.000 A 
ATOM     16  C   UNL     1       4.513   0.716   2.816  0.00  0.00    +0.000 A 
ATOM     17  N   UNL     1       3.987   0.873   1.578  0.00  0.00    +0.000 NA
ENDBRANCH   9  12
ENDBRANCH   7  10
ENDBRANCH   1   7
BRANCH   4  18
ATOM     18  C   UNL     1       5.844   3.379  -6.290  0.00  0.00    +0.000 C 
BRANCH  18  19
ATOM     19  N   UNL     1       5.201   3.383  -7.583  0.00  0.00    +0.000 N 
ATOM     20  C   UNL     1       5.871   3.766  -8.718  0.00  0.00    +0.000 C 
ATOM     21  O   UNL     1       7.060   4.076  -8.704  0.00  0.00    +0.000 OA
ATOM     22  H   UNL     1       4.187   3.368  -7.592  0.00  0.00    +0.000 HD
BRANCH  20  23
ATOM     23  C   UNL     1       5.101   3.740  -9.971  0.00  0.00    +0.000 A 
ATOM     24  C   UNL     1       5.754   3.573 -11.186  0.00  0.00    +0.000 A 
ATOM     25  S   UNL     1       4.700   3.531 -12.528  0.00  0.00    +0.000 S 
ATOM     26  C   UNL     1       3.339   3.779 -11.537  0.00  0.00    +0.000 A 
ATOM     27  N   UNL     1       2.091   3.872 -12.071  0.00  0.00    +0.000 NA
ATOM     28  C   UNL     1       1.155   4.078 -11.204  0.00  0.00    +0.000 A 
ATOM     29  N   UNL     1       1.353   4.194  -9.854  0.00  0.00    +0.000 N 
ATOM     30  C   UNL     1       2.590   4.082  -9.269  0.00  0.00    +0.000 A 
ATOM     31  O   UNL     1       2.728   4.143  -8.051  0.00  0.00    +0.000 OA
ATOM     32  C   UNL     1       3.681   3.866 -10.200  0.00  0.00    +0.000 A 
ATOM     33  H   UNL     1       0.575   4.336  -9.227  0.00  0.00    +0.000 HD
ENDBRANCH  20  23
ENDBRANCH  18  19
ENDBRANCH   4  18
TORSDOF 6
