REMARK  Name = 
REMARK  7 active torsions:
REMARK  status: ('A' for Active; 'I' for Inactive)
REMARK    1  A    between atoms: N_1  and  C_2
REMARK    2  A    between atoms: C_2  and  C_3
REMARK    3  A    between atoms: N_7  and  C_8
REMARK    4  A    between atoms: C_8  and  C_9
REMARK    5  A    between atoms: C_12  and  C_13
REMARK    6  A    between atoms: C_13  and  N_14
REMARK    7  A    between atoms: C_15  and  C_17
REMARK                            x       y       z     vdW  Elec       q    Type
REMARK                         _______ _______ _______ _____ _____    ______ ____
ROOT
ATOM      1  C   UNL     1       1.332   5.136   2.563  0.00  0.00    +0.000 A 
ATOM      2  C   UNL     1       2.202   5.174   3.666  0.00  0.00    +0.000 A 
ATOM      3  C   UNL     1       1.751   5.590   4.923  0.00  0.00    +0.000 A 
ATOM      4  C   UNL     1       0.426   6.000   5.101  0.00  0.00    +0.000 A 
ATOM      5  C   UNL     1      -0.418   6.051   3.983  0.00  0.00    +0.000 A 
ATOM      6  C   UNL     1       0.025   5.609   2.731  0.00  0.00    +0.000 A 
ENDROOT
BRANCH   1   7
ATOM      7  C   UNL     1       1.797   4.578   1.228  0.00  0.00    +0.000 C 
BRANCH   7  12
ATOM      8  C   UNL     1       2.125   1.222  -0.610  0.00  0.00    +0.000 C 
ATOM      9  C   UNL     1       2.975   0.545   0.471  0.00  0.00    +0.000 C 
ATOM     10  C   UNL     1       2.420   0.858   1.852  0.00  0.00    +0.000 C 
ATOM     11  C   UNL     1       2.368   2.367   2.079  0.00  0.00    +0.000 C 
ATOM     12  N   UNL     1       1.614   3.109   1.052  0.00  0.00    +0.000 NA
ATOM     13  C   UNL     1       2.049   2.739  -0.314  0.00  0.00    +0.000 C 
BRANCH   8  14
ATOM     14  C   UNL     1       0.731   0.585  -0.776  0.00  0.00    +0.000 C 
BRANCH  14  15
ATOM     15  N   UNL     1       0.825  -0.817  -1.199  0.00  0.00    +0.000 NA
ATOM     16  H   UNL     1      -0.113  -1.189  -1.343  0.00  0.00    +0.000 HD
ATOM     17  H   UNL     1       1.228  -1.375  -0.447  0.00  0.00    +0.000 HD
ENDBRANCH  14  15
ENDBRANCH   8  14
ENDBRANCH   7  12
ENDBRANCH   1   7
BRANCH   4  18
ATOM     18  C   UNL     1      -0.083   6.379   6.467  0.00  0.00    +0.000 C 
BRANCH  18  19
ATOM     19  N   UNL     1       0.138   7.772   6.753  0.00  0.00    +0.000 N 
ATOM     20  C   UNL     1      -0.150   8.289   7.993  0.00  0.00    +0.000 C 
ATOM     21  O   UNL     1      -0.535   7.580   8.919  0.00  0.00    +0.000 OA
ATOM     22  H   UNL     1       0.233   8.396   5.958  0.00  0.00    +0.000 HD
BRANCH  20  23
ATOM     23  C   UNL     1       0.081   9.725   8.177  0.00  0.00    +0.000 A 
ATOM     24  C   UNL     1       0.268  10.233   9.456  0.00  0.00    +0.000 A 
ATOM     25  S   UNL     1       0.565  11.911   9.493  0.00  0.00    +0.000 S 
ATOM     26  C   UNL     1       0.399  12.032   7.804  0.00  0.00    +0.000 A 
ATOM     27  N   UNL     1       0.516  13.233   7.176  0.00  0.00    +0.000 NA
ATOM     28  C   UNL     1       0.336  13.186   5.897  0.00  0.00    +0.000 A 
ATOM     29  N   UNL     1       0.062  12.046   5.190  0.00  0.00    +0.000 N 
ATOM     30  C   UNL     1      -0.035  10.807   5.778  0.00  0.00    +0.000 A 
ATOM     31  O   UNL     1      -0.246   9.799   5.109  0.00  0.00    +0.000 OA
ATOM     32  C   UNL     1       0.144  10.805   7.218  0.00  0.00    +0.000 A 
ATOM     33  H   UNL     1      -0.066  12.075   4.189  0.00  0.00    +0.000 HD
ENDBRANCH  20  23
ENDBRANCH  18  19
ENDBRANCH   4  18
TORSDOF 7
