REMARK  Name = 
REMARK  6 active torsions:
REMARK  status: ('A' for Active; 'I' for Inactive)
REMARK    1  A    between atoms: C_2  and  C_4
REMARK    2  A    between atoms: C_7  and  O_8
REMARK    3  A    between atoms: O_8  and  C_9
REMARK    4  A    between atoms: C_9  and  C_10
REMARK    5  A    between atoms: C_10  and  C_13
REMARK    6  A    between atoms: N_18  and  C_19
REMARK                            x       y       z     vdW  Elec       q    Type
REMARK                         _______ _______ _______ _____ _____    ______ ____
ROOT
ATOM      1  C   UNL     1       6.374  -5.336   4.431  0.00  0.00    +0.000 C 
ATOM      2  F   UNL     1       7.534  -4.952   5.040  0.00  0.00    +0.000 F 
ATOM      3  F   UNL     1       5.391  -4.582   5.001  0.00  0.00    +0.000 F 
ENDROOT
BRANCH   1   4
ATOM      4  C   UNL     1       6.133  -6.822   4.608  0.00  0.00    +0.000 A 
ATOM      5  C   UNL     1       5.009  -7.316   5.266  0.00  0.00    +0.000 A 
ATOM      6  C   UNL     1       4.870  -8.691   5.382  0.00  0.00    +0.000 A 
ATOM      7  N   UNL     1       5.755  -9.594   4.892  0.00  0.00    +0.000 NA
ATOM      8  C   UNL     1       6.837  -9.118   4.252  0.00  0.00    +0.000 A 
ATOM      9  N   UNL     1       7.822  -9.975   3.729  0.00  0.00    +0.000 N 
ATOM     10  C   UNL     1       7.061  -7.751   4.114  0.00  0.00    +0.000 A 
ATOM     11  H   UNL     1       8.048  -9.719   2.773  0.00  0.00    +0.000 HD
BRANCH   9  12
ATOM     12  C   UNL     1       8.014 -11.350   4.064  0.00  0.00    +0.000 C 
ATOM     13  C   UNL     1       9.023 -12.006   3.100  0.00  0.00    +0.000 C 
ATOM     14  C   UNL     1       8.088 -13.225   3.012  0.00  0.00    +0.000 C 
ATOM     15  F   UNL     1       7.890 -13.708   1.764  0.00  0.00    +0.000 F 
ATOM     16  F   UNL     1       8.449 -14.276   3.782  0.00  0.00    +0.000 F 
ATOM     17  C   UNL     1       6.951 -12.339   3.568  0.00  0.00    +0.000 C 
ENDBRANCH   9  12
ENDBRANCH   1   4
BRANCH   1  18
ATOM     18  C   UNL     1       6.464  -4.975   2.933  0.00  0.00    +0.000 C 
BRANCH  18  19
ATOM     19  O   UNL     1       6.671  -3.568   2.752  0.00  0.00    +0.000 OA
BRANCH  19  23
ATOM     20  C   UNL     1       7.114  -1.933  -0.990  0.00  0.00    +0.000 A 
ATOM     21  C   UNL     1       6.902  -3.308  -0.937  0.00  0.00    +0.000 A 
ATOM     22  C   UNL     1       6.750  -3.912   0.312  0.00  0.00    +0.000 A 
ATOM     23  C   UNL     1       6.809  -3.130   1.463  0.00  0.00    +0.000 A 
ATOM     24  C   UNL     1       7.026  -1.765   1.304  0.00  0.00    +0.000 A 
ATOM     25  N   UNL     1       7.186  -1.142   0.111  0.00  0.00    +0.000 NA
BRANCH  20  27
ATOM     26  N   UNL     1       7.544   0.082  -2.268  0.00  0.00    +0.000 N 
ATOM     27  C   UNL     1       7.276  -1.263  -2.314  0.00  0.00    +0.000 C 
ATOM     28  O   UNL     1       7.189  -1.866  -3.380  0.00  0.00    +0.000 OA
ATOM     29  H   UNL     1       7.689   0.588  -3.129  0.00  0.00    +0.000 HD
ATOM     30  H   UNL     1       7.641   0.541  -1.371  0.00  0.00    +0.000 HD
ENDBRANCH  20  27
ENDBRANCH  19  23
ENDBRANCH  18  19
ENDBRANCH   1  18
TORSDOF 6
