REMARK  Name = 
REMARK  8 active torsions:
REMARK  status: ('A' for Active; 'I' for Inactive)
REMARK    1  A    between atoms: C_1  and  C_2
REMARK    2  A    between atoms: C_6  and  C_7
REMARK    3  A    between atoms: N_9  and  C_10
REMARK    4  A    between atoms: C_10  and  C_11
REMARK    5  A    between atoms: C_14  and  C_15
REMARK    6  A    between atoms: C_15  and  O_16
REMARK    7  A    between atoms: O_16  and  C_17
REMARK    8  A    between atoms: C_17  and  C_19
REMARK                            x       y       z     vdW  Elec       q    Type
REMARK                         _______ _______ _______ _____ _____    ______ ____
ROOT
ATOM      1  C   UNL     1      -5.524  -3.472   0.105  0.00  0.00    +0.000 A 
ATOM      2  C   UNL     1      -6.001  -2.155   0.130  0.00  0.00    +0.000 A 
ATOM      3  C   UNL     1      -7.374  -1.894   0.159  0.00  0.00    +0.000 A 
ATOM      4  C   UNL     1      -8.298  -2.946   0.174  0.00  0.00    +0.000 A 
ATOM      5  C   UNL     1      -7.822  -4.264   0.176  0.00  0.00    +0.000 A 
ATOM      6  C   UNL     1      -6.449  -4.524   0.144  0.00  0.00    +0.000 A 
ENDROOT
BRANCH   1   7
ATOM      7  C   UNL     1      -4.043  -3.748   0.048  0.00  0.00    +0.000 C 
BRANCH   7  10
ATOM      8  C   UNL     1      -2.128  -4.119   1.537  0.00  0.00    +0.000 C 
ATOM      9  O   UNL     1      -1.344  -4.225   0.599  0.00  0.00    +0.000 OA
ATOM     10  N   UNL     1      -3.479  -3.894   1.370  0.00  0.00    +0.000 N 
ATOM     11  H   UNL     1      -4.042  -3.605   2.157  0.00  0.00    +0.000 HD
BRANCH   8  17
ATOM     12  C   UNL     1       1.634  -3.530   4.794  0.00  0.00    +0.000 C 
ATOM     13  C   UNL     1       0.210  -3.919   4.517  0.00  0.00    +0.000 A 
ATOM     14  C   UNL     1      -0.628  -4.346   5.552  0.00  0.00    +0.000 A 
ATOM     15  C   UNL     1      -1.950  -4.709   5.289  0.00  0.00    +0.000 A 
ATOM     16  C   UNL     1      -2.452  -4.639   3.988  0.00  0.00    +0.000 A 
ATOM     17  C   UNL     1      -1.631  -4.199   2.943  0.00  0.00    +0.000 A 
ATOM     18  C   UNL     1      -0.298  -3.854   3.210  0.00  0.00    +0.000 A 
ENDBRANCH   8  17
ENDBRANCH   7  10
ENDBRANCH   1   7
BRANCH   4  19
ATOM     19  C   UNL     1      -9.781  -2.666   0.157  0.00  0.00    +0.000 C 
BRANCH  19  20
ATOM     20  O   UNL     1     -10.390  -3.267  -0.991  0.00  0.00    +0.000 OA
BRANCH  20  21
ATOM     21  C   UNL     1     -10.336  -2.530  -2.130  0.00  0.00    +0.000 C 
ATOM     22  O   UNL     1      -9.778  -1.444  -2.236  0.00  0.00    +0.000 OA
BRANCH  21  23
ATOM     23  C   UNL     1     -10.963  -3.199  -3.265  0.00  0.00    +0.000 A 
ATOM     24  C   UNL     1     -10.450  -3.060  -4.545  0.00  0.00    +0.000 A 
ATOM     25  S   UNL     1     -11.334  -3.929  -5.718  0.00  0.00    +0.000 S 
ATOM     26  C   UNL     1     -12.448  -4.480  -4.554  0.00  0.00    +0.000 A 
ATOM     27  N   UNL     1     -13.505  -5.258  -4.911  0.00  0.00    +0.000 NA
ATOM     28  C   UNL     1     -14.274  -5.591  -3.929  0.00  0.00    +0.000 A 
ATOM     29  N   UNL     1     -14.079  -5.222  -2.622  0.00  0.00    +0.000 N 
ATOM     30  C   UNL     1     -13.049  -4.402  -2.216  0.00  0.00    +0.000 A 
ATOM     31  O   UNL     1     -12.970  -4.018  -1.054  0.00  0.00    +0.000 OA
ATOM     32  C   UNL     1     -12.140  -4.026  -3.284  0.00  0.00    +0.000 A 
ATOM     33  H   UNL     1     -14.735  -5.495  -1.905  0.00  0.00    +0.000 HD
ENDBRANCH  21  23
ENDBRANCH  20  21
ENDBRANCH  19  20
ENDBRANCH   4  19
TORSDOF 7
