REMARK  Name = 
REMARK  6 active torsions:
REMARK  status: ('A' for Active; 'I' for Inactive)
REMARK    1  A    between atoms: C_1  and  C_2
REMARK    2  A    between atoms: C_2  and  N_3
REMARK    3  A    between atoms: C_2  and  C_16
REMARK    4  A    between atoms: C_4  and  C_6
REMARK    5  A    between atoms: C_19  and  O_20
REMARK    6  A    between atoms: O_20  and  C_21
REMARK                            x       y       z     vdW  Elec       q    Type
REMARK                         _______ _______ _______ _____ _____    ______ ____
ROOT
ATOM      1  C   UNL     1       3.099  -1.072   1.154  0.00  0.00    +0.000 C 
ATOM      2  C   UNL     1       2.498  -0.167   0.076  0.00  0.00    +0.000 C 
ENDROOT
BRANCH   2   3
ATOM      3  C   UNL     1       2.958  -0.587  -1.315  0.00  0.00    +0.000 A 
ATOM      4  C   UNL     1       3.175   0.379  -2.297  0.00  0.00    +0.000 A 
ATOM      5  C   UNL     1       3.591  -0.025  -3.566  0.00  0.00    +0.000 A 
ATOM      6  C   UNL     1       3.732  -1.382  -3.843  0.00  0.00    +0.000 A 
ATOM      7  C   UNL     1       3.495  -2.277  -2.812  0.00  0.00    +0.000 A 
ATOM      8  N   UNL     1       3.101  -1.914  -1.569  0.00  0.00    +0.000 NA
BRANCH   6   9
ATOM      9  O   UNL     1       4.145  -1.895  -5.048  0.00  0.00    +0.000 OA
BRANCH   9  10
ATOM     10  C   UNL     1       3.661  -1.346  -6.213  0.00  0.00    +0.000 A 
ATOM     11  C   UNL     1       4.469  -1.459  -7.339  0.00  0.00    +0.000 A 
ATOM     12  C   UNL     1       4.018  -0.902  -8.523  0.00  0.00    +0.000 A 
ATOM     13  N   UNL     1       2.837  -0.261  -8.649  0.00  0.00    +0.000 NA
ATOM     14  C   UNL     1       2.056  -0.201  -7.550  0.00  0.00    +0.000 A 
ATOM     15  C   UNL     1       2.409  -0.746  -6.329  0.00  0.00    +0.000 A 
ENDBRANCH   9  10
ENDBRANCH   6   9
ENDBRANCH   2   3
BRANCH   2  16
ATOM     16  N   UNL     1       1.045  -0.171   0.147  0.00  0.00    +0.000 N 
ATOM     17  C   UNL     1       0.336   0.677   0.955  0.00  0.00    +0.000 C 
ATOM     18  O   UNL     1       0.908   1.514   1.657  0.00  0.00    +0.000 OA
ATOM     19  H   UNL     1       0.576  -0.905  -0.381  0.00  0.00    +0.000 HD
BRANCH  17  20
ATOM     20  C   UNL     1      -1.130   0.564   0.952  0.00  0.00    +0.000 A 
ATOM     21  C   UNL     1      -1.874   1.408   1.770  0.00  0.00    +0.000 A 
ATOM     22  S   UNL     1      -3.556   1.158   1.679  0.00  0.00    +0.000 S 
ATOM     23  C   UNL     1      -3.361  -0.099   0.551  0.00  0.00    +0.000 A 
ATOM     24  N   UNL     1      -4.440  -0.779   0.078  0.00  0.00    +0.000 NA
ATOM     25  C   UNL     1      -4.154  -1.717  -0.761  0.00  0.00    +0.000 A 
ATOM     26  N   UNL     1      -2.887  -2.023  -1.185  0.00  0.00    +0.000 N 
ATOM     27  C   UNL     1      -1.772  -1.339  -0.761  0.00  0.00    +0.000 A 
ATOM     28  O   UNL     1      -0.662  -1.608  -1.206  0.00  0.00    +0.000 OA
ATOM     29  C   UNL     1      -2.031  -0.304   0.223  0.00  0.00    +0.000 A 
ATOM     30  H   UNL     1      -2.729  -2.759  -1.857  0.00  0.00    +0.000 HD
ENDBRANCH  17  20
ENDBRANCH   2  16
TORSDOF 5
