REMARK  Name = 
REMARK  8 active torsions:
REMARK  status: ('A' for Active; 'I' for Inactive)
REMARK    1  A    between atoms: C_1  and  C_2
REMARK    2  A    between atoms: C_2  and  C_3
REMARK    3  A    between atoms: C_7  and  C_8
REMARK    4  A    between atoms: C_8  and  C_9
REMARK    5  A    between atoms: C_9  and  N_10
REMARK    6  A    between atoms: N_10  and  C_11
REMARK    7  A    between atoms: C_14  and  C_15
REMARK    8  A    between atoms: C_23  and  O_24
REMARK                            x       y       z     vdW  Elec       q    Type
REMARK                         _______ _______ _______ _____ _____    ______ ____
ROOT
ATOM      1  C   UNL     1       2.936   0.465   1.465  0.00  0.00    +0.000 A 
ATOM      2  C   UNL     1       2.702   1.741   2.000  0.00  0.00    +0.000 A 
ATOM      3  C   UNL     1       3.020   2.036   3.331  0.00  0.00    +0.000 A 
ATOM      4  C   UNL     1       3.570   1.060   4.164  0.00  0.00    +0.000 A 
ATOM      5  C   UNL     1       3.828  -0.220   3.669  0.00  0.00    +0.000 A 
ATOM      6  C   UNL     1       3.528  -0.479   2.317  0.00  0.00    +0.000 A 
ENDROOT
BRANCH   1   8
ATOM      7  C   UNL     1       0.922   0.175   0.047  0.00  0.00    +0.000 C 
ATOM      8  C   UNL     1       2.468   0.084   0.039  0.00  0.00    +0.000 C 
ATOM      9  C   UNL     1       3.073   1.058  -1.010  0.00  0.00    +0.000 C 
ATOM     10  C   UNL     1       2.730   0.691  -2.456  0.00  0.00    +0.000 C 
ATOM     11  C   UNL     1       3.111  -0.746  -2.800  0.00  0.00    +0.000 C 
ATOM     12  C   UNL     1       2.527  -1.742  -1.808  0.00  0.00    +0.000 C 
ATOM     13  C   UNL     1       2.878  -1.368  -0.371  0.00  0.00    +0.000 C 
BRANCH  11  14
ATOM     14  O   UNL     1       2.655  -1.062  -4.110  0.00  0.00    +0.000 OA
ATOM     15  H   UNL     1       1.682  -1.039  -4.106  0.00  0.00    +0.000 HD
ENDBRANCH  11  14
ENDBRANCH   1   8
BRANCH   5  16
ATOM     16  C   UNL     1       4.370  -1.299   4.597  0.00  0.00    +0.000 C 
BRANCH  16  17
ATOM     17  C   UNL     1       4.641  -2.633   3.887  0.00  0.00    +0.000 C 
BRANCH  17  18
ATOM     18  N   UNL     1       5.104  -3.700   4.775  0.00  0.00    +0.000 N 
ATOM     19  H   UNL     1       4.499  -3.812   5.587  0.00  0.00    +0.000 HD
BRANCH  18  20
ATOM     20  C   UNL     1       5.332  -4.940   4.135  0.00  0.00    +0.000 A 
ATOM     21  C   UNL     1       5.781  -5.050   2.812  0.00  0.00    +0.000 A 
ATOM     22  C   UNL     1       6.063  -6.294   2.250  0.00  0.00    +0.000 A 
ATOM     23  C   UNL     1       5.921  -7.416   3.046  0.00  0.00    +0.000 A 
ATOM     24  N   UNL     1       5.521  -7.375   4.347  0.00  0.00    +0.000 NA
ATOM     25  C   UNL     1       5.259  -6.141   4.850  0.00  0.00    +0.000 A 
BRANCH  23  26
ATOM     26  C   UNL     1       6.243  -8.764   2.476  0.00  0.00    +0.000 C 
ATOM     27  N   UNL     1       6.101  -9.810   3.344  0.00  0.00    +0.000 N 
ATOM     28  O   UNL     1       6.615  -8.925   1.321  0.00  0.00    +0.000 OA
ATOM     29  H   UNL     1       5.819  -9.628   4.299  0.00  0.00    +0.000 HD
ATOM     30  H   UNL     1       6.338 -10.744   3.041  0.00  0.00    +0.000 HD
ENDBRANCH  23  26
ENDBRANCH  18  20
ENDBRANCH  17  18
ENDBRANCH  16  17
ENDBRANCH   5  16
TORSDOF 7
