REMARK  Name = 
REMARK  4 active torsions:
REMARK  status: ('A' for Active; 'I' for Inactive)
REMARK    1  A    between atoms: C_1  and  C_2
REMARK    2  A    between atoms: C_2  and  N_3
REMARK    3  A    between atoms: C_2  and  C_13
REMARK    4  A    between atoms: C_8  and  C_9
REMARK                            x       y       z     vdW  Elec       q    Type
REMARK                         _______ _______ _______ _____ _____    ______ ____
ROOT
ATOM      1  N   UNL     1       2.880  -1.362  -0.277  0.00  0.00    +0.000 N 
ATOM      2  C   UNL     1       3.050  -2.115   0.898  0.00  0.00    +0.000 A 
ATOM      3  C   UNL     1       3.376  -3.476   0.807  0.00  0.00    +0.000 A 
ATOM      4  N   UNL     1       3.562  -4.293   1.879  0.00  0.00    +0.000 NA
ATOM      5  C   UNL     1       3.408  -3.694   3.083  0.00  0.00    +0.000 A 
ATOM      6  C   UNL     1       3.083  -2.354   3.193  0.00  0.00    +0.000 A 
ATOM      7  N   UNL     1       2.886  -1.544   2.110  0.00  0.00    +0.000 NA
ATOM      8  H   UNL     1       3.723  -1.431  -0.844  0.00  0.00    +0.000 HD
ENDROOT
BRANCH   6   9
ATOM      9  C   UNL     1       2.978  -1.724   4.535  0.00  0.00    +0.000 C 
ATOM     10  N   UNL     1       2.706  -0.380   4.540  0.00  0.00    +0.000 N 
ATOM     11  O   UNL     1       3.142  -2.351   5.574  0.00  0.00    +0.000 OA
ATOM     12  H   UNL     1       2.587   0.115   3.663  0.00  0.00    +0.000 HD
ATOM     13  H   UNL     1       2.652   0.115   5.419  0.00  0.00    +0.000 HD
ENDBRANCH   6   9
BRANCH   1  15
ATOM     14  C   UNL     1       0.931   0.113  -0.058  0.00  0.00    +0.000 C 
ATOM     15  C   UNL     1       2.460   0.031  -0.089  0.00  0.00    +0.000 C 
BRANCH  15  16
ATOM     16  C   UNL     1       3.037   0.907  -1.193  0.00  0.00    +0.000 A 
ATOM     17  C   UNL     1       3.954   1.917  -0.854  0.00  0.00    +0.000 A 
ATOM     18  C   UNL     1       4.445   2.793  -1.822  0.00  0.00    +0.000 A 
ATOM     19  C   UNL     1       4.037   2.665  -3.146  0.00  0.00    +0.000 A 
ATOM     20  C   UNL     1       3.150   1.650  -3.505  0.00  0.00    +0.000 A 
ATOM     21  C   UNL     1       2.657   0.772  -2.537  0.00  0.00    +0.000 A 
ENDBRANCH  15  16
ENDBRANCH   1  15
TORSDOF 3
