REMARK  Name = 
REMARK  8 active torsions:
REMARK  status: ('A' for Active; 'I' for Inactive)
REMARK    1  A    between atoms: C_1  and  O_2
REMARK    2  A    between atoms: O_2  and  C_3
REMARK    3  A    between atoms: C_3  and  C_4
REMARK    4  A    between atoms: C_3  and  C_25
REMARK    5  A    between atoms: C_4  and  N_5
REMARK    6  A    between atoms: C_8  and  C_9
REMARK    7  A    between atoms: C_9  and  N_10
REMARK    8  A    between atoms: C_11  and  C_13
REMARK                            x       y       z     vdW  Elec       q    Type
REMARK                         _______ _______ _______ _____ _____    ______ ____
ROOT
ATOM      1  N   UNL     1       0.888  -2.048   1.656  0.00  0.00    +0.000 NA
ATOM      2  C   UNL     1       0.184  -0.802   1.255  0.00  0.00    +0.000 C 
ATOM      3  C   UNL     1      -1.344  -0.897   1.185  0.00  0.00    +0.000 C 
ATOM      4  C   UNL     1      -1.802  -2.066   0.309  0.00  0.00    +0.000 C 
ATOM      5  C   UNL     1      -1.141  -3.328   0.889  0.00  0.00    +0.000 C 
ATOM      6  C   UNL     1       0.395  -3.226   0.928  0.00  0.00    +0.000 C 
ENDROOT
BRANCH   1   7
ATOM      7  C   UNL     1       2.360  -1.832   1.442  0.00  0.00    +0.000 C 
BRANCH   7   8
ATOM      8  C   UNL     1       3.440  -2.927   1.753  0.00  0.00    +0.000 C 
BRANCH   8   9
ATOM      9  C   UNL     1       4.835  -2.352   1.429  0.00  0.00    +0.000 A 
ATOM     10  C   UNL     1       5.389  -1.398   2.296  0.00  0.00    +0.000 A 
ATOM     11  C   UNL     1       6.707  -0.992   2.133  0.00  0.00    +0.000 A 
ATOM     12  C   UNL     1       7.451  -1.533   1.096  0.00  0.00    +0.000 A 
ATOM     13  C   UNL     1       6.829  -2.442   0.252  0.00  0.00    +0.000 A 
ATOM     14  N   UNL     1       5.542  -2.857   0.383  0.00  0.00    +0.000 NA
ENDBRANCH   8   9
BRANCH   8  16
ATOM     15  C   UNL     1       2.622  -4.178   3.667  0.00  0.00    +0.000 C 
ATOM     16  O   UNL     1       3.563  -3.272   3.142  0.00  0.00    +0.000 OA
ENDBRANCH   8  16
ENDBRANCH   7   8
ENDBRANCH   1   7
BRANCH   4  17
ATOM     17  C   UNL     1      -1.466  -1.896  -1.193  0.00  0.00    +0.000 C 
BRANCH  17  18
ATOM     18  N   UNL     1      -2.093  -0.745  -1.821  0.00  0.00    +0.000 N 
ATOM     19  C   UNL     1      -3.340  -0.820  -2.399  0.00  0.00    +0.000 C 
ATOM     20  O   UNL     1      -4.015  -1.846  -2.352  0.00  0.00    +0.000 OA
ATOM     21  H   UNL     1      -1.498   0.045  -2.057  0.00  0.00    +0.000 HD
BRANCH  19  22
ATOM     22  C   UNL     1      -3.865   0.403  -3.025  0.00  0.00    +0.000 A 
ATOM     23  C   UNL     1      -5.239   0.580  -3.113  0.00  0.00    +0.000 A 
ATOM     24  S   UNL     1      -5.697   2.053  -3.837  0.00  0.00    +0.000 S 
ATOM     25  C   UNL     1      -4.077   2.480  -4.125  0.00  0.00    +0.000 A 
ATOM     26  N   UNL     1      -3.759   3.638  -4.761  0.00  0.00    +0.000 NA
ATOM     27  C   UNL     1      -2.503   3.811  -4.962  0.00  0.00    +0.000 A 
ATOM     28  N   UNL     1      -1.523   2.934  -4.568  0.00  0.00    +0.000 N 
ATOM     29  C   UNL     1      -1.788   1.789  -3.850  0.00  0.00    +0.000 A 
ATOM     30  O   UNL     1      -0.889   1.078  -3.416  0.00  0.00    +0.000 OA
ATOM     31  C   UNL     1      -3.195   1.527  -3.639  0.00  0.00    +0.000 A 
ATOM     32  H   UNL     1      -0.549   3.138  -4.740  0.00  0.00    +0.000 HD
ENDBRANCH  19  22
ENDBRANCH  17  18
ENDBRANCH   4  17
TORSDOF 7
