REMARK  Name = 
REMARK  9 active torsions:
REMARK  status: ('A' for Active; 'I' for Inactive)
REMARK    1  A    between atoms: C_2  and  OXT_3
REMARK    2  A    between atoms: C_2  and  CA_4
REMARK    3  A    between atoms: C_8  and  C_9
REMARK    4  A    between atoms: C_9  and  N_10
REMARK    5  A    between atoms: N_10  and  C_11
REMARK    6  A    between atoms: C_11  and  C_12
REMARK    7  A    between atoms: C_15  and  C_16
REMARK    8  A    between atoms: C_16  and  N_17
REMARK    9  A    between atoms: C_18  and  C_20
REMARK                            x       y       z     vdW  Elec       q    Type
REMARK                         _______ _______ _______ _____ _____    ______ ____
ROOT
ATOM      1  C   UNL     1       8.225   5.571  -2.313  0.00  0.00    +0.000 A 
ATOM      2  C   UNL     1       7.500   6.675  -2.788  0.00  0.00    +0.000 A 
ATOM      3  C   UNL     1       7.951   7.982  -2.576  0.00  0.00    +0.000 A 
ATOM      4  C   UNL     1       9.139   8.219  -1.876  0.00  0.00    +0.000 A 
ATOM      5  C   UNL     1       9.841   7.121  -1.357  0.00  0.00    +0.000 A 
ATOM      6  C   UNL     1       9.397   5.810  -1.583  0.00  0.00    +0.000 A 
ENDROOT
BRANCH   1   7
ATOM      7  C   UNL     1       7.727   4.162  -2.576  0.00  0.00    +0.000 C 
BRANCH   7   8
ATOM      8  N   UNL     1       7.598   3.916  -4.015  0.00  0.00    +0.000 NA
ATOM      9  H   UNL     1       6.962   4.607  -4.409  0.00  0.00    +0.000 HD
BRANCH   8  10
ATOM     10  C   UNL     1       7.059   2.586  -4.312  0.00  0.00    +0.000 C 
BRANCH  10  15
ATOM     11  CA  UNL     1       5.607   1.766  -7.643  0.00  0.00    +0.000 A 
ATOM     12  C   UNL     1       6.677   1.855  -8.521  0.00  0.00    +0.000 A 
ATOM     13  C   UNL     1       7.914   2.211  -8.005  0.00  0.00    +0.000 A 
ATOM     14  C   UNL     1       8.038   2.448  -6.637  0.00  0.00    +0.000 A 
ATOM     15  C   UNL     1       6.911   2.349  -5.813  0.00  0.00    +0.000 A 
ATOM     16  N   UNL     1       5.680   2.018  -6.298  0.00  0.00    +0.000 NA
BRANCH  11  18
ATOM     17  O   UNL     1       4.060   1.009  -9.322  0.00  0.00    +0.000 OA
ATOM     18  C   UNL     1       4.278   1.331  -8.169  0.00  0.00    +0.000 C 
BRANCH  18  19
ATOM     19  OXT UNL     1       3.340   1.330  -7.190  0.00  0.00    +0.000 OA
ATOM     20  HXT UNL     1       3.762   1.614  -6.347  0.00  0.00    +0.000 HD
ENDBRANCH  18  19
ENDBRANCH  11  18
ENDBRANCH  10  15
ENDBRANCH   8  10
ENDBRANCH   7   8
ENDBRANCH   1   7
BRANCH   4  21
ATOM     21  C   UNL     1       9.659   9.622  -1.683  0.00  0.00    +0.000 C 
BRANCH  21  22
ATOM     22  N   UNL     1       9.152  10.237  -0.483  0.00  0.00    +0.000 N 
ATOM     23  C   UNL     1       9.503  11.514  -0.130  0.00  0.00    +0.000 C 
ATOM     24  O   UNL     1      10.236  12.211  -0.827  0.00  0.00    +0.000 OA
ATOM     25  H   UNL     1       8.730   9.621   0.208  0.00  0.00    +0.000 HD
BRANCH  23  26
ATOM     26  C   UNL     1       8.887  12.035   1.099  0.00  0.00    +0.000 A 
ATOM     27  C   UNL     1       8.681  13.399   1.249  0.00  0.00    +0.000 A 
ATOM     28  S   UNL     1       7.909  13.815   2.714  0.00  0.00    +0.000 S 
ATOM     29  C   UNL     1       7.871  12.190   3.221  0.00  0.00    +0.000 A 
ATOM     30  N   UNL     1       7.348  11.844   4.429  0.00  0.00    +0.000 NA
ATOM     31  C   UNL     1       7.408  10.580   4.691  0.00  0.00    +0.000 A 
ATOM     32  N   UNL     1       7.936   9.633   3.857  0.00  0.00    +0.000 N 
ATOM     33  C   UNL     1       8.435   9.929   2.610  0.00  0.00    +0.000 A 
ATOM     34  O   UNL     1       8.829   9.046   1.854  0.00  0.00    +0.000 OA
ATOM     35  C   UNL     1       8.414  11.340   2.274  0.00  0.00    +0.000 A 
ATOM     36  H   UNL     1       7.933   8.655   4.111  0.00  0.00    +0.000 HD
ENDBRANCH  23  26
ENDBRANCH  21  22
ENDBRANCH   4  21
TORSDOF 9
