REMARK  Name = 
REMARK  3 active torsions:
REMARK  status: ('A' for Active; 'I' for Inactive)
REMARK    1  A    between atoms: C_2  and  C_4
REMARK    2  A    between atoms: N_8  and  C_9
REMARK    3  A    between atoms: C_9  and  C_10
REMARK                            x       y       z     vdW  Elec       q    Type
REMARK                         _______ _______ _______ _____ _____    ______ ____
ROOT
ATOM      1  C   UNL     1       3.193   1.212  -0.127  0.00  0.00    +0.000 A 
ATOM      2  C   UNL     1       2.823   2.356   0.570  0.00  0.00    +0.000 A 
ATOM      3  C   UNL     1       3.525   3.544   0.338  0.00  0.00    +0.000 A 
ATOM      4  C   UNL     1       4.549   3.576  -0.609  0.00  0.00    +0.000 A 
ATOM      5  N   UNL     1       5.154   4.803  -0.878  0.00  0.00    +0.000 N 
ATOM      6  N   UNL     1       4.912   2.467  -1.281  0.00  0.00    +0.000 NA
ATOM      7  C   UNL     1       4.259   1.308  -1.004  0.00  0.00    +0.000 A 
ATOM      8  H   UNL     1       5.637   5.167  -0.062  0.00  0.00    +0.000 HD
ENDROOT
BRANCH   1  10
ATOM      9  N   UNL     1       1.175  -0.054   0.340  0.00  0.00    +0.000 N 
ATOM     10  C   UNL     1       2.502  -0.086   0.017  0.00  0.00    +0.000 C 
ATOM     11  O   UNL     1       3.081  -1.143  -0.197  0.00  0.00    +0.000 OA
ATOM     12  H   UNL     1       0.684  -0.943   0.303  0.00  0.00    +0.000 HD
ATOM     13  H   UNL     1       0.619   0.785   0.255  0.00  0.00    +0.000 HD
ENDBRANCH   1  10
BRANCH   5  14
ATOM     14  C   UNL     1       5.941   4.922  -2.103  0.00  0.00    +0.000 C 
BRANCH  14  15
ATOM     15  C   UNL     1       7.363   4.423  -2.016  0.00  0.00    +0.000 A 
ATOM     16  C   UNL     1       7.722   3.175  -2.513  0.00  0.00    +0.000 A 
ATOM     17  C   UNL     1       9.060   2.806  -2.510  0.00  0.00    +0.000 A 
ATOM     18  C   UNL     1       9.978   3.706  -2.012  0.00  0.00    +0.000 A 
ATOM     19  N   UNL     1       9.618   4.908  -1.520  0.00  0.00    +0.000 NA
ATOM     20  N   UNL     1       8.298   5.268  -1.518  0.00  0.00    +0.000 NA
ENDBRANCH  14  15
ENDBRANCH   5  14
TORSDOF 3
