REMARK  Name = 
REMARK  5 active torsions:
REMARK  status: ('A' for Active; 'I' for Inactive)
REMARK    1  A    between atoms: N_1  and  C_2
REMARK    2  A    between atoms: C_2  and  C_3
REMARK    3  A    between atoms: C_3  and  C_4
REMARK    4  A    between atoms: C_7  and  C_8
REMARK    5  A    between atoms: C_8  and  N_9
REMARK                            x       y       z     vdW  Elec       q    Type
REMARK                         _______ _______ _______ _____ _____    ______ ____
ROOT
ATOM      1  C   UNL     1       4.622  -1.313   0.575  0.00  0.00    +0.000 A 
ATOM      2  C   UNL     1       5.424  -1.054   1.677  0.00  0.00    +0.000 A 
ATOM      3  C   UNL     1       6.819  -1.140   1.532  0.00  0.00    +0.000 A 
ATOM      4  C   UNL     1       7.372  -1.438   0.287  0.00  0.00    +0.000 A 
ATOM      5  C   UNL     1       6.486  -1.690  -0.749  0.00  0.00    +0.000 A 
ATOM      6  N   UNL     1       5.142  -1.639  -0.628  0.00  0.00    +0.000 NA
ENDROOT
BRANCH   1   7
ATOM      7  C   UNL     1       3.116  -1.291   0.680  0.00  0.00    +0.000 C 
BRANCH   7   8
ATOM      8  C   UNL     1       2.585  -2.702   0.940  0.00  0.00    +0.000 C 
BRANCH   8   9
ATOM      9  N   UNL     1       1.122  -2.731   1.007  0.00  0.00    +0.000 NA
ATOM     10  H   UNL     1       0.824  -3.694   1.169  0.00  0.00    +0.000 HD
ATOM     11  H   UNL     1       0.743  -2.480   0.093  0.00  0.00    +0.000 HD
ENDBRANCH   8   9
ENDBRANCH   7   8
ENDBRANCH   1   7
BRANCH   4  12
ATOM     12  C   UNL     1       8.858  -1.481   0.046  0.00  0.00    +0.000 C 
BRANCH  12  13
ATOM     13  N   UNL     1       9.441  -2.807   0.211  0.00  0.00    +0.000 N 
ATOM     14  C   UNL     1      10.020  -3.232   1.384  0.00  0.00    +0.000 A 
ATOM     15  C   UNL     1      10.395  -4.543   1.215  0.00  0.00    +0.000 A 
ATOM     16  C   UNL     1      10.458  -4.749  -0.186  0.00  0.00    +0.000 A 
ATOM     17  C   UNL     1      11.101  -5.699  -0.988  0.00  0.00    +0.000 A 
ATOM     18  C   UNL     1      10.976  -5.512  -2.352  0.00  0.00    +0.000 A 
ATOM     19 CL   UNL     1      11.924  -6.447  -3.439  0.00  0.00    +0.000 Cl
ATOM     20  N   UNL     1      10.202  -4.582  -2.946  0.00  0.00    +0.000 NA
ATOM     21  C   UNL     1       9.552  -3.683  -2.172  0.00  0.00    +0.000 A 
ATOM     22  C   UNL     1       9.755  -3.704  -0.794  0.00  0.00    +0.000 A 
ENDBRANCH  12  13
ENDBRANCH   4  12
TORSDOF 5
