REMARK  Name = 
REMARK  8 active torsions:
REMARK  status: ('A' for Active; 'I' for Inactive)
REMARK    1  A    between atoms: N_1  and  C_2
REMARK    2  A    between atoms: C_2  and  C_3
REMARK    3  A    between atoms: C_3  and  N_4
REMARK    4  A    between atoms: C_3  and  C_17
REMARK    5  A    between atoms: C_5  and  C_7
REMARK    6  A    between atoms: C_20  and  C_21
REMARK    7  A    between atoms: C_21  and  N_22
REMARK    8  A    between atoms: C_23  and  C_25
REMARK                            x       y       z     vdW  Elec       q    Type
REMARK                         _______ _______ _______ _____ _____    ______ ____
ROOT
ATOM      1  C   UNL     1       3.046  -0.026  -1.318  0.00  0.00    +0.000 C 
ENDROOT
BRANCH   1   2
ATOM      2  C   UNL     1       4.569  -0.019  -1.355  0.00  0.00    +0.000 A 
ATOM      3  C   UNL     1       5.265  -1.240  -1.373  0.00  0.00    +0.000 A 
ATOM      4  C   UNL     1       6.664  -1.275  -1.379  0.00  0.00    +0.000 A 
ATOM      5  C   UNL     1       7.405  -0.088  -1.347  0.00  0.00    +0.000 A 
ATOM      6  C   UNL     1       6.717   1.131  -1.346  0.00  0.00    +0.000 A 
ATOM      7  C   UNL     1       5.319   1.165  -1.334  0.00  0.00    +0.000 A 
BRANCH   5   8
ATOM      8  C   UNL     1       8.909  -0.110  -1.310  0.00  0.00    +0.000 C 
BRANCH   8   9
ATOM      9  N   UNL     1       9.484  -0.132  -2.632  0.00  0.00    +0.000 N 
ATOM     10  C   UNL     1      10.844  -0.042  -2.810  0.00  0.00    +0.000 C 
ATOM     11  O   UNL     1      11.626   0.087  -1.873  0.00  0.00    +0.000 OA
ATOM     12  H   UNL     1       8.877  -0.325  -3.415  0.00  0.00    +0.000 HD
BRANCH  10  13
ATOM     13  C   UNL     1      11.297  -0.117  -4.173  0.00  0.00    +0.000 A 
ATOM     14  C   UNL     1      10.641  -0.216  -5.383  0.00  0.00    +0.000 A 
ATOM     15  N   UNL     1      11.524  -0.266  -6.430  0.00  0.00    +0.000 NA
ATOM     16  C   UNL     1      12.714  -0.191  -5.882  0.00  0.00    +0.000 A 
ATOM     17  N   UNL     1      12.631  -0.093  -4.525  0.00  0.00    +0.000 N 
ATOM     18  H   UNL     1      13.400  -0.016  -3.874  0.00  0.00    +0.000 HD
ENDBRANCH  10  13
ENDBRANCH   8   9
ENDBRANCH   5   8
ENDBRANCH   1   2
BRANCH   1  19
ATOM     19  N   UNL     1       2.598  -0.043   0.070  0.00  0.00    +0.000 N 
ATOM     20  C   UNL     1       1.434  -0.664   0.447  0.00  0.00    +0.000 C 
ATOM     21  O   UNL     1       0.742  -1.295  -0.348  0.00  0.00    +0.000 OA
ATOM     22  H   UNL     1       3.041   0.618   0.701  0.00  0.00    +0.000 HD
BRANCH  20  23
ATOM     23  C   UNL     1       1.076  -0.588   1.867  0.00  0.00    +0.000 A 
ATOM     24  C   UNL     1       0.318  -1.597   2.448  0.00  0.00    +0.000 A 
ATOM     25  S   UNL     1      -0.005  -1.339   4.106  0.00  0.00    +0.000 S 
ATOM     26  C   UNL     1       0.817   0.149   4.085  0.00  0.00    +0.000 A 
ATOM     27  N   UNL     1       0.896   0.941   5.183  0.00  0.00    +0.000 NA
ATOM     28  N   UNL     1       1.482   2.050   5.102  0.00  0.00    +0.000 NA
ATOM     29  N   UNL     1       2.048   2.422   3.914  0.00  0.00    +0.000 N 
ATOM     30  C   UNL     1       2.062   1.677   2.759  0.00  0.00    +0.000 A 
ATOM     31  O   UNL     1       2.637   2.058   1.743  0.00  0.00    +0.000 OA
ATOM     32  C   UNL     1       1.356   0.426   2.848  0.00  0.00    +0.000 A 
ATOM     33  H   UNL     1       2.519   3.317   3.913  0.00  0.00    +0.000 HD
ENDBRANCH  20  23
ENDBRANCH   1  19
BRANCH   1  34
ATOM     34  C   UNL     1       2.350   1.126  -2.106  0.00  0.00    +0.000 C 
BRANCH  34  35
ATOM     35  N   UNL     1       2.642   1.136  -3.545  0.00  0.00    +0.000 NA
ATOM     36  H   UNL     1       2.033   1.811  -4.005  0.00  0.00    +0.000 HD
ATOM     37  H   UNL     1       2.408   0.225  -3.941  0.00  0.00    +0.000 HD
ENDBRANCH  34  35
ENDBRANCH   1  34
TORSDOF 8
