REMARK  Name = 
REMARK  5 active torsions:
REMARK  status: ('A' for Active; 'I' for Inactive)
REMARK    1  A    between atoms: C_2  and  C_19
REMARK    2  A    between atoms: N_3  and  C_4
REMARK    3  A    between atoms: C_4  and  C_5
REMARK    4  A    between atoms: C_8  and  C_9
REMARK    5  A    between atoms: C_9  and  N_10
REMARK                            x       y       z     vdW  Elec       q    Type
REMARK                         _______ _______ _______ _____ _____    ______ ____
ROOT
ATOM      1  C   UNL     1       2.269  -0.596  -2.559  0.00  0.00    +0.000 C 
ENDROOT
BRANCH   1   2
ATOM      2  C   UNL     1       3.277  -0.871  -3.671  0.00  0.00    +0.000 C 
ATOM      3  C   UNL     1       3.836  -2.295  -3.569  0.00  0.00    +0.000 C 
ATOM      4  C   UNL     1       4.881  -2.550  -4.646  0.00  0.00    +0.000 C 
ATOM      5  C   UNL     1       6.019  -1.522  -4.561  0.00  0.00    +0.000 C 
ATOM      6  C   UNL     1       5.456  -0.097  -4.683  0.00  0.00    +0.000 C 
ATOM      7  C   UNL     1       4.395   0.176  -3.624  0.00  0.00    +0.000 C 
BRANCH   5   8
ATOM      8  C   UNL     1       7.085  -1.753  -5.638  0.00  0.00    +0.000 C 
BRANCH   8   9
ATOM      9  N   UNL     1       7.723  -3.046  -5.445  0.00  0.00    +0.000 N 
ATOM     10  C   UNL     1       8.712  -3.317  -6.381  0.00  0.00    +0.000 A 
ATOM     11  N   UNL     1       9.474  -2.325  -6.863  0.00  0.00    +0.000 NA
ATOM     12  C   UNL     1      10.407  -2.653  -7.773  0.00  0.00    +0.000 A 
ATOM     13  C   UNL     1      10.605  -3.933  -8.219  0.00  0.00    +0.000 A 
ATOM     14  C   UNL     1       9.775  -4.877  -7.666  0.00  0.00    +0.000 A 
ATOM     15  N   UNL     1       8.822  -4.597  -6.756  0.00  0.00    +0.000 NA
ATOM     16  H   UNL     1       7.106  -3.850  -5.493  0.00  0.00    +0.000 HD
ENDBRANCH   8   9
ENDBRANCH   5   8
ENDBRANCH   1   2
BRANCH   1  19
ATOM     17  O   UNL     1       0.397  -1.099  -4.709  0.00  0.00    +0.000 OA
ATOM     18  C   UNL     1       0.248  -1.603  -3.602  0.00  0.00    +0.000 C 
ATOM     19  N   UNL     1       1.136  -1.489  -2.553  0.00  0.00    +0.000 N 
ATOM     20  H   UNL     1       0.812  -1.771  -1.640  0.00  0.00    +0.000 HD
BRANCH  18  21
ATOM     21  C   UNL     1      -1.002  -2.214  -3.184  0.00  0.00    +0.000 A 
ATOM     22  C   UNL     1      -2.228  -1.699  -3.563  0.00  0.00    +0.000 A 
ATOM     23  S   UNL     1      -3.483  -2.234  -2.526  0.00  0.00    +0.000 S 
ATOM     24  C   UNL     1      -2.416  -3.250  -1.666  0.00  0.00    +0.000 A 
ATOM     25  N   UNL     1      -2.784  -3.903  -0.532  0.00  0.00    +0.000 NA
ATOM     26  C   UNL     1      -1.866  -4.674  -0.044  0.00  0.00    +0.000 A 
ATOM     27  N   UNL     1      -0.634  -4.892  -0.612  0.00  0.00    +0.000 N 
ATOM     28  C   UNL     1      -0.225  -4.266  -1.765  0.00  0.00    +0.000 A 
ATOM     29  O   UNL     1       0.842  -4.533  -2.306  0.00  0.00    +0.000 OA
ATOM     30  C   UNL     1      -1.174  -3.293  -2.261  0.00  0.00    +0.000 A 
ATOM     31  H   UNL     1      -0.002  -5.582  -0.234  0.00  0.00    +0.000 HD
ENDBRANCH  18  21
ENDBRANCH   1  19
TORSDOF 5
