REMARK  Name = 
REMARK  9 active torsions:
REMARK  status: ('A' for Active; 'I' for Inactive)
REMARK    1  A    between atoms: C_1  and  N_2
REMARK    2  A    between atoms: N_2  and  C_3
REMARK    3  A    between atoms: N_2  and  C_4
REMARK    4  A    between atoms: C_4  and  C_5
REMARK    5  A    between atoms: C_5  and  N_6
REMARK    6  A    between atoms: C_5  and  C_19
REMARK    7  A    between atoms: C_7  and  C_9
REMARK    8  A    between atoms: C_22  and  C_23
REMARK    9  A    between atoms: C_23  and  C_24
REMARK                            x       y       z     vdW  Elec       q    Type
REMARK                         _______ _______ _______ _____ _____    ______ ____
ROOT
ATOM      1  C   UNL     1       4.444  -0.751  -1.063  0.00  0.00    +0.000 C 
ENDROOT
BRANCH   1   2
ATOM      2  C   UNL     1       4.971  -1.556  -2.245  0.00  0.00    +0.000 A 
ATOM      3  C   UNL     1       5.746  -0.921  -3.222  0.00  0.00    +0.000 A 
ATOM      4  C   UNL     1       6.148  -1.607  -4.368  0.00  0.00    +0.000 A 
ATOM      5  C   UNL     1       5.807  -2.954  -4.555  0.00  0.00    +0.000 A 
ATOM      6  C   UNL     1       5.080  -3.609  -3.555  0.00  0.00    +0.000 A 
ATOM      7  C   UNL     1       4.667  -2.919  -2.412  0.00  0.00    +0.000 A 
BRANCH   5   8
ATOM      8  C   UNL     1       6.201  -3.680  -5.820  0.00  0.00    +0.000 C 
BRANCH   8   9
ATOM      9  C   UNL     1       7.543  -4.374  -5.801  0.00  0.00    +0.000 A 
ATOM     10  C   UNL     1       8.719  -3.664  -5.561  0.00  0.00    +0.000 A 
ATOM     11  C   UNL     1       9.944  -4.312  -5.694  0.00  0.00    +0.000 A 
ATOM     12  C   UNL     1       9.968  -5.651  -6.061  0.00  0.00    +0.000 A 
ATOM     13  C   UNL     1       8.759  -6.293  -6.262  0.00  0.00    +0.000 A 
ATOM     14  N   UNL     1       7.556  -5.688  -6.145  0.00  0.00    +0.000 NA
ENDBRANCH   8   9
ENDBRANCH   5   8
ENDBRANCH   1   2
BRANCH   1  15
ATOM     15  N   UNL     1       5.021  -1.229   0.179  0.00  0.00    +0.000 N 
ATOM     16  C   UNL     1       6.193  -0.736   0.694  0.00  0.00    +0.000 C 
ATOM     17  O   UNL     1       6.777   0.226   0.204  0.00  0.00    +0.000 OA
ATOM     18  H   UNL     1       4.622  -2.079   0.563  0.00  0.00    +0.000 HD
BRANCH  16  19
ATOM     19  C   UNL     1       6.698  -1.400   1.904  0.00  0.00    +0.000 A 
ATOM     20  C   UNL     1       7.549  -0.717   2.761  0.00  0.00    +0.000 A 
ATOM     21  S   UNL     1       8.067  -1.644   4.098  0.00  0.00    +0.000 S 
ATOM     22  C   UNL     1       7.218  -3.011   3.546  0.00  0.00    +0.000 A 
ATOM     23  N   UNL     1       7.297  -4.197   4.208  0.00  0.00    +0.000 NA
ATOM     24  C   UNL     1       6.651  -5.164   3.647  0.00  0.00    +0.000 A 
ATOM     25  N   UNL     1       5.907  -5.045   2.503  0.00  0.00    +0.000 N 
ATOM     26  C   UNL     1       5.715  -3.845   1.860  0.00  0.00    +0.000 A 
ATOM     27  O   UNL     1       4.908  -3.741   0.942  0.00  0.00    +0.000 OA
ATOM     28  C   UNL     1       6.496  -2.746   2.396  0.00  0.00    +0.000 A 
ATOM     29  H   UNL     1       5.385  -5.830   2.142  0.00  0.00    +0.000 HD
ENDBRANCH  16  19
ENDBRANCH   1  15
BRANCH   1  30
ATOM     30  C   UNL     1       2.880  -0.790  -1.045  0.00  0.00    +0.000 C 
BRANCH  30  32
ATOM     31  C   UNL     1       2.514   1.355   0.062  0.00  0.00    +0.000 C 
ATOM     32  N   UNL     1       2.208  -0.077   0.065  0.00  0.00    +0.000 NA
ATOM     33  C   UNL     1       0.755  -0.264  -0.024  0.00  0.00    +0.000 C 
ENDBRANCH  30  32
ENDBRANCH   1  30
TORSDOF 7
