REMARK  Name = 
REMARK  4 active torsions:
REMARK  status: ('A' for Active; 'I' for Inactive)
REMARK    1  A    between atoms: N_1  and  C_2
REMARK    2  A    between atoms: C_2  and  C_3
REMARK    3  A    between atoms: C_6  and  C_7
REMARK    4  A    between atoms: C_7  and  N_8
REMARK                            x       y       z     vdW  Elec       q    Type
REMARK                         _______ _______ _______ _____ _____    ______ ____
ROOT
ATOM      1  C   UNL     1       2.764  -0.754  -1.120  0.00  0.00    +0.000 A 
ATOM      2  C   UNL     1       3.456  -0.113  -2.157  0.00  0.00    +0.000 A 
ATOM      3  C   UNL     1       3.885  -0.826  -3.279  0.00  0.00    +0.000 A 
ATOM      4  C   UNL     1       3.629  -2.199  -3.392  0.00  0.00    +0.000 A 
ATOM      5  C   UNL     1       2.954  -2.845  -2.346  0.00  0.00    +0.000 A 
ATOM      6  C   UNL     1       2.525  -2.130  -1.224  0.00  0.00    +0.000 A 
ENDROOT
BRANCH   1   7
ATOM      7  C   UNL     1       2.297   0.023   0.084  0.00  0.00    +0.000 C 
BRANCH   7   8
ATOM      8  N   UNL     1       1.347   1.066  -0.288  0.00  0.00    +0.000 NA
ATOM      9  H   UNL     1       0.986   1.504   0.557  0.00  0.00    +0.000 HD
ATOM     10  H   UNL     1       0.549   0.631  -0.750  0.00  0.00    +0.000 HD
ENDBRANCH   7   8
ENDBRANCH   1   7
BRANCH   4  11
ATOM     11  C   UNL     1       4.054  -2.964  -4.618  0.00  0.00    +0.000 C 
BRANCH  11  12
ATOM     12  N   UNL     1       5.387  -3.523  -4.489  0.00  0.00    +0.000 N 
ATOM     13  C   UNL     1       5.673  -4.757  -3.967  0.00  0.00    +0.000 A 
ATOM     14  N   UNL     1       6.946  -5.059  -4.088  0.00  0.00    +0.000 NA
ATOM     15  C   UNL     1       7.503  -3.982  -4.720  0.00  0.00    +0.000 A 
ATOM     16  N   UNL     1       8.803  -3.878  -5.073  0.00  0.00    +0.000 NA
ATOM     17  C   UNL     1       9.118  -2.731  -5.708  0.00  0.00    +0.000 A 
ATOM     18  C   UNL     1       8.235  -1.700  -6.007  0.00  0.00    +0.000 A 
ATOM     19  C   UNL     1       6.895  -1.816  -5.642  0.00  0.00    +0.000 A 
ATOM     20  C   UNL     1       6.553  -2.999  -4.988  0.00  0.00    +0.000 A 
ENDBRANCH  11  12
ENDBRANCH   4  11
TORSDOF 4
