REMARK  Name = 
REMARK  9 active torsions:
REMARK  status: ('A' for Active; 'I' for Inactive)
REMARK    1  A    between atoms: C_1  and  C_2
REMARK    2  A    between atoms: C_4  and  C_5
REMARK    3  A    between atoms: C_5  and  C_6
REMARK    4  A    between atoms: C_5  and  C_7
REMARK    5  A    between atoms: C_5  and  C_8
REMARK    6  A    between atoms: C_8  and  N_9
REMARK    7  A    between atoms: C_14  and  C_15
REMARK    8  A    between atoms: C_18  and  O_19
REMARK    9  A    between atoms: C_25  and  C_26
REMARK                            x       y       z     vdW  Elec       q    Type
REMARK                         _______ _______ _______ _____ _____    ______ ____
ROOT
ATOM      1  C   UNL     1       0.907  -3.746  -0.006  0.00  0.00    +0.000 C 
ENDROOT
BRANCH   1   2
ATOM      2  N   UNL     1       1.651  -5.022  -0.046  0.00  0.00    +0.000 N 
ATOM      3  C   UNL     1       0.818  -6.162  -0.011  0.00  0.00    +0.000 A 
ATOM      4  C   UNL     1       1.424  -7.414  -0.054  0.00  0.00    +0.000 A 
ATOM      5  C   UNL     1       0.637  -8.557   0.001  0.00  0.00    +0.000 A 
ATOM      6  C   UNL     1      -0.742  -8.421   0.105  0.00  0.00    +0.000 A 
ATOM      7  C   UNL     1      -1.298  -7.143   0.141  0.00  0.00    +0.000 A 
ATOM      8  N   UNL     1      -0.521  -6.032   0.074  0.00  0.00    +0.000 NA
ATOM      9  H   UNL     1       2.303  -5.113   0.727  0.00  0.00    +0.000 HD
BRANCH   7  10
ATOM     10  C   UNL     1      -2.748  -6.911   0.331  0.00  0.00    +0.000 A 
ATOM     11  C   UNL     1      -3.215  -5.736   0.954  0.00  0.00    +0.000 A 
ATOM     12  C   UNL     1      -4.572  -5.542   1.234  0.00  0.00    +0.000 A 
ATOM     13  C   UNL     1      -5.488  -6.524   0.881  0.00  0.00    +0.000 A 
ATOM     14  C   UNL     1      -5.072  -7.674   0.227  0.00  0.00    +0.000 A 
ATOM     15  C   UNL     1      -3.715  -7.860  -0.054  0.00  0.00    +0.000 A 
BRANCH  13  16
ATOM     16  O   UNL     1      -6.815  -6.399   1.162  0.00  0.00    +0.000 OA
ATOM     17  H   UNL     1      -6.950  -5.566   1.640  0.00  0.00    +0.000 HD
ENDBRANCH  13  16
ENDBRANCH   7  10
ENDBRANCH   1   2
BRANCH   1  18
ATOM     18  C   UNL     1       1.845  -2.494  -0.022  0.00  0.00    +0.000 C 
ATOM     19  C   UNL     1       2.709  -2.514  -1.301  0.00  0.00    +0.000 C 
ATOM     20  C   UNL     1       2.760  -2.518   1.224  0.00  0.00    +0.000 C 
BRANCH  18  24
ATOM     21  C   UNL     1       1.546   2.563   0.116  0.00  0.00    +0.000 C 
ATOM     22  C   UNL     1       0.842   1.235   0.077  0.00  0.00    +0.000 A 
ATOM     23  C   UNL     1       1.616   0.060   0.027  0.00  0.00    +0.000 A 
ATOM     24  C   UNL     1       1.006  -1.197   0.004  0.00  0.00    +0.000 A 
ATOM     25  N   UNL     1      -0.343  -1.310   0.025  0.00  0.00    +0.000 NA
ATOM     26  C   UNL     1      -1.082  -0.170   0.071  0.00  0.00    +0.000 A 
ATOM     27  C   UNL     1      -0.555   1.115   0.090  0.00  0.00    +0.000 A 
BRANCH  27  28
ATOM     28  C   UNL     1      -1.461   2.295   0.167  0.00  0.00    +0.000 C 
ATOM     29  N   UNL     1      -2.711   2.180  -0.379  0.00  0.00    +0.000 N 
ATOM     30  O   UNL     1      -1.123   3.351   0.684  0.00  0.00    +0.000 OA
ATOM     31  H   UNL     1      -3.000   1.424  -0.983  0.00  0.00    +0.000 HD
ATOM     32  H   UNL     1      -3.271   3.025  -0.388  0.00  0.00    +0.000 HD
ENDBRANCH  27  28
ENDBRANCH  18  24
ENDBRANCH   1  18
TORSDOF 6
