REMARK  Name = 
REMARK  6 active torsions:
REMARK  status: ('A' for Active; 'I' for Inactive)
REMARK    1  A    between atoms: C_5  and  O_6
REMARK    2  A    between atoms: O_6  and  C_7
REMARK    3  A    between atoms: C_7  and  C_8
REMARK    4  A    between atoms: C_12  and  C_13
REMARK    5  A    between atoms: C_19  and  C_20
REMARK    6  A    between atoms: C_24  and  C_25
REMARK                            x       y       z     vdW  Elec       q    Type
REMARK                         _______ _______ _______ _____ _____    ______ ____
ROOT
ATOM      1  F   UNL     1       2.197   0.097  -0.003  0.00  0.00    +0.000 F 
ATOM      2  C   UNL     1       0.857   0.035   0.022  0.00  0.00    +0.000 A 
ATOM      3  C   UNL     1       0.155   1.241   0.006  0.00  0.00    +0.000 A 
ATOM      4  C   UNL     1      -1.237   1.235  -0.020  0.00  0.00    +0.000 A 
ATOM      5  C   UNL     1      -1.921   0.022  -0.029  0.00  0.00    +0.000 A 
ATOM      6  C   UNL     1      -1.207  -1.177   0.058  0.00  0.00    +0.000 A 
ATOM      7  C   UNL     1       0.200  -1.207   0.051  0.00  0.00    +0.000 A 
ENDROOT
BRANCH   7   8
ATOM      8  C   UNL     1       0.912  -2.506   0.072  0.00  0.00    +0.000 A 
ATOM      9  C   UNL     1       0.383  -3.638  -0.567  0.00  0.00    +0.000 A 
ATOM     10  C   UNL     1       1.051  -4.848  -0.488  0.00  0.00    +0.000 A 
ATOM     11  N   UNL     1       2.216  -5.014   0.164  0.00  0.00    +0.000 NA
ATOM     12  C   UNL     1       2.755  -3.922   0.774  0.00  0.00    +0.000 A 
ATOM     13  C   UNL     1       2.126  -2.673   0.748  0.00  0.00    +0.000 A 
BRANCH  12  14
ATOM     14  C   UNL     1       4.078  -4.047   1.516  0.00  0.00    +0.000 C 
ATOM     15  F   UNL     1       4.612  -5.301   1.513  0.00  0.00    +0.000 F 
ATOM     16  F   UNL     1       5.043  -3.231   1.000  0.00  0.00    +0.000 F 
ATOM     17  F   UNL     1       3.969  -3.694   2.831  0.00  0.00    +0.000 F 
ENDBRANCH  12  14
ENDBRANCH   7   8
BRANCH   5  18
ATOM     18  O   UNL     1      -3.283   0.100  -0.129  0.00  0.00    +0.000 OA
BRANCH  18  19
ATOM     19  C   UNL     1      -3.913  -1.066  -0.677  0.00  0.00    +0.000 C 
BRANCH  19  20
ATOM     20  C   UNL     1      -5.270  -0.735  -1.235  0.00  0.00    +0.000 A 
ATOM     21  C   UNL     1      -6.094   0.202  -0.628  0.00  0.00    +0.000 A 
ATOM     22  N   UNL     1      -7.325   0.504  -1.098  0.00  0.00    +0.000 NA
ATOM     23  C   UNL     1      -7.712  -0.172  -2.205  0.00  0.00    +0.000 A 
ATOM     24  C   UNL     1      -6.920  -1.126  -2.827  0.00  0.00    +0.000 A 
ATOM     25  N   UNL     1      -5.680  -1.424  -2.335  0.00  0.00    +0.000 NA
BRANCH  24  26
ATOM     26  C   UNL     1      -7.437  -1.837  -4.057  0.00  0.00    +0.000 C 
ATOM     27  F   UNL     1      -8.681  -1.420  -4.441  0.00  0.00    +0.000 F 
ATOM     28  F   UNL     1      -6.645  -1.657  -5.151  0.00  0.00    +0.000 F 
ATOM     29  F   UNL     1      -7.545  -3.186  -3.887  0.00  0.00    +0.000 F 
ENDBRANCH  24  26
ENDBRANCH  19  20
ENDBRANCH  18  19
ENDBRANCH   5  18
TORSDOF 6
