REMARK  Name = 
REMARK  6 active torsions:
REMARK  status: ('A' for Active; 'I' for Inactive)
REMARK    1  A    between atoms: C_2  and  C_20
REMARK    2  A    between atoms: N_3  and  C_4
REMARK    3  A    between atoms: C_4  and  C_5
REMARK    4  A    between atoms: C_8  and  C_9
REMARK    5  A    between atoms: C_9  and  O_10
REMARK    6  A    between atoms: C_9  and  C_11
REMARK                            x       y       z     vdW  Elec       q    Type
REMARK                         _______ _______ _______ _____ _____    ______ ____
ROOT
ATOM      1  C   UNL     1       2.250  -2.273  -0.483  0.00  0.00    +0.000 C 
ENDROOT
BRANCH   1   2
ATOM      2  C   UNL     1       3.229  -3.387  -0.737  0.00  0.00    +0.000 A 
ATOM      3  C   UNL     1       4.564  -3.101  -1.038  0.00  0.00    +0.000 A 
ATOM      4  C   UNL     1       5.475  -4.133  -1.284  0.00  0.00    +0.000 A 
ATOM      5  C   UNL     1       5.071  -5.481  -1.258  0.00  0.00    +0.000 A 
ATOM      6  C   UNL     1       3.733  -5.757  -0.940  0.00  0.00    +0.000 A 
ATOM      7  C   UNL     1       2.818  -4.725  -0.707  0.00  0.00    +0.000 A 
BRANCH   5   8
ATOM      8  C   UNL     1       6.105  -6.572  -1.507  0.00  0.00    +0.000 C 
BRANCH   8   9
ATOM      9  C   UNL     1       5.607  -7.816  -2.307  0.00  0.00    +0.000 C 
ATOM     10  O   UNL     1       4.443  -7.953  -2.691  0.00  0.00    +0.000 OA
ATOM     11  N   UNL     1       6.543  -8.794  -2.598  0.00  0.00    +0.000 N 
ATOM     12  C   UNL     1       7.959  -8.801  -2.283  0.00  0.00    +0.000 C 
ATOM     13  C   UNL     1       8.540  -9.728  -3.340  0.00  0.00    +0.000 C 
ATOM     14  C   UNL     1       7.445 -10.768  -3.550  0.00  0.00    +0.000 C 
ATOM     15  C   UNL     1       6.147 -10.026  -3.252  0.00  0.00    +0.000 C 
ENDBRANCH   8   9
BRANCH   8  16
ATOM     16  O   UNL     1       6.661  -6.951  -0.247  0.00  0.00    +0.000 OA
ATOM     17  H   UNL     1       5.912  -7.024   0.371  0.00  0.00    +0.000 HD
ENDBRANCH   8  16
ENDBRANCH   5   8
ENDBRANCH   1   2
BRANCH   1  20
ATOM     18  O   UNL     1       2.899  -0.082  -2.155  0.00  0.00    +0.000 OA
ATOM     19  C   UNL     1       1.984  -0.839  -2.479  0.00  0.00    +0.000 C 
ATOM     20  N   UNL     1       1.576  -1.879  -1.691  0.00  0.00    +0.000 N 
ATOM     21  H   UNL     1       0.939  -2.568  -2.076  0.00  0.00    +0.000 HD
BRANCH  19  22
ATOM     22  C   UNL     1       1.228  -0.642  -3.722  0.00  0.00    +0.000 A 
ATOM     23  C   UNL     1       1.210   0.605  -4.335  0.00  0.00    +0.000 A 
ATOM     24  S   UNL     1       0.280   0.649  -5.765  0.00  0.00    +0.000 S 
ATOM     25  C   UNL     1      -0.093  -1.006  -5.641  0.00  0.00    +0.000 A 
ATOM     26  N   UNL     1      -0.843  -1.630  -6.591  0.00  0.00    +0.000 NA
ATOM     27  C   UNL     1      -1.011  -2.894  -6.393  0.00  0.00    +0.000 A 
ATOM     28  N   UNL     1      -0.512  -3.591  -5.324  0.00  0.00    +0.000 N 
ATOM     29  C   UNL     1       0.165  -2.984  -4.294  0.00  0.00    +0.000 A 
ATOM     30  O   UNL     1       0.441  -3.603  -3.271  0.00  0.00    +0.000 OA
ATOM     31  C   UNL     1       0.447  -1.576  -4.501  0.00  0.00    +0.000 A 
ATOM     32  H   UNL     1      -0.719  -4.570  -5.201  0.00  0.00    +0.000 HD
ENDBRANCH  19  22
ENDBRANCH   1  20
TORSDOF 6
