REMARK  Name = 
REMARK  9 active torsions:
REMARK  status: ('A' for Active; 'I' for Inactive)
REMARK    1  A    between atoms: C_1  and  O_2
REMARK    2  A    between atoms: O_2  and  C_3
REMARK    3  A    between atoms: C_3  and  C_5
REMARK    4  A    between atoms: C_8  and  O_9
REMARK    5  A    between atoms: O_9  and  C_10
REMARK    6  A    between atoms: C_10  and  C_11
REMARK    7  A    between atoms: C_11  and  C_12
REMARK    8  A    between atoms: C_16  and  C_17
REMARK    9  A    between atoms: C_17  and  N_18
REMARK                            x       y       z     vdW  Elec       q    Type
REMARK                         _______ _______ _______ _____ _____    ______ ____
ROOT
ATOM      1  C   UNL     1       9.526  -0.143  -1.052  0.00  0.00    +0.000 C 
ENDROOT
BRANCH   1   2
ATOM      2  O   UNL     1       8.771   1.078  -1.049  0.00  0.00    +0.000 OA
BRANCH   2   6
ATOM      3  C   UNL     1       4.726   0.420  -0.557  0.00  0.00    +0.000 A 
ATOM      4  C   UNL     1       5.169   1.607  -1.150  0.00  0.00    +0.000 A 
ATOM      5  C   UNL     1       6.541   1.826  -1.305  0.00  0.00    +0.000 A 
ATOM      6  C   UNL     1       7.420   0.840  -0.883  0.00  0.00    +0.000 A 
ATOM      7  N   UNL     1       7.020  -0.308  -0.296  0.00  0.00    +0.000 NA
ATOM      8  C   UNL     1       5.687  -0.491  -0.144  0.00  0.00    +0.000 A 
BRANCH   3   9
ATOM      9  C   UNL     1       3.306   0.070  -0.342  0.00  0.00    +0.000 C 
ATOM     10  O   UNL     1       2.946  -0.951   0.219  0.00  0.00    +0.000 OA
BRANCH   9  12
ATOM     11  C   UNL     1       1.100   0.737  -0.697  0.00  0.00    +0.000 C 
ATOM     12  O   UNL     1       2.490   1.024  -0.858  0.00  0.00    +0.000 OA
ENDBRANCH   9  12
ENDBRANCH   3   9
ENDBRANCH   2   6
ENDBRANCH   1   2
BRANCH   1  13
ATOM     13  C   UNL     1      11.019   0.175  -1.140  0.00  0.00    +0.000 C 
BRANCH  13  14
ATOM     14  C   UNL     1      11.838  -1.090  -1.230  0.00  0.00    +0.000 A 
ATOM     15  C   UNL     1      12.298  -1.728  -0.071  0.00  0.00    +0.000 A 
ATOM     16  C   UNL     1      12.997  -2.932  -0.159  0.00  0.00    +0.000 A 
ATOM     17  C   UNL     1      13.235  -3.517  -1.404  0.00  0.00    +0.000 A 
ATOM     18  C   UNL     1      12.777  -2.903  -2.576  0.00  0.00    +0.000 A 
ATOM     19  C   UNL     1      12.087  -1.683  -2.475  0.00  0.00    +0.000 A 
BRANCH  18  20
ATOM     20  C   UNL     1      13.027  -3.527  -3.926  0.00  0.00    +0.000 C 
BRANCH  20  21
ATOM     21  N   UNL     1      11.780  -3.781  -4.640  0.00  0.00    +0.000 NA
ATOM     22  H   UNL     1      11.227  -4.446  -4.101  0.00  0.00    +0.000 HD
ATOM     23  H   UNL     1      11.988  -4.229  -5.529  0.00  0.00    +0.000 HD
ENDBRANCH  20  21
ENDBRANCH  18  20
ENDBRANCH  13  14
ENDBRANCH   1  13
TORSDOF 8
