REMARK  Name = 
REMARK  5 active torsions:
REMARK  status: ('A' for Active; 'I' for Inactive)
REMARK    1  A    between atoms: C_1  and  C_2
REMARK    2  A    between atoms: C_6  and  C_7
REMARK    3  A    between atoms: C_7  and  N_8
REMARK    4  A    between atoms: N_8  and  C_9
REMARK    5  A    between atoms: C_12  and  C_13
REMARK                            x       y       z     vdW  Elec       q    Type
REMARK                         _______ _______ _______ _____ _____    ______ ____
ROOT
ATOM      1  C   UNL     1      -1.404   5.020  -0.083  0.00  0.00    +0.000 A 
ATOM      2  C   UNL     1      -0.592   6.096   0.300  0.00  0.00    +0.000 A 
ATOM      3  C   UNL     1      -1.113   7.393   0.414  0.00  0.00    +0.000 A 
ATOM      4  C   UNL     1      -2.450   7.646   0.100  0.00  0.00    +0.000 A 
ATOM      5  C   UNL     1      -3.257   6.594  -0.338  0.00  0.00    +0.000 A 
ATOM      6  C   UNL     1      -2.729   5.302  -0.443  0.00  0.00    +0.000 A 
ENDROOT
BRANCH   4   7
ATOM      7  C   UNL     1      -2.982   9.023   0.270  0.00  0.00    +0.000 C 
ATOM      8  N   UNL     1      -4.083   9.371  -0.464  0.00  0.00    +0.000 N 
ATOM      9  O   UNL     1      -2.450   9.829   1.022  0.00  0.00    +0.000 OA
ATOM     10  H   UNL     1      -4.406   8.835  -1.256  0.00  0.00    +0.000 HD
ATOM     11  H   UNL     1      -4.382  10.336  -0.397  0.00  0.00    +0.000 HD
ENDBRANCH   4   7
BRANCH   1  12
ATOM     12  N   UNL     1      -0.836   3.742  -0.217  0.00  0.00    +0.000 N 
ATOM     13  H   UNL     1       0.036   3.664   0.305  0.00  0.00    +0.000 HD
BRANCH  12  14
ATOM     14  C   UNL     1      -1.705   2.592   0.028  0.00  0.00    +0.000 C 
BRANCH  14  20
ATOM     15  C   UNL     1      -0.145  -2.008   1.418  0.00  0.00    +0.000 C 
ATOM     16  C   UNL     1      -0.261  -0.917   0.403  0.00  0.00    +0.000 A 
ATOM     17  C   UNL     1       0.204  -1.080  -0.897  0.00  0.00    +0.000 A 
ATOM     18  N   UNL     1       0.114  -0.135  -1.858  0.00  0.00    +0.000 NA
ATOM     19  C   UNL     1      -0.473   1.032  -1.511  0.00  0.00    +0.000 A 
ATOM     20  C   UNL     1      -0.979   1.305  -0.244  0.00  0.00    +0.000 A 
ATOM     21  C   UNL     1      -0.862   0.304   0.725  0.00  0.00    +0.000 A 
ENDBRANCH  14  20
ENDBRANCH  12  14
ENDBRANCH   1  12
TORSDOF 4
