REMARK  Name = 
REMARK  6 active torsions:
REMARK  status: ('A' for Active; 'I' for Inactive)
REMARK    1  A    between atoms: C_2  and  C_4
REMARK    2  A    between atoms: C_7  and  O_8
REMARK    3  A    between atoms: O_8  and  C_9
REMARK    4  A    between atoms: C_9  and  C_10
REMARK    5  A    between atoms: N_13  and  C_14
REMARK    6  A    between atoms: C_14  and  C_15
REMARK                            x       y       z     vdW  Elec       q    Type
REMARK                         _______ _______ _______ _____ _____    ______ ____
ROOT
ATOM      1  O   UNL     1       5.468  -2.809  -3.692  0.00  0.00    +0.000 OA
ENDROOT
BRANCH   1   5
ATOM      2  C   UNL     1       2.748  -2.771  -0.605  0.00  0.00    +0.000 A 
ATOM      3  C   UNL     1       4.050  -2.319  -0.386  0.00  0.00    +0.000 A 
ATOM      4  C   UNL     1       4.949  -2.312  -1.451  0.00  0.00    +0.000 A 
ATOM      5  C   UNL     1       4.510  -2.748  -2.692  0.00  0.00    +0.000 A 
ATOM      6  N   UNL     1       3.260  -3.187  -2.930  0.00  0.00    +0.000 NA
ATOM      7  C   UNL     1       2.407  -3.201  -1.878  0.00  0.00    +0.000 A 
BRANCH   2   9
ATOM      8  N   UNL     1       1.838  -1.958   1.492  0.00  0.00    +0.000 N 
ATOM      9  C   UNL     1       1.725  -2.843   0.459  0.00  0.00    +0.000 C 
ATOM     10  O   UNL     1       0.797  -3.636   0.397  0.00  0.00    +0.000 OA
ATOM     11  H   UNL     1       1.067  -1.943   2.149  0.00  0.00    +0.000 HD
ATOM     12  H   UNL     1       2.424  -1.137   1.445  0.00  0.00    +0.000 HD
ENDBRANCH   2   9
ENDBRANCH   1   5
BRANCH   1  13
ATOM     13  C   UNL     1       5.045  -3.214  -5.013  0.00  0.00    +0.000 C 
ATOM     14  C   UNL     1       5.436  -2.148  -6.035  0.00  0.00    +0.000 C 
ATOM     15  C   UNL     1       3.994  -2.424  -5.768  0.00  0.00    +0.000 C 
BRANCH  13  16
ATOM     16  C   UNL     1       5.246  -4.685  -5.374  0.00  0.00    +0.000 C 
ATOM     17  C   UNL     1       4.410  -5.670  -4.544  0.00  0.00    +0.000 C 
ATOM     18  C   UNL     1       5.070  -6.150  -3.245  0.00  0.00    +0.000 C 
ATOM     19  N   UNL     1       6.458  -6.590  -3.458  0.00  0.00    +0.000 NA
ATOM     20  C   UNL     1       7.250  -5.484  -4.019  0.00  0.00    +0.000 C 
ATOM     21  C   UNL     1       6.717  -5.107  -5.397  0.00  0.00    +0.000 C 
BRANCH  19  22
ATOM     22  C   UNL     1       7.087  -7.078  -2.214  0.00  0.00    +0.000 C 
BRANCH  22  23
ATOM     23  C   UNL     1       6.487  -8.370  -1.658  0.00  0.00    +0.000 C 
ATOM     24  F   UNL     1       7.225  -8.763  -0.580  0.00  0.00    +0.000 F 
ENDBRANCH  22  23
ENDBRANCH  19  22
ENDBRANCH  13  16
ENDBRANCH   1  13
TORSDOF 6
