REMARK  Name = 
REMARK  7 active torsions:
REMARK  status: ('A' for Active; 'I' for Inactive)
REMARK    1  A    between atoms: N_1  and  C_2
REMARK    2  A    between atoms: C_2  and  C_3
REMARK    3  A    between atoms: C_6  and  S_7
REMARK    4  A    between atoms: S_7  and  C_8
REMARK    5  A    between atoms: C_8  and  C_9
REMARK    6  A    between atoms: C_13  and  C_14
REMARK    7  A    between atoms: C_14  and  O_15
REMARK                            x       y       z     vdW  Elec       q    Type
REMARK                         _______ _______ _______ _____ _____    ______ ____
ROOT
ATOM      1  S   UNL     1       4.452  -5.860   0.259  0.00  0.00    +0.000 S 
ENDROOT
BRANCH   1   5
ATOM      2  C   UNL     1       2.998  -1.470   0.279  0.00  0.00    +0.000 A 
ATOM      3  C   UNL     1       4.343  -1.750  -0.005  0.00  0.00    +0.000 A 
ATOM      4  C   UNL     1       4.826  -3.067   0.001  0.00  0.00    +0.000 A 
ATOM      5  C   UNL     1       3.973  -4.134   0.300  0.00  0.00    +0.000 A 
ATOM      6  C   UNL     1       2.630  -3.854   0.582  0.00  0.00    +0.000 A 
ATOM      7  C   UNL     1       2.148  -2.540   0.575  0.00  0.00    +0.000 A 
BRANCH   2   8
ATOM      8  C   UNL     1       2.478  -0.053   0.275  0.00  0.00    +0.000 C 
BRANCH   8   9
ATOM      9  N   UNL     1       2.622   0.577  -1.032  0.00  0.00    +0.000 NA
ATOM     10  H   UNL     1       2.170   1.490  -1.012  0.00  0.00    +0.000 HD
ATOM     11  H   UNL     1       2.112   0.023  -1.720  0.00  0.00    +0.000 HD
ENDBRANCH   8   9
ENDBRANCH   2   8
ENDBRANCH   1   5
BRANCH   1  12
ATOM     12  C   UNL     1       6.193  -5.835   0.805  0.00  0.00    +0.000 C 
BRANCH  12  13
ATOM     13  C   UNL     1       6.748  -7.231   0.943  0.00  0.00    +0.000 A 
ATOM     14  C   UNL     1       7.348  -7.869  -0.138  0.00  0.00    +0.000 A 
ATOM     15  N   UNL     1       7.871  -9.116  -0.093  0.00  0.00    +0.000 NA
ATOM     16  C   UNL     1       7.780  -9.772   1.083  0.00  0.00    +0.000 A 
ATOM     17  C   UNL     1       7.205  -9.241   2.234  0.00  0.00    +0.000 A 
ATOM     18  C   UNL     1       6.666  -7.950   2.143  0.00  0.00    +0.000 A 
BRANCH  17  19
ATOM     19  C   UNL     1       7.108 -10.080   3.476  0.00  0.00    +0.000 C 
BRANCH  19  20
ATOM     20  O   UNL     1       7.178  -9.286   4.653  0.00  0.00    +0.000 OA
ATOM     21  H   UNL     1       8.032  -8.821   4.628  0.00  0.00    +0.000 HD
ENDBRANCH  19  20
ENDBRANCH  17  19
ENDBRANCH  12  13
ENDBRANCH   1  12
TORSDOF 7
