REMARK  Name = 
REMARK  6 active torsions:
REMARK  status: ('A' for Active; 'I' for Inactive)
REMARK    1  A    between atoms: N_1  and  C_2
REMARK    2  A    between atoms: C_7  and  C_8
REMARK    3  A    between atoms: C_8  and  C_9
REMARK    4  A    between atoms: C_12  and  C_13
REMARK    5  A    between atoms: C_13  and  N_14
REMARK    6  A    between atoms: C_15  and  C_17
REMARK                            x       y       z     vdW  Elec       q    Type
REMARK                         _______ _______ _______ _____ _____    ______ ____
ROOT
ATOM      1  C   UNL     1       2.306  -2.489   0.099  0.00  0.00    +0.000 A 
ATOM      2  C   UNL     1       2.955  -1.935   1.206  0.00  0.00    +0.000 A 
ATOM      3  C   UNL     1       4.342  -1.810   1.212  0.00  0.00    +0.000 A 
ATOM      4  C   UNL     1       5.062  -2.254   0.108  0.00  0.00    +0.000 A 
ATOM      5  N   UNL     1       4.461  -2.829  -0.965  0.00  0.00    +0.000 NA
ATOM      6  C   UNL     1       3.108  -2.928  -0.949  0.00  0.00    +0.000 A 
ENDROOT
BRANCH   1   7
ATOM      7  C   UNL     1       0.800  -2.482  -0.000  0.00  0.00    +0.000 C 
BRANCH   7  13
ATOM      8  C   UNL     1       0.114  -4.861   0.649  0.00  0.00    +0.000 A 
ATOM      9  C   UNL     1      -0.646  -5.990   0.319  0.00  0.00    +0.000 A 
ATOM     10  C   UNL     1      -1.319  -6.065  -0.897  0.00  0.00    +0.000 A 
ATOM     11  C   UNL     1      -1.237  -4.984  -1.751  0.00  0.00    +0.000 A 
ATOM     12  N   UNL     1      -0.529  -3.870  -1.477  0.00  0.00    +0.000 NA
ATOM     13  C   UNL     1       0.121  -3.805  -0.279  0.00  0.00    +0.000 A 
BRANCH   8  14
ATOM     14  N   UNL     1       0.598  -4.744   1.963  0.00  0.00    +0.000 N 
ATOM     15  H   UNL     1       0.818  -5.639   2.392  0.00  0.00    +0.000 HD
ATOM     16  H   UNL     1       1.360  -4.084   2.075  0.00  0.00    +0.000 HD
ENDBRANCH   8  14
ENDBRANCH   7  13
ENDBRANCH   1   7
BRANCH   4  17
ATOM     17  C   UNL     1       6.555  -2.026   0.036  0.00  0.00    +0.000 C 
BRANCH  17  18
ATOM     18  N   UNL     1       6.878  -0.759  -0.588  0.00  0.00    +0.000 N 
ATOM     19  C   UNL     1       7.204   0.358   0.137  0.00  0.00    +0.000 C 
ATOM     20  O   UNL     1       7.245   0.347   1.364  0.00  0.00    +0.000 OA
ATOM     21  H   UNL     1       6.628  -0.674  -1.566  0.00  0.00    +0.000 HD
BRANCH  19  22
ATOM     22  C   UNL     1       7.566   1.565  -0.626  0.00  0.00    +0.000 A 
ATOM     23  C   UNL     1       8.318   2.560  -0.013  0.00  0.00    +0.000 A 
ATOM     24  S   UNL     1       8.682   3.876  -1.034  0.00  0.00    +0.000 S 
ATOM     25  C   UNL     1       7.810   3.190  -2.323  0.00  0.00    +0.000 A 
ATOM     26  N   UNL     1       7.697   3.836  -3.513  0.00  0.00    +0.000 NA
ATOM     27  C   UNL     1       6.981   3.216  -4.391  0.00  0.00    +0.000 A 
ATOM     28  N   UNL     1       6.377   2.002  -4.189  0.00  0.00    +0.000 N 
ATOM     29  C   UNL     1       6.507   1.289  -3.021  0.00  0.00    +0.000 A 
ATOM     30  O   UNL     1       6.025   0.168  -2.902  0.00  0.00    +0.000 OA
ATOM     31  C   UNL     1       7.273   1.957  -1.985  0.00  0.00    +0.000 A 
ATOM     32  H   UNL     1       5.845   1.559  -4.923  0.00  0.00    +0.000 HD
ENDBRANCH  19  22
ENDBRANCH  17  18
ENDBRANCH   4  17
TORSDOF 6
