REMARK  Name = 
REMARK  6 active torsions:
REMARK  status: ('A' for Active; 'I' for Inactive)
REMARK    1  A    between atoms: C_1  and  C_2
REMARK    2  A    between atoms: C_5  and  C_6
REMARK    3  A    between atoms: C_10  and  N_11
REMARK    4  A    between atoms: N_11  and  C_12
REMARK    5  A    between atoms: C_12  and  C_13
REMARK    6  A    between atoms: C_12  and  C_14
REMARK                            x       y       z     vdW  Elec       q    Type
REMARK                         _______ _______ _______ _____ _____    ______ ____
ROOT
ATOM      1  C   UNL     1      -1.413   1.750   1.517  0.00  0.00    +0.000 C 
ATOM      2  C   UNL     1      -0.737   0.778   0.593  0.00  0.00    +0.000 A 
ATOM      3  C   UNL     1      -1.316  -0.480   0.398  0.00  0.00    +0.000 A 
ATOM      4  N   UNL     1      -0.812  -1.444  -0.398  0.00  0.00    +0.000 NA
ATOM      5  C   UNL     1       0.356  -1.135  -1.016  0.00  0.00    +0.000 A 
ATOM      6  C   UNL     1       1.035   0.060  -0.846  0.00  0.00    +0.000 A 
ATOM      7  C   UNL     1       0.486   1.064  -0.048  0.00  0.00    +0.000 A 
ENDROOT
BRANCH   5   8
ATOM      8  C   UNL     1       0.916  -2.160  -1.954  0.00  0.00    +0.000 C 
ATOM      9  N   UNL     1       0.196  -3.318  -2.049  0.00  0.00    +0.000 N 
ATOM     10  O   UNL     1       1.937  -1.979  -2.604  0.00  0.00    +0.000 OA
ATOM     11  H   UNL     1      -0.670  -3.408  -1.532  0.00  0.00    +0.000 HD
ATOM     12  H   UNL     1       0.481  -4.030  -2.709  0.00  0.00    +0.000 HD
ENDBRANCH   5   8
BRANCH   7  13
ATOM     13  N   UNL     1       1.138   2.270   0.181  0.00  0.00    +0.000 N 
ATOM     14  H   UNL     1       0.577   3.111   0.065  0.00  0.00    +0.000 HD
BRANCH  13  15
ATOM     15  C   UNL     1       2.563   2.486  -0.119  0.00  0.00    +0.000 C 
ATOM     16  C   UNL     1       2.807   2.823  -1.590  0.00  0.00    +0.000 C 
BRANCH  15  17
ATOM     17  C   UNL     1       3.103   3.623   0.752  0.00  0.00    +0.000 A 
ATOM     18  C   UNL     1       4.183   3.396   1.606  0.00  0.00    +0.000 A 
ATOM     19  C   UNL     1       4.680   4.454   2.362  0.00  0.00    +0.000 A 
ATOM     20  C   UNL     1       4.094   5.708   2.248  0.00  0.00    +0.000 A 
ATOM     21  C   UNL     1       3.025   5.854   1.380  0.00  0.00    +0.000 A 
ATOM     22  N   UNL     1       2.515   4.847   0.637  0.00  0.00    +0.000 NA
ENDBRANCH  15  17
ENDBRANCH  13  15
ENDBRANCH   7  13
TORSDOF 4
