REMARK  Name = 
REMARK  7 active torsions:
REMARK  status: ('A' for Active; 'I' for Inactive)
REMARK    1  A    between atoms: C_1  and  C_2
REMARK    2  A    between atoms: C_2  and  C_3
REMARK    3  A    between atoms: C_2  and  C_4
REMARK    4  A    between atoms: C_4  and  N_5
REMARK    5  A    between atoms: C_4  and  C_15
REMARK    6  A    between atoms: N_5  and  C_6
REMARK    7  A    between atoms: C_9  and  C_10
REMARK                            x       y       z     vdW  Elec       q    Type
REMARK                         _______ _______ _______ _____ _____    ______ ____
ROOT
ATOM      1  N   UNL     1       2.495   1.458  -1.848  0.00  0.00    +0.000 N 
ATOM      2  H   UNL     1       3.153   2.226  -1.796  0.00  0.00    +0.000 HD
ENDROOT
BRANCH   1   3
ATOM      3  C   UNL     1       1.801   1.475  -3.061  0.00  0.00    +0.000 A 
ATOM      4  C   UNL     1       0.886   0.516  -3.476  0.00  0.00    +0.000 A 
ATOM      5  N   UNL     1       0.207   0.541  -4.644  0.00  0.00    +0.000 NA
ATOM      6  C   UNL     1       0.438   1.621  -5.425  0.00  0.00    +0.000 A 
ATOM      7  N   UNL     1       1.249   2.650  -5.119  0.00  0.00    +0.000 NA
ATOM      8  C   UNL     1       1.890   2.548  -3.937  0.00  0.00    +0.000 A 
BRANCH   6   9
ATOM      9  C   UNL     1      -0.243   1.632  -6.774  0.00  0.00    +0.000 C 
ATOM     10  N   UNL     1      -1.013   0.525  -7.053  0.00  0.00    +0.000 N 
ATOM     11  O   UNL     1      -0.128   2.532  -7.596  0.00  0.00    +0.000 OA
ATOM     12  H   UNL     1      -1.072  -0.233  -6.384  0.00  0.00    +0.000 HD
ATOM     13  H   UNL     1      -1.445   0.445  -7.963  0.00  0.00    +0.000 HD
ENDBRANCH   6   9
ENDBRANCH   1   3
BRANCH   1  14
ATOM     14  C   UNL     1       3.047   0.188  -1.343  0.00  0.00    +0.000 C 
BRANCH  14  15
ATOM     15  C   UNL     1       4.582   0.152  -1.430  0.00  0.00    +0.000 A 
ATOM     16  C   UNL     1       5.395   1.281  -1.223  0.00  0.00    +0.000 A 
ATOM     17  C   UNL     1       6.789   1.183  -1.219  0.00  0.00    +0.000 A 
ATOM     18  C   UNL     1       7.408  -0.051  -1.417  0.00  0.00    +0.000 A 
ATOM     19 CL   UNL     1       9.133  -0.099  -1.361  0.00  0.00    +0.000 Cl
ATOM     20  C   UNL     1       6.625  -1.187  -1.627  0.00  0.00    +0.000 A 
ATOM     21 CL   UNL     1       7.318  -2.755  -1.850  0.00  0.00    +0.000 Cl
ATOM     22  C   UNL     1       5.225  -1.085  -1.637  0.00  0.00    +0.000 A 
ENDBRANCH  14  15
BRANCH  14  24
ATOM     23  C   UNL     1       3.026   0.865   1.184  0.00  0.00    +0.000 C 
ATOM     24  C   UNL     1       2.552  -0.114   0.104  0.00  0.00    +0.000 C 
ATOM     25  C   UNL     1       1.024  -0.231   0.182  0.00  0.00    +0.000 C 
ENDBRANCH  14  24
ENDBRANCH   1  14
TORSDOF 5
