REMARK  Name = 
REMARK  4 active torsions:
REMARK  status: ('A' for Active; 'I' for Inactive)
REMARK    1  A    between atoms: C_2  and  C_5
REMARK    2  A    between atoms: N_11  and  C_12
REMARK    3  A    between atoms: C_12  and  C_13
REMARK    4  A    between atoms: C_17  and  C_18
REMARK                            x       y       z     vdW  Elec       q    Type
REMARK                         _______ _______ _______ _____ _____    ______ ____
ROOT
ATOM      1  C   UNL     1       2.787  -0.749  -1.058  0.00  0.00    +0.000 A 
ATOM      2  C   UNL     1       2.518  -2.110  -1.171  0.00  0.00    +0.000 A 
ATOM      3  C   UNL     1       2.826  -2.724  -2.369  0.00  0.00    +0.000 A 
ATOM      4 CL   UNL     1       2.509  -4.395  -2.596  0.00  0.00    +0.000 Cl
ATOM      5  N   UNL     1       3.371  -2.103  -3.433  0.00  0.00    +0.000 NA
ATOM      6  C   UNL     1       3.634  -0.789  -3.329  0.00  0.00    +0.000 A 
ATOM      7  N   UNL     1       4.184  -0.204  -4.435  0.00  0.00    +0.000 N 
ATOM      8  C   UNL     1       3.355  -0.092  -2.159  0.00  0.00    +0.000 A 
ATOM      9  H   UNL     1       4.345  -0.818  -5.223  0.00  0.00    +0.000 HD
ENDROOT
BRANCH   1  11
ATOM     10  F   UNL     1       1.911  -0.738   1.171  0.00  0.00    +0.000 F 
ATOM     11  C   UNL     1       2.486   0.018   0.197  0.00  0.00    +0.000 C 
ATOM     12  F   UNL     1       1.633   1.057  -0.024  0.00  0.00    +0.000 F 
ATOM     13  F   UNL     1       3.602   0.564   0.753  0.00  0.00    +0.000 F 
ENDBRANCH   1  11
BRANCH   7  14
ATOM     14  C   UNL     1       4.495   1.209  -4.554  0.00  0.00    +0.000 C 
BRANCH  14  15
ATOM     15  C   UNL     1       4.980   1.607  -5.937  0.00  0.00    +0.000 A 
ATOM     16  N   UNL     1       4.057   2.016  -6.829  0.00  0.00    +0.000 NA
ATOM     17  C   UNL     1       4.514   2.402  -8.030  0.00  0.00    +0.000 A 
ATOM     18  C   UNL     1       5.846   2.401  -8.368  0.00  0.00    +0.000 A 
ATOM     19  C   UNL     1       6.732   1.959  -7.403  0.00  0.00    +0.000 A 
ATOM     20  N   UNL     1       6.307   1.551  -6.186  0.00  0.00    +0.000 NA
BRANCH  19  21
ATOM     21  C   UNL     1       8.181   1.867  -7.651  0.00  0.00    +0.000 A 
ATOM     22  C   UNL     1       8.860   2.720  -8.535  0.00  0.00    +0.000 A 
ATOM     23  C   UNL     1      10.217   2.540  -8.799  0.00  0.00    +0.000 A 
ATOM     24  C   UNL     1      10.878   1.511  -8.155  0.00  0.00    +0.000 A 
ATOM     25  N   UNL     1      10.286   0.686  -7.269  0.00  0.00    +0.000 NA
ATOM     26  C   UNL     1       8.963   0.888  -7.036  0.00  0.00    +0.000 A 
ENDBRANCH  19  21
ENDBRANCH  14  15
ENDBRANCH   7  14
TORSDOF 4
