REMARK  Name = 
REMARK  7 active torsions:
REMARK  status: ('A' for Active; 'I' for Inactive)
REMARK    1  A    between atoms: C_2  and  C_3
REMARK    2  A    between atoms: C_6  and  O_7
REMARK    3  A    between atoms: O_7  and  C_8
REMARK    4  A    between atoms: C_8  and  C_9
REMARK    5  A    between atoms: C_12  and  C_13
REMARK    6  A    between atoms: C_13  and  N_14
REMARK    7  A    between atoms: C_15  and  C_17
REMARK                            x       y       z     vdW  Elec       q    Type
REMARK                         _______ _______ _______ _____ _____    ______ ____
ROOT
ATOM      1  C   UNL     1       5.916  -0.982   0.320  0.00  0.00    +0.000 A 
ATOM      2  C   UNL     1       6.773  -2.073   0.378  0.00  0.00    +0.000 A 
ATOM      3  C   UNL     1       8.140  -1.851   0.529  0.00  0.00    +0.000 A 
ATOM      4  C   UNL     1       8.607  -0.547   0.618  0.00  0.00    +0.000 A 
ATOM      5  N   UNL     1       7.752   0.497   0.529  0.00  0.00    +0.000 NA
ATOM      6  N   UNL     1       6.400   0.278   0.383  0.00  0.00    +0.000 NA
ENDROOT
BRANCH   1   7
ATOM      7  C   UNL     1       4.420  -1.166   0.233  0.00  0.00    +0.000 C 
BRANCH   7   8
ATOM      8  O   UNL     1       4.002  -1.296  -1.129  0.00  0.00    +0.000 OA
BRANCH   8  12
ATOM      9  C   UNL     1      -0.036  -1.826  -2.072  0.00  0.00    +0.000 A 
ATOM     10  C   UNL     1       0.336  -1.766  -0.723  0.00  0.00    +0.000 A 
ATOM     11  C   UNL     1       1.679  -1.585  -0.364  0.00  0.00    +0.000 A 
ATOM     12  C   UNL     1       2.662  -1.467  -1.349  0.00  0.00    +0.000 A 
ATOM     13  C   UNL     1       2.286  -1.531  -2.695  0.00  0.00    +0.000 A 
ATOM     14  C   UNL     1       0.946  -1.709  -3.057  0.00  0.00    +0.000 A 
BRANCH   9  16
ATOM     15  N   UNL     1      -2.528  -2.137  -2.719  0.00  0.00    +0.000 NA
ATOM     16  C   UNL     1      -1.413  -1.999  -2.432  0.00  0.00    +0.000 C 
ENDBRANCH   9  16
ENDBRANCH   8  12
ENDBRANCH   7   8
ENDBRANCH   1   7
BRANCH   4  17
ATOM     17  C   UNL     1      10.075  -0.249   0.789  0.00  0.00    +0.000 C 
BRANCH  17  18
ATOM     18  N   UNL     1      10.748  -0.121  -0.485  0.00  0.00    +0.000 N 
ATOM     19  C   UNL     1      12.075  -0.430  -0.646  0.00  0.00    +0.000 C 
ATOM     20  O   UNL     1      12.749  -0.912   0.260  0.00  0.00    +0.000 OA
ATOM     21  H   UNL     1      10.312   0.516  -1.147  0.00  0.00    +0.000 HD
BRANCH  19  22
ATOM     22  C   UNL     1      12.630  -0.232  -1.991  0.00  0.00    +0.000 A 
ATOM     23  C   UNL     1      13.707  -0.997  -2.417  0.00  0.00    +0.000 A 
ATOM     24  S   UNL     1      14.192  -0.663  -4.019  0.00  0.00    +0.000 S 
ATOM     25  C   UNL     1      13.008   0.548  -4.183  0.00  0.00    +0.000 A 
ATOM     26  N   UNL     1      12.893   1.267  -5.332  0.00  0.00    +0.000 NA
ATOM     27  C   UNL     1      11.970   2.170  -5.307  0.00  0.00    +0.000 A 
ATOM     28  N   UNL     1      11.145   2.414  -4.238  0.00  0.00    +0.000 N 
ATOM     29  C   UNL     1      11.204   1.691  -3.072  0.00  0.00    +0.000 A 
ATOM     30  O   UNL     1      10.417   1.892  -2.153  0.00  0.00    +0.000 OA
ATOM     31  C   UNL     1      12.240   0.678  -3.041  0.00  0.00    +0.000 A 
ATOM     32  H   UNL     1      10.429   3.123  -4.287  0.00  0.00    +0.000 HD
ENDBRANCH  19  22
ENDBRANCH  17  18
ENDBRANCH   4  17
TORSDOF 7
