REMARK  Name = 
REMARK  7 active torsions:
REMARK  status: ('A' for Active; 'I' for Inactive)
REMARK    1  A    between atoms: C_1  and  C_2
REMARK    2  A    between atoms: C_2  and  N_3
REMARK    3  A    between atoms: N_3  and  C_4
REMARK    4  A    between atoms: C_4  and  C_5
REMARK    5  A    between atoms: C_8  and  C_9
REMARK    6  A    between atoms: C_9  and  C_10
REMARK    7  A    between atoms: C_18  and  C_20
REMARK                            x       y       z     vdW  Elec       q    Type
REMARK                         _______ _______ _______ _____ _____    ______ ____
ROOT
ATOM      1  N   UNL     1      -9.720   2.649  -2.033  0.00  0.00    +0.000 N 
ATOM      2  C   UNL     1     -10.501   3.808  -2.209  0.00  0.00    +0.000 C 
ATOM      3  O   UNL     1     -11.714   3.805  -2.013  0.00  0.00    +0.000 OA
ENDROOT
BRANCH   2   4
ATOM      4  C   UNL     1      -9.860   5.042  -2.686  0.00  0.00    +0.000 A 
ATOM      5  C   UNL     1      -9.086   5.132  -3.831  0.00  0.00    +0.000 A 
ATOM      6  S   UNL     1      -8.574   6.725  -4.181  0.00  0.00    +0.000 S 
ATOM      7  C   UNL     1      -9.481   7.356  -2.887  0.00  0.00    +0.000 A 
ATOM      8  N   UNL     1      -9.577   8.697  -2.681  0.00  0.00    +0.000 NA
ATOM      9  C   UNL     1     -10.356   9.026  -1.704  0.00  0.00    +0.000 A 
ATOM     10  N   UNL     1     -11.010   8.135  -0.889  0.00  0.00    +0.000 N 
ATOM     11  C   UNL     1     -10.836   6.770  -0.979  0.00  0.00    +0.000 A 
ATOM     12  O   UNL     1     -11.242   6.015  -0.102  0.00  0.00    +0.000 OA
ATOM     13  C   UNL     1     -10.076   6.357  -2.142  0.00  0.00    +0.000 A 
ATOM     14  H   UNL     1     -11.547   8.459  -0.099  0.00  0.00    +0.000 HD
ENDBRANCH   2   4
BRANCH   1  16
ATOM     15  C   UNL     1     -10.800   1.310  -0.249  0.00  0.00    +0.000 C 
ATOM     16  C   UNL     1     -10.440   1.410  -1.724  0.00  0.00    +0.000 C 
ENDBRANCH   1  16
BRANCH   1  17
ATOM     17  C   UNL     1      -8.275   2.632  -2.250  0.00  0.00    +0.000 C 
BRANCH  17  18
ATOM     18  C   UNL     1      -7.457   1.484  -1.737  0.00  0.00    +0.000 A 
ATOM     19  C   UNL     1      -6.970   1.430  -0.432  0.00  0.00    +0.000 A 
ATOM     20  C   UNL     1      -6.017   0.466  -0.083  0.00  0.00    +0.000 A 
ATOM     21  C   UNL     1      -5.596  -0.449  -1.039  0.00  0.00    +0.000 A 
ATOM     22  N   UNL     1      -6.129  -0.455  -2.288  0.00  0.00    +0.000 NA
ATOM     23  C   UNL     1      -7.031   0.493  -2.608  0.00  0.00    +0.000 A 
BRANCH  21  24
ATOM     24  C   UNL     1      -4.468  -1.435  -0.880  0.00  0.00    +0.000 C 
BRANCH  24  25
ATOM     25  C   UNL     1      -3.925  -1.920   0.472  0.00  0.00    +0.000 C 
ATOM     26  C   UNL     1      -2.977  -0.942   1.179  0.00  0.00    +0.000 C 
ATOM     27  C   UNL     1      -2.410  -1.605   2.437  0.00  0.00    +0.000 C 
ATOM     28  C   UNL     1      -3.516  -2.180   3.321  0.00  0.00    +0.000 C 
ATOM     29  N   UNL     1      -4.395  -3.086   2.581  0.00  0.00    +0.000 NA
ATOM     30  C   UNL     1      -5.010  -2.428   1.428  0.00  0.00    +0.000 C 
ATOM     31  H   UNL     1      -5.127  -3.434   3.199  0.00  0.00    +0.000 HD
ENDBRANCH  24  25
ENDBRANCH  21  24
ENDBRANCH  17  18
ENDBRANCH   1  17
TORSDOF 6
