REMARK  Name = 
REMARK  5 active torsions:
REMARK  status: ('A' for Active; 'I' for Inactive)
REMARK    1  A    between atoms: C_2  and  C_4
REMARK    2  A    between atoms: C_7  and  C_8
REMARK    3  A    between atoms: C_8  and  C_9
REMARK    4  A    between atoms: C_9  and  C_10
REMARK    5  A    between atoms: C_14  and  C_15
REMARK                            x       y       z     vdW  Elec       q    Type
REMARK                         _______ _______ _______ _____ _____    ______ ____
ROOT
ATOM      1  C   UNL     1       5.142  -5.894   1.367  0.00  0.00    +0.000 C 
ATOM      2  C   UNL     1       5.039  -6.402  -0.070  0.00  0.00    +0.000 C 
ATOM      3  C   UNL     1       3.818  -6.391   0.792  0.00  0.00    +0.000 C 
ENDROOT
BRANCH   1   4
ATOM      4  C   UNL     1       5.883  -6.807   2.344  0.00  0.00    +0.000 A 
ATOM      5  C   UNL     1       5.213  -7.586   3.292  0.00  0.00    +0.000 A 
ATOM      6  C   UNL     1       5.933  -8.464   4.083  0.00  0.00    +0.000 A 
ATOM      7  N   UNL     1       7.273  -8.597   4.027  0.00  0.00    +0.000 NA
ATOM      8  C   UNL     1       7.950  -7.819   3.140  0.00  0.00    +0.000 A 
ATOM      9  C   UNL     1       7.278  -6.936   2.292  0.00  0.00    +0.000 A 
BRANCH   8  10
ATOM     10  C   UNL     1       9.425  -7.956   3.120  0.00  0.00    +0.000 A 
ATOM     11  C   UNL     1      10.091  -8.886   3.919  0.00  0.00    +0.000 A 
ATOM     12  C   UNL     1      11.482  -8.964   3.870  0.00  0.00    +0.000 A 
ATOM     13  C   UNL     1      12.180  -8.113   3.026  0.00  0.00    +0.000 A 
ATOM     14  C   UNL     1      11.455  -7.218   2.262  0.00  0.00    +0.000 A 
ATOM     15  N   UNL     1      10.110  -7.121   2.286  0.00  0.00    +0.000 NA
ENDBRANCH   8  10
ENDBRANCH   1   4
BRANCH   1  16
ATOM     16  C   UNL     1       5.429  -4.401   1.473  0.00  0.00    +0.000 C 
BRANCH  16  20
ATOM     17  C   UNL     1       4.108  -2.343   4.942  0.00  0.00    +0.000 A 
ATOM     18  C   UNL     1       5.388  -2.878   4.962  0.00  0.00    +0.000 A 
ATOM     19  C   UNL     1       5.816  -3.599   3.848  0.00  0.00    +0.000 A 
ATOM     20  C   UNL     1       4.963  -3.753   2.750  0.00  0.00    +0.000 A 
ATOM     21  C   UNL     1       3.689  -3.198   2.842  0.00  0.00    +0.000 A 
ATOM     22  N   UNL     1       3.235  -2.499   3.907  0.00  0.00    +0.000 NA
BRANCH  17  24
ATOM     23  N   UNL     1       2.331  -1.082   6.003  0.00  0.00    +0.000 N 
ATOM     24  C   UNL     1       3.625  -1.520   6.099  0.00  0.00    +0.000 C 
ATOM     25  O   UNL     1       4.327  -1.252   7.066  0.00  0.00    +0.000 OA
ATOM     26  H   UNL     1       1.932  -0.530   6.746  0.00  0.00    +0.000 HD
ATOM     27  H   UNL     1       1.786  -1.326   5.184  0.00  0.00    +0.000 HD
ENDBRANCH  17  24
ENDBRANCH  16  20
ENDBRANCH   1  16
TORSDOF 5
