REMARK  Name = 
REMARK  6 active torsions:
REMARK  status: ('A' for Active; 'I' for Inactive)
REMARK    1  A    between atoms: N_1  and  C_2
REMARK    2  A    between atoms: C_2  and  C_3
REMARK    3  A    between atoms: C_3  and  C_4
REMARK    4  A    between atoms: C_9  and  O_10
REMARK    5  A    between atoms: N_13  and  C_14
REMARK    6  A    between atoms: C_14  and  C_15
REMARK                            x       y       z     vdW  Elec       q    Type
REMARK                         _______ _______ _______ _____ _____    ______ ____
ROOT
ATOM      1  C   UNL     1       4.434  -1.184  -0.594  0.00  0.00    +0.000 A 
ATOM      2  N   UNL     1       5.253  -1.189   0.441  0.00  0.00    +0.000 NA
ATOM      3  C   UNL     1       6.517  -1.172  -0.073  0.00  0.00    +0.000 A 
ATOM      4  C   UNL     1       7.750  -1.200   0.599  0.00  0.00    +0.000 A 
ATOM      5  C   UNL     1       8.932  -1.192  -0.152  0.00  0.00    +0.000 A 
ATOM      6  C   UNL     1       8.872  -1.174  -1.542  0.00  0.00    +0.000 A 
ATOM      7  C   UNL     1       7.660  -1.162  -2.233  0.00  0.00    +0.000 A 
ATOM      8  C   UNL     1       6.488  -1.141  -1.463  0.00  0.00    +0.000 A 
ATOM      9  N   UNL     1       5.143  -1.090  -1.778  0.00  0.00    +0.000 N 
ENDROOT
BRANCH   6  10
ATOM     10  O   UNL     1      10.012  -1.157  -2.295  0.00  0.00    +0.000 OA
ATOM     11  H   UNL     1      10.777  -1.172  -1.697  0.00  0.00    +0.000 HD
ENDBRANCH   6  10
BRANCH   1  12
ATOM     12  C   UNL     1       2.947  -1.293  -0.465  0.00  0.00    +0.000 C 
BRANCH  12  13
ATOM     13  C   UNL     1       2.309   0.078  -0.238  0.00  0.00    +0.000 C 
BRANCH  13  14
ATOM     14  N   UNL     1       0.872  -0.038   0.013  0.00  0.00    +0.000 NA
ATOM     15  H   UNL     1       0.487   0.893   0.170  0.00  0.00    +0.000 HD
ATOM     16  H   UNL     1       0.721  -0.552   0.882  0.00  0.00    +0.000 HD
ENDBRANCH  13  14
ENDBRANCH  12  13
ENDBRANCH   1  12
BRANCH   9  17
ATOM     17  C   UNL     1       4.607  -1.090  -3.132  0.00  0.00    +0.000 C 
BRANCH  17  18
ATOM     18  C   UNL     1       4.433   0.283  -3.744  0.00  0.00    +0.000 A 
ATOM     19  C   UNL     1       5.480   1.202  -3.834  0.00  0.00    +0.000 A 
ATOM     20  C   UNL     1       5.309   2.375  -4.568  0.00  0.00    +0.000 A 
ATOM     21  C   UNL     1       4.095   2.615  -5.195  0.00  0.00    +0.000 A 
ATOM     22  C   UNL     1       3.101   1.669  -5.040  0.00  0.00    +0.000 A 
ATOM     23 CL   UNL     1       1.569   1.879  -5.783  0.00  0.00    +0.000 Cl
ATOM     24  N   UNL     1       3.237   0.519  -4.343  0.00  0.00    +0.000 NA
ENDBRANCH  17  18
ENDBRANCH   9  17
TORSDOF 6
