REMARK  Name = 
REMARK  13 active torsions:
REMARK  status: ('A' for Active; 'I' for Inactive)
REMARK    1  A    between atoms: C_1  and  O_2
REMARK    2  A    between atoms: O_2  and  C_3
REMARK    3  A    between atoms: C_3  and  C_4
REMARK    4  A    between atoms: C_4  and  N_5
REMARK    5  A    between atoms: C_4  and  C_29
REMARK    6  A    between atoms: N_5  and  C_6
REMARK    7  A    between atoms: C_6  and  C_7
REMARK    8  A    between atoms: C_10  and  C_11
REMARK    9  A    between atoms: C_11  and  N_12
REMARK   10  A    between atoms: C_13  and  C_15
REMARK   11  A    between atoms: N_17  and  C_18
REMARK   12  A    between atoms: C_23  and  O_24
REMARK   13  A    between atoms: O_24  and  C_25
REMARK                            x       y       z     vdW  Elec       q    Type
REMARK                         _______ _______ _______ _____ _____    ______ ____
ROOT
ATOM      1  C   UNL     1       5.001   2.496   1.384  0.00  0.00    +0.000 A 
ATOM      2  C   UNL     1       4.491   3.707   0.918  0.00  0.00    +0.000 A 
ATOM      3  C   UNL     1       4.801   4.878   1.606  0.00  0.00    +0.000 A 
ATOM      4  C   UNL     1       5.592   4.818   2.754  0.00  0.00    +0.000 A 
ATOM      5  C   UNL     1       6.082   3.573   3.128  0.00  0.00    +0.000 A 
ATOM      6  N   UNL     1       5.800   2.424   2.478  0.00  0.00    +0.000 NA
ENDROOT
BRANCH   1   7
ATOM      7  C   UNL     1       4.565   1.178   0.771  0.00  0.00    +0.000 C 
BRANCH   7   8
ATOM      8  N   UNL     1       4.812   1.058  -0.673  0.00  0.00    +0.000 NA
ATOM      9  H   UNL     1       4.307   1.808  -1.147  0.00  0.00    +0.000 HD
BRANCH   8  10
ATOM     10  C   UNL     1       4.294  -0.207  -1.245  0.00  0.00    +0.000 C 
BRANCH  10  11
ATOM     11  C   UNL     1       4.998  -1.443  -0.694  0.00  0.00    +0.000 A 
ATOM     12  C   UNL     1       6.241  -1.833  -1.224  0.00  0.00    +0.000 A 
ATOM     13  C   UNL     1       6.891  -2.974  -0.749  0.00  0.00    +0.000 A 
ATOM     14  C   UNL     1       6.311  -3.722   0.267  0.00  0.00    +0.000 A 
ATOM     15  F   UNL     1       6.927  -4.822   0.717  0.00  0.00    +0.000 F 
ATOM     16  C   UNL     1       5.101  -3.345   0.828  0.00  0.00    +0.000 A 
ATOM     17  C   UNL     1       4.450  -2.208   0.355  0.00  0.00    +0.000 A 
ENDBRANCH  10  11
BRANCH  10  18
ATOM     18  C   UNL     1       2.746  -0.334  -1.202  0.00  0.00    +0.000 C 
BRANCH  18  20
ATOM     19  C   UNL     1       0.688   0.657  -1.717  0.00  0.00    +0.000 C 
ATOM     20  O   UNL     1       2.105   0.814  -1.771  0.00  0.00    +0.000 OA
ENDBRANCH  18  20
ENDBRANCH  10  18
ENDBRANCH   8  10
ENDBRANCH   7   8
ENDBRANCH   1   7
BRANCH   4  21
ATOM     21  C   UNL     1       5.918   6.038   3.554  0.00  0.00    +0.000 C 
BRANCH  21  22
ATOM     22  N   UNL     1       7.113   6.679   3.079  0.00  0.00    +0.000 N 
ATOM     23  C   UNL     1       7.561   7.825   3.696  0.00  0.00    +0.000 C 
ATOM     24  O   UNL     1       6.954   8.357   4.617  0.00  0.00    +0.000 OA
ATOM     25  H   UNL     1       7.725   6.191   2.441  0.00  0.00    +0.000 HD
BRANCH  23  26
ATOM     26  C   UNL     1       8.800   8.356   3.148  0.00  0.00    +0.000 A 
ATOM     27  C   UNL     1       9.199   8.283   1.820  0.00  0.00    +0.000 A 
ATOM     28  N   UNL     1      10.368   8.985   1.684  0.00  0.00    +0.000 N 
ATOM     29  C   UNL     1      11.079   9.196   0.445  0.00  0.00    +0.000 C 
ATOM     30  C   UNL     1      10.758   9.477   2.900  0.00  0.00    +0.000 A 
ATOM     31  N   UNL     1      11.862  10.212   3.126  0.00  0.00    +0.000 NA
ATOM     32  C   UNL     1      11.989  10.533   4.424  0.00  0.00    +0.000 A 
ATOM     33  N   UNL     1      11.185  10.194   5.448  0.00  0.00    +0.000 NA
ATOM     34  C   UNL     1      10.084   9.459   5.165  0.00  0.00    +0.000 A 
ATOM     35  C   UNL     1       9.817   9.085   3.843  0.00  0.00    +0.000 A 
BRANCH  34  36
ATOM     36  O   UNL     1       9.254   9.037   6.180  0.00  0.00    +0.000 OA
ATOM     37  C   UNL     1       9.685   9.423   7.477  0.00  0.00    +0.000 C 
ENDBRANCH  34  36
ENDBRANCH  23  26
ENDBRANCH  21  22
ENDBRANCH   4  21
TORSDOF 10
