REMARK  Name = 
REMARK  9 active torsions:
REMARK  status: ('A' for Active; 'I' for Inactive)
REMARK    1  A    between atoms: C_1  and  C_2
REMARK    2  A    between atoms: C_2  and  N_3
REMARK    3  A    between atoms: N_3  and  C_4
REMARK    4  A    between atoms: N_3  and  C_5
REMARK    5  A    between atoms: C_5  and  C_6
REMARK    6  A    between atoms: C_9  and  O_10
REMARK    7  A    between atoms: O_10  and  C_11
REMARK    8  A    between atoms: C_11  and  C_12
REMARK    9  A    between atoms: C_16  and  C_17
REMARK                            x       y       z     vdW  Elec       q    Type
REMARK                         _______ _______ _______ _____ _____    ______ ____
ROOT
ATOM      1  O   UNL     1       6.127  -4.864   4.830  0.00  0.00    +0.000 OA
ENDROOT
BRANCH   1   5
ATOM      2  C   UNL     1       4.969  -2.049   2.044  0.00  0.00    +0.000 A 
ATOM      3  C   UNL     1       5.574  -1.647   3.232  0.00  0.00    +0.000 A 
ATOM      4  C   UNL     1       5.947  -2.620   4.162  0.00  0.00    +0.000 A 
ATOM      5  C   UNL     1       5.724  -3.964   3.882  0.00  0.00    +0.000 A 
ATOM      6  C   UNL     1       5.103  -4.271   2.680  0.00  0.00    +0.000 A 
ATOM      7  N   UNL     1       4.727  -3.353   1.761  0.00  0.00    +0.000 NA
BRANCH   2   8
ATOM      8  C   UNL     1       4.489  -1.044   1.016  0.00  0.00    +0.000 C 
BRANCH   8   9
ATOM      9  N   UNL     1       5.506  -0.096   0.494  0.00  0.00    +0.000 NA
ATOM     10  C   UNL     1       4.817   0.842  -0.402  0.00  0.00    +0.000 C 
BRANCH   9  12
ATOM     11  C   UNL     1       7.691   0.091  -0.731  0.00  0.00    +0.000 C 
ATOM     12  C   UNL     1       6.582  -0.822  -0.211  0.00  0.00    +0.000 C 
ENDBRANCH   9  12
ENDBRANCH   8   9
ENDBRANCH   2   8
ENDBRANCH   1   5
BRANCH   1  13
ATOM     13  C   UNL     1       6.289  -6.202   4.349  0.00  0.00    +0.000 C 
BRANCH  13  14
ATOM     14  C   UNL     1       7.092  -7.004   5.340  0.00  0.00    +0.000 A 
ATOM     15  C   UNL     1       6.593  -7.289   6.598  0.00  0.00    +0.000 A 
ATOM     16  C   UNL     1       7.403  -8.037   7.424  0.00  0.00    +0.000 A 
ATOM     17  N   UNL     1       8.622  -8.483   7.070  0.00  0.00    +0.000 NA
ATOM     18  C   UNL     1       9.020  -8.147   5.819  0.00  0.00    +0.000 A 
ATOM     19  N   UNL     1       8.305  -7.433   4.933  0.00  0.00    +0.000 NA
BRANCH  18  20
ATOM     20  C   UNL     1      10.387  -8.623   5.387  0.00  0.00    +0.000 C 
ATOM     21  N   UNL     1      11.092  -9.338   6.328  0.00  0.00    +0.000 N 
ATOM     22  O   UNL     1      10.872  -8.408   4.281  0.00  0.00    +0.000 OA
ATOM     23  H   UNL     1      10.692  -9.507   7.244  0.00  0.00    +0.000 HD
ATOM     24  H   UNL     1      12.019  -9.671   6.099  0.00  0.00    +0.000 HD
ENDBRANCH  18  20
ENDBRANCH  13  14
ENDBRANCH   1  13
TORSDOF 7
