REMARK  Name = 
REMARK  5 active torsions:
REMARK  status: ('A' for Active; 'I' for Inactive)
REMARK    1  A    between atoms: N_1  and  C_2
REMARK    2  A    between atoms: C_2  and  C_3
REMARK    3  A    between atoms: C_7  and  C_8
REMARK    4  A    between atoms: C_9  and  C_10
REMARK    5  A    between atoms: C_13  and  C_14
REMARK                            x       y       z     vdW  Elec       q    Type
REMARK                         _______ _______ _______ _____ _____    ______ ____
ROOT
ATOM      1  C   UNL     1       6.155   3.298   0.344  0.00  0.00    +0.000 C 
ATOM      2  C   UNL     1       6.753   4.500   0.419  0.00  0.00    +0.000 C 
ENDROOT
BRANCH   1   7
ATOM      3  C   UNL     1       2.596   4.143   0.175  0.00  0.00    +0.000 A 
ATOM      4  C   UNL     1       1.967   2.908   0.048  0.00  0.00    +0.000 A 
ATOM      5  C   UNL     1       2.747   1.757   0.032  0.00  0.00    +0.000 A 
ATOM      6  C   UNL     1       4.131   1.869   0.140  0.00  0.00    +0.000 A 
ATOM      7  C   UNL     1       4.693   3.135   0.260  0.00  0.00    +0.000 A 
ATOM      8  N   UNL     1       3.943   4.263   0.284  0.00  0.00    +0.000 NA
BRANCH   3   9
ATOM      9  C   UNL     1       1.787   5.422   0.184  0.00  0.00    +0.000 C 
BRANCH   9  10
ATOM     10  N   UNL     1       0.844   5.497   1.304  0.00  0.00    +0.000 NA
ATOM     11  H   UNL     1       0.393   6.410   1.284  0.00  0.00    +0.000 HD
ATOM     12  H   UNL     1       1.387   5.472   2.168  0.00  0.00    +0.000 HD
ENDBRANCH   9  10
ENDBRANCH   3   9
ENDBRANCH   1   7
BRANCH   2  13
ATOM     13  C   UNL     1       8.203   4.741   0.482  0.00  0.00    +0.000 A 
ATOM     14  C   UNL     1       9.144   3.878  -0.091  0.00  0.00    +0.000 A 
ATOM     15  C   UNL     1      10.510   4.181  -0.042  0.00  0.00    +0.000 A 
ATOM     16  C   UNL     1      10.952   5.362   0.564  0.00  0.00    +0.000 A 
ATOM     17  C   UNL     1      10.020   6.233   1.134  0.00  0.00    +0.000 A 
ATOM     18  C   UNL     1       8.656   5.923   1.087  0.00  0.00    +0.000 A 
BRANCH  16  19
ATOM     19  C   UNL     1      12.413   5.634   0.599  0.00  0.00    +0.000 C 
ATOM     20  N   UNL     1      12.814   6.936   0.702  0.00  0.00    +0.000 N 
ATOM     21  O   UNL     1      13.236   4.731   0.502  0.00  0.00    +0.000 OA
ATOM     22  H   UNL     1      12.190   7.715   0.546  0.00  0.00    +0.000 HD
ATOM     23  H   UNL     1      13.808   7.105   0.619  0.00  0.00    +0.000 HD
ENDBRANCH  16  19
ENDBRANCH   2  13
TORSDOF 5
