REMARK  Name = 
REMARK  5 active torsions:
REMARK  status: ('A' for Active; 'I' for Inactive)
REMARK    1  A    between atoms: C_1  and  C_2
REMARK    2  A    between atoms: C_2  and  C_3
REMARK    3  A    between atoms: C_2  and  N_4
REMARK    4  A    between atoms: C_2  and  C_14
REMARK    5  A    between atoms: C_8  and  C_9
REMARK                            x       y       z     vdW  Elec       q    Type
REMARK                         _______ _______ _______ _____ _____    ______ ____
ROOT
ATOM      1  N   UNL     1       2.877  -1.321   0.589  0.00  0.00    +0.000 N 
ATOM      2  C   UNL     1       2.174  -1.919   1.599  0.00  0.00    +0.000 A 
ATOM      3  N   UNL     1       2.335  -3.243   1.729  0.00  0.00    +0.000 NA
ATOM      4  C   UNL     1       1.540  -3.881   2.622  0.00  0.00    +0.000 A 
ATOM      5  C   UNL     1       0.660  -3.230   3.452  0.00  0.00    +0.000 A 
ATOM      6  C   UNL     1       0.603  -1.869   3.280  0.00  0.00    +0.000 A 
ATOM      7  N   UNL     1       1.341  -1.205   2.369  0.00  0.00    +0.000 NA
ATOM      8  H   UNL     1       3.860  -1.549   0.650  0.00  0.00    +0.000 HD
ENDROOT
BRANCH   5   9
ATOM      9  C   UNL     1      -0.170  -3.970   4.409  0.00  0.00    +0.000 C 
ATOM     10  N   UNL     1      -0.639  -3.299   5.506  0.00  0.00    +0.000 N 
ATOM     11  O   UNL     1      -0.420  -5.155   4.244  0.00  0.00    +0.000 OA
ATOM     12  H   UNL     1      -0.276  -2.406   5.808  0.00  0.00    +0.000 HD
ATOM     13  H   UNL     1      -1.139  -3.855   6.191  0.00  0.00    +0.000 HD
ENDBRANCH   5   9
BRANCH   1  15
ATOM     14  C   UNL     1       1.015   0.100  -0.256  0.00  0.00    +0.000 C 
ATOM     15  C   UNL     1       2.535  -0.034  -0.014  0.00  0.00    +0.000 C 
ATOM     16  C   UNL     1       3.042   1.095   0.902  0.00  0.00    +0.000 C 
BRANCH  15  17
ATOM     17  C   UNL     1       3.189   0.023  -1.416  0.00  0.00    +0.000 A 
ATOM     18  C   UNL     1       3.536   1.246  -2.023  0.00  0.00    +0.000 A 
ATOM     19  C   UNL     1       4.075   1.291  -3.313  0.00  0.00    +0.000 A 
ATOM     20  C   UNL     1       4.269   0.116  -4.032  0.00  0.00    +0.000 A 
ATOM     21  C   UNL     1       3.913  -1.104  -3.467  0.00  0.00    +0.000 A 
ATOM     22  C   UNL     1       3.371  -1.149  -2.179  0.00  0.00    +0.000 A 
ENDBRANCH  15  17
ENDBRANCH   1  15
TORSDOF 3
