REMARK  Name = 
REMARK  7 active torsions:
REMARK  status: ('A' for Active; 'I' for Inactive)
REMARK    1  A    between atoms: C_2  and  C_3
REMARK    2  A    between atoms: C_6  and  C_7
REMARK    3  A    between atoms: N_9  and  C_10
REMARK    4  A    between atoms: C_10  and  C_11
REMARK    5  A    between atoms: N_14  and  C_15
REMARK    6  A    between atoms: C_15  and  C_16
REMARK    7  A    between atoms: C_20  and  O_21
REMARK                            x       y       z     vdW  Elec       q    Type
REMARK                         _______ _______ _______ _____ _____    ______ ____
ROOT
ATOM      1  C   UNL     1       4.964   2.761   5.555  0.00  0.00    +0.000 C 
ATOM      2  C   UNL     1       4.934   4.294   5.678  0.00  0.00    +0.000 C 
ATOM      3  C   UNL     1       6.197   4.846   6.347  0.00  0.00    +0.000 C 
ATOM      4  N   UNL     1       6.454   4.224   7.660  0.00  0.00    +0.000 NA
ATOM      5  C   UNL     1       6.513   2.756   7.566  0.00  0.00    +0.000 C 
ATOM      6  C   UNL     1       5.232   2.187   6.952  0.00  0.00    +0.000 C 
ENDROOT
BRANCH   1   7
ATOM      7  C   UNL     1       6.011   2.317   4.519  0.00  0.00    +0.000 C 
BRANCH   7  10
ATOM      8  C   UNL     1       7.031   0.362   3.462  0.00  0.00    +0.000 C 
ATOM      9  O   UNL     1       7.787   1.064   2.799  0.00  0.00    +0.000 OA
ATOM     10  N   UNL     1       6.076   0.883   4.314  0.00  0.00    +0.000 N 
ATOM     11  H   UNL     1       5.587   0.260   4.944  0.00  0.00    +0.000 HD
BRANCH   8  15
ATOM     12  C   UNL     1       7.743  -3.128   2.223  0.00  0.00    +0.000 C 
ATOM     13  C   UNL     1       6.219  -3.034   2.122  0.00  0.00    +0.000 C 
ATOM     14  C   UNL     1       5.800  -1.789   2.912  0.00  0.00    +0.000 C 
ATOM     15  C   UNL     1       7.087  -1.156   3.443  0.00  0.00    +0.000 C 
ATOM     16  C   UNL     1       8.175  -1.694   2.510  0.00  0.00    +0.000 C 
BRANCH  12  18
ATOM     17  N   UNL     1       8.459  -4.747   4.172  0.00  0.00    +0.000 NA
ATOM     18  C   UNL     1       8.150  -4.039   3.309  0.00  0.00    +0.000 C 
ENDBRANCH  12  18
ENDBRANCH   8  15
ENDBRANCH   7  10
ENDBRANCH   1   7
BRANCH   4  19
ATOM     19  C   UNL     1       7.715   4.786   8.206  0.00  0.00    +0.000 C 
BRANCH  19  20
ATOM     20  C   UNL     1       8.034   4.226   9.596  0.00  0.00    +0.000 C 
ATOM     21  O   UNL     1       8.779   3.255   9.745  0.00  0.00    +0.000 OA
ATOM     22  N   UNL     1       7.423   4.861  10.656  0.00  0.00    +0.000 N 
ATOM     23  C   UNL     1       7.560   4.384  12.052  0.00  0.00    +0.000 C 
ATOM     24  C   UNL     1       8.137   5.756  12.426  0.00  0.00    +0.000 C 
ATOM     25  C   UNL     1       7.790   6.140  10.969  0.00  0.00    +0.000 C 
ATOM     26  O   UNL     1       7.742   7.167  10.333  0.00  0.00    +0.000 OA
BRANCH  24  27
ATOM     27  O   UNL     1       7.470   6.495  13.475  0.00  0.00    +0.000 OA
ATOM     28  H   UNL     1       6.613   6.769  13.103  0.00  0.00    +0.000 HD
ENDBRANCH  24  27
ENDBRANCH  19  20
ENDBRANCH   4  19
TORSDOF 7
