REMARK  Name = 
REMARK  7 active torsions:
REMARK  status: ('A' for Active; 'I' for Inactive)
REMARK    1  A    between atoms: C_1  and  C_2
REMARK    2  A    between atoms: C_2  and  N_3
REMARK    3  A    between atoms: C_2  and  C_17
REMARK    4  A    between atoms: C_4  and  C_6
REMARK    5  A    between atoms: N_12  and  C_13
REMARK    6  A    between atoms: C_20  and  C_21
REMARK    7  A    between atoms: C_21  and  N_22
REMARK                            x       y       z     vdW  Elec       q    Type
REMARK                         _______ _______ _______ _____ _____    ______ ____
ROOT
ATOM      1  C   UNL     1       0.943   0.026  -0.067  0.00  0.00    +0.000 C 
ATOM      2  C   UNL     1       2.474  -0.034  -0.099  0.00  0.00    +0.000 C 
ENDROOT
BRANCH   2   3
ATOM      3  C   UNL     1       2.962  -1.173   0.785  0.00  0.00    +0.000 A 
ATOM      4  C   UNL     1       3.200  -2.426   0.199  0.00  0.00    +0.000 A 
ATOM      5  C   UNL     1       3.539  -3.530   0.983  0.00  0.00    +0.000 A 
ATOM      6  C   UNL     1       3.641  -3.413   2.373  0.00  0.00    +0.000 A 
ATOM      7  C   UNL     1       3.457  -2.157   2.961  0.00  0.00    +0.000 A 
ATOM      8  C   UNL     1       3.108  -1.052   2.178  0.00  0.00    +0.000 A 
BRANCH   6   9
ATOM      9  C   UNL     1       3.881  -4.635   3.229  0.00  0.00    +0.000 C 
BRANCH   9  10
ATOM     10  N   UNL     1       5.307  -4.864   3.415  0.00  0.00    +0.000 N 
ATOM     11  C   UNL     1       5.567  -5.958   4.264  0.00  0.00    +0.000 A 
ATOM     12  C   UNL     1       6.891  -6.297   4.529  0.00  0.00    +0.000 A 
ATOM     13  C   UNL     1       7.168  -7.394   5.346  0.00  0.00    +0.000 A 
ATOM     14  C   UNL     1       6.118  -8.128   5.879  0.00  0.00    +0.000 A 
ATOM     15  C   UNL     1       4.833  -7.732   5.562  0.00  0.00    +0.000 A 
ATOM     16  N   UNL     1       4.543  -6.678   4.770  0.00  0.00    +0.000 NA
ATOM     17  H   UNL     1       5.783  -4.042   3.771  0.00  0.00    +0.000 HD
ENDBRANCH   9  10
ENDBRANCH   6   9
ENDBRANCH   2   3
BRANCH   2  18
ATOM     18  N   UNL     1       3.042   1.238   0.301  0.00  0.00    +0.000 N 
ATOM     19  C   UNL     1       3.255   2.274  -0.571  0.00  0.00    +0.000 C 
ATOM     20  O   UNL     1       3.154   2.153  -1.789  0.00  0.00    +0.000 OA
ATOM     21  H   UNL     1       2.928   1.473   1.277  0.00  0.00    +0.000 HD
BRANCH  19  22
ATOM     22  C   UNL     1       3.656   3.545   0.045  0.00  0.00    +0.000 A 
ATOM     23  C   UNL     1       4.444   4.447  -0.656  0.00  0.00    +0.000 A 
ATOM     24  S   UNL     1       4.817   5.856   0.232  0.00  0.00    +0.000 S 
ATOM     25  C   UNL     1       3.898   5.328   1.565  0.00  0.00    +0.000 A 
ATOM     26  N   UNL     1       3.770   6.096   2.678  0.00  0.00    +0.000 NA
ATOM     27  C   UNL     1       3.024   5.583   3.602  0.00  0.00    +0.000 A 
ATOM     28  N   UNL     1       2.392   4.359   3.534  0.00  0.00    +0.000 N 
ATOM     29  C   UNL     1       1.599   3.862   4.637  0.00  0.00    +0.000 C 
ATOM     30  C   UNL     1       2.529   3.536   2.422  0.00  0.00    +0.000 A 
ATOM     31  O   UNL     1       2.031   2.415   2.366  0.00  0.00    +0.000 OA
ATOM     32  C   UNL     1       3.340   4.085   1.349  0.00  0.00    +0.000 A 
ENDBRANCH  19  22
ENDBRANCH   2  18
TORSDOF 5
