REMARK  Name = 
REMARK  6 active torsions:
REMARK  status: ('A' for Active; 'I' for Inactive)
REMARK    1  A    between atoms: C_1  and  C_2
REMARK    2  A    between atoms: C_4  and  C_5
REMARK    3  A    between atoms: C_10  and  N_11
REMARK    4  A    between atoms: N_11  and  C_12
REMARK    5  A    between atoms: C_12  and  C_13
REMARK    6  A    between atoms: C_16  and  C_17
REMARK                            x       y       z     vdW  Elec       q    Type
REMARK                         _______ _______ _______ _____ _____    ______ ____
ROOT
ATOM      1  C   UNL     1      -2.545  -0.173  -0.044  0.00  0.00    +0.000 C 
ATOM      2  C   UNL     1      -1.043  -0.066  -0.041  0.00  0.00    +0.000 A 
ATOM      3  C   UNL     1      -0.313  -1.268   0.007  0.00  0.00    +0.000 A 
ATOM      4  C   UNL     1       1.073  -1.224   0.016  0.00  0.00    +0.000 A 
ATOM      5  N   UNL     1       1.785  -0.072   0.013  0.00  0.00    +0.000 NA
ATOM      6  C   UNL     1       1.053   1.069  -0.024  0.00  0.00    +0.000 A 
ATOM      7  C   UNL     1      -0.349   1.160  -0.104  0.00  0.00    +0.000 A 
ENDROOT
BRANCH   4   8
ATOM      8  C   UNL     1       1.854  -2.501   0.020  0.00  0.00    +0.000 C 
ATOM      9  N   UNL     1       3.215  -2.360   0.024  0.00  0.00    +0.000 N 
ATOM     10  O   UNL     1       1.322  -3.605   0.007  0.00  0.00    +0.000 OA
ATOM     11  H   UNL     1       3.623  -1.432   0.026  0.00  0.00    +0.000 HD
ATOM     12  H   UNL     1       3.800  -3.182   0.008  0.00  0.00    +0.000 HD
ENDBRANCH   4   8
BRANCH   7  13
ATOM     13  N   UNL     1      -1.022   2.401  -0.117  0.00  0.00    +0.000 N 
ATOM     14  H   UNL     1      -1.999   2.310  -0.383  0.00  0.00    +0.000 HD
BRANCH  13  15
ATOM     15  C   UNL     1      -0.365   3.487  -0.855  0.00  0.00    +0.000 C 
BRANCH  15  16
ATOM     16  C   UNL     1      -1.175   4.767  -0.809  0.00  0.00    +0.000 A 
ATOM     17  C   UNL     1      -1.423   5.403   0.417  0.00  0.00    +0.000 A 
ATOM     18  C   UNL     1      -2.095   6.630   0.464  0.00  0.00    +0.000 A 
ATOM     19  C   UNL     1      -2.526   7.242  -0.717  0.00  0.00    +0.000 A 
ATOM     20  C   UNL     1      -2.278   6.619  -1.944  0.00  0.00    +0.000 A 
ATOM     21  C   UNL     1      -1.606   5.391  -1.990  0.00  0.00    +0.000 A 
BRANCH  19  22
ATOM     22  C   UNL     1      -3.211   8.505  -0.670  0.00  0.00    +0.000 C 
ATOM     23  N   UNL     1      -3.763   9.525  -0.633  0.00  0.00    +0.000 NA
ENDBRANCH  19  22
ENDBRANCH  15  16
ENDBRANCH  13  15
ENDBRANCH   7  13
TORSDOF 5
