REMARK  Name = 
REMARK  4 active torsions:
REMARK  status: ('A' for Active; 'I' for Inactive)
REMARK    1  A    between atoms: C_2  and  C_4
REMARK    2  A    between atoms: C_7  and  O_8
REMARK    3  A    between atoms: O_8  and  C_9
REMARK    4  A    between atoms: C_9  and  C_10
REMARK                            x       y       z     vdW  Elec       q    Type
REMARK                         _______ _______ _______ _____ _____    ______ ____
ROOT
ATOM      1  C   UNL     1       4.452   4.949  -3.530  0.00  0.00    +0.000 C 
ENDROOT
BRANCH   1   2
ATOM      2  C   UNL     1       5.262   5.745  -4.565  0.00  0.00    +0.000 C 
ATOM      3  C   UNL     1       5.844   7.041  -3.973  0.00  0.00    +0.000 C 
ATOM      4  C   UNL     1       4.768   8.097  -3.719  0.00  0.00    +0.000 C 
ATOM      5  N   UNL     1       4.005   8.307  -4.940  0.00  0.00    +0.000 N 
ATOM      6  C   UNL     1       3.940   9.549  -5.523  0.00  0.00    +0.000 A 
ATOM      7  N   UNL     1       4.635  10.563  -4.978  0.00  0.00    +0.000 NA
ATOM      8  C   UNL     1       4.563  11.771  -5.565  0.00  0.00    +0.000 A 
ATOM      9  C   UNL     1       3.813  12.025  -6.681  0.00  0.00    +0.000 A 
ATOM     10  C   UNL     1       3.134  10.944  -7.175  0.00  0.00    +0.000 A 
ATOM     11  N   UNL     1       3.184   9.717  -6.622  0.00  0.00    +0.000 NA
ATOM     12  C   UNL     1       3.363   7.157  -5.549  0.00  0.00    +0.000 C 
ATOM     13  C   UNL     1       4.409   6.069  -5.809  0.00  0.00    +0.000 C 
ENDBRANCH   1   2
BRANCH   1  14
ATOM     14  O   UNL     1       5.295   4.593  -2.428  0.00  0.00    +0.000 OA
BRANCH  14  18
ATOM     15  C   UNL     1       3.715   2.355   0.722  0.00  0.00    +0.000 A 
ATOM     16  C   UNL     1       2.872   2.725  -0.331  0.00  0.00    +0.000 A 
ATOM     17  C   UNL     1       3.368   3.475  -1.398  0.00  0.00    +0.000 A 
ATOM     18  C   UNL     1       4.706   3.872  -1.423  0.00  0.00    +0.000 A 
ATOM     19  C   UNL     1       5.541   3.526  -0.355  0.00  0.00    +0.000 A 
ATOM     20  C   UNL     1       5.048   2.775   0.719  0.00  0.00    +0.000 A 
BRANCH  15  22
ATOM     21  N   UNL     1       2.158   0.699   1.585  0.00  0.00    +0.000 N 
ATOM     22  C   UNL     1       3.202   1.543   1.855  0.00  0.00    +0.000 C 
ATOM     23  O   UNL     1       3.704   1.595   2.969  0.00  0.00    +0.000 OA
ATOM     24  H   UNL     1       1.869   0.081   2.333  0.00  0.00    +0.000 HD
ATOM     25  H   UNL     1       1.895   0.445   0.641  0.00  0.00    +0.000 HD
ENDBRANCH  15  22
ENDBRANCH  14  18
ENDBRANCH   1  14
TORSDOF 4
