REMARK  Name = 
REMARK  5 active torsions:
REMARK  status: ('A' for Active; 'I' for Inactive)
REMARK    1  A    between atoms: C_1  and  C_2
REMARK    2  A    between atoms: C_2  and  O_3
REMARK    3  A    between atoms: C_2  and  C_13
REMARK    4  A    between atoms: O_3  and  C_4
REMARK    5  A    between atoms: C_7  and  C_8
REMARK                            x       y       z     vdW  Elec       q    Type
REMARK                         _______ _______ _______ _____ _____    ______ ____
ROOT
ATOM      1  C   UNL     1       0.612   0.310  -1.352  0.00  0.00    +0.000 A 
ATOM      2  C   UNL     1       1.320   0.559  -2.520  0.00  0.00    +0.000 A 
ATOM      3  C   UNL     1       0.619   0.775  -3.710  0.00  0.00    +0.000 A 
ATOM      4  C   UNL     1      -0.775   0.753  -3.715  0.00  0.00    +0.000 A 
ATOM      5  C   UNL     1      -1.400   0.521  -2.502  0.00  0.00    +0.000 A 
ATOM      6  N   UNL     1      -0.739   0.299  -1.333  0.00  0.00    +0.000 NA
ENDROOT
BRANCH   4   7
ATOM      7  C   UNL     1      -1.490   0.962  -4.998  0.00  0.00    +0.000 C 
ATOM      8  N   UNL     1      -2.858   0.975  -5.010  0.00  0.00    +0.000 N 
ATOM      9  O   UNL     1      -0.872   1.113  -6.045  0.00  0.00    +0.000 OA
ATOM     10  H   UNL     1      -3.460   0.880  -4.210  0.00  0.00    +0.000 HD
ATOM     11  H   UNL     1      -3.297   1.117  -5.912  0.00  0.00    +0.000 HD
ENDBRANCH   4   7
BRANCH   1  12
ATOM     12  O   UNL     1       1.153   0.048  -0.126  0.00  0.00    +0.000 OA
BRANCH  12  14
ATOM     13  C   UNL     1       3.058   1.442   0.340  0.00  0.00    +0.000 C 
ATOM     14  C   UNL     1       2.577   0.024   0.030  0.00  0.00    +0.000 C 
BRANCH  14  15
ATOM     15  C   UNL     1       2.962  -0.985   1.144  0.00  0.00    +0.000 C 
ATOM     16  C   UNL     1       2.455  -2.402   0.810  0.00  0.00    +0.000 C 
ATOM     17  C   UNL     1       2.745  -3.377   1.947  0.00  0.00    +0.000 C 
ATOM     18  C   UNL     1       2.236  -2.817   3.265  0.00  0.00    +0.000 C 
ATOM     19  O   UNL     1       2.844  -1.553   3.521  0.00  0.00    +0.000 OA
ATOM     20  C   UNL     1       2.480  -0.575   2.542  0.00  0.00    +0.000 C 
ENDBRANCH  14  15
ENDBRANCH  12  14
ENDBRANCH   1  12
TORSDOF 4
