REMARK  Name = 
REMARK  5 active torsions:
REMARK  status: ('A' for Active; 'I' for Inactive)
REMARK    1  A    between atoms: C_2  and  C_5
REMARK    2  A    between atoms: C_7  and  C_8
REMARK    3  A    between atoms: C_12  and  C_13
REMARK    4  A    between atoms: C_13  and  N_14
REMARK    5  A    between atoms: C_19  and  C_20
REMARK                            x       y       z     vdW  Elec       q    Type
REMARK                         _______ _______ _______ _____ _____    ______ ____
ROOT
ATOM      1  C   UNL     1       4.208  -0.411   4.651  0.00  0.00    +0.000 A 
ATOM      2  C   UNL     1       3.547   0.667   5.267  0.00  0.00    +0.000 A 
ATOM      3  C   UNL     1       3.970   1.182   6.497  0.00  0.00    +0.000 A 
ATOM      4  C   UNL     1       5.046   0.605   7.167  0.00  0.00    +0.000 A 
ATOM      5  C   UNL     1       5.710  -0.490   6.610  0.00  0.00    +0.000 A 
ATOM      6  C   UNL     1       5.310  -0.956   5.341  0.00  0.00    +0.000 A 
ENDROOT
BRANCH   1   9
ATOM      7  C   UNL     1       3.506  -2.823   1.786  0.00  0.00    +0.000 A 
ATOM      8  C   UNL     1       3.924  -2.322   3.025  0.00  0.00    +0.000 A 
ATOM      9  C   UNL     1       3.753  -0.964   3.348  0.00  0.00    +0.000 A 
ATOM     10  C   UNL     1       3.128  -0.167   2.381  0.00  0.00    +0.000 A 
ATOM     11  C   UNL     1       2.715  -0.733   1.185  0.00  0.00    +0.000 A 
ATOM     12  N   UNL     1       2.891  -2.030   0.867  0.00  0.00    +0.000 NA
BRANCH   7  14
ATOM     13  F   UNL     1       4.410  -4.968   2.434  0.00  0.00    +0.000 F 
ATOM     14  C   UNL     1       3.758  -4.286   1.442  0.00  0.00    +0.000 C 
ATOM     15  F   UNL     1       4.531  -4.449   0.330  0.00  0.00    +0.000 F 
ATOM     16  F   UNL     1       2.613  -4.992   1.215  0.00  0.00    +0.000 F 
ENDBRANCH   7  14
ENDBRANCH   1   9
BRANCH   5  17
ATOM     17  C   UNL     1       6.805  -1.201   7.371  0.00  0.00    +0.000 C 
BRANCH  17  18
ATOM     18  N   UNL     1       8.110  -0.694   6.999  0.00  0.00    +0.000 N 
ATOM     19  C   UNL     1       9.236  -1.229   7.612  0.00  0.00    +0.000 A 
ATOM     20  C   UNL     1       9.356  -2.564   7.930  0.00  0.00    +0.000 A 
ATOM     21  C   UNL     1      10.544  -2.974   8.484  0.00  0.00    +0.000 A 
ATOM     22  N   UNL     1      11.576  -2.149   8.706  0.00  0.00    +0.000 NA
ATOM     23  C   UNL     1      11.406  -0.854   8.348  0.00  0.00    +0.000 A 
ATOM     24  N   UNL     1      10.248  -0.372   7.816  0.00  0.00    +0.000 NA
ATOM     25  H   UNL     1       8.193   0.320   6.998  0.00  0.00    +0.000 HD
BRANCH  23  26
ATOM     26  C   UNL     1      12.585   0.112   8.524  0.00  0.00    +0.000 C 
ATOM     27  F   UNL     1      13.701  -0.468   9.064  0.00  0.00    +0.000 F 
ATOM     28  F   UNL     1      13.006   0.666   7.346  0.00  0.00    +0.000 F 
ATOM     29  F   UNL     1      12.299   1.168   9.345  0.00  0.00    +0.000 F 
ENDBRANCH  23  26
ENDBRANCH  17  18
ENDBRANCH   5  17
TORSDOF 5
