REMARK  Name = 
REMARK  7 active torsions:
REMARK  status: ('A' for Active; 'I' for Inactive)
REMARK    1  A    between atoms: N_1  and  C_2
REMARK    2  A    between atoms: C_2  and  C_3
REMARK    3  A    between atoms: C_3  and  C_4
REMARK    4  A    between atoms: C_4  and  N_5
REMARK    5  A    between atoms: C_10  and  O_11
REMARK    6  A    between atoms: C_15  and  C_16
REMARK    7  A    between atoms: C_16  and  C_17
REMARK                            x       y       z     vdW  Elec       q    Type
REMARK                         _______ _______ _______ _____ _____    ______ ____
ROOT
ATOM      1  N   UNL     1       4.678   2.324   1.852  0.00  0.00    +0.000 NA
ATOM      2  C   UNL     1       4.350   2.628   3.256  0.00  0.00    +0.000 C 
ATOM      3  C   UNL     1       5.171   3.791   3.778  0.00  0.00    +0.000 C 
ATOM      4  C   UNL     1       4.887   5.001   2.950  0.00  0.00    +0.000 A 
ATOM      5  N   UNL     1       4.979   6.191   3.593  0.00  0.00    +0.000 NA
ATOM      6  C   UNL     1       4.755   7.263   2.842  0.00  0.00    +0.000 A 
ATOM      7  N   UNL     1       4.481   7.287   1.545  0.00  0.00    +0.000 NA
ATOM      8  C   UNL     1       4.420   6.075   0.954  0.00  0.00    +0.000 A 
ATOM      9  C   UNL     1       4.584   4.858   1.602  0.00  0.00    +0.000 A 
ATOM     10  C   UNL     1       4.483   3.485   0.912  0.00  0.00    +0.000 C 
ENDROOT
BRANCH   6  11
ATOM     11  O   UNL     1       4.838   8.449   3.496  0.00  0.00    +0.000 OA
ATOM     12  H   UNL     1       5.065   8.111   4.377  0.00  0.00    +0.000 HD
ENDBRANCH   6  11
BRANCH   1  13
ATOM     13  C   UNL     1       4.125   0.999   1.520  0.00  0.00    +0.000 C 
BRANCH  13  14
ATOM     14  C   UNL     1       4.500   0.306   0.204  0.00  0.00    +0.000 C 
BRANCH  14  15
ATOM     15  C   UNL     1       5.986   0.316  -0.127  0.00  0.00    +0.000 C 
BRANCH  15  16
ATOM     16  N   UNL     1       6.167  -0.223  -1.473  0.00  0.00    +0.000 NA
ATOM     17  H   UNL     1       7.157  -0.229  -1.706  0.00  0.00    +0.000 HD
ATOM     18  H   UNL     1       5.721   0.392  -2.153  0.00  0.00    +0.000 HD
ENDBRANCH  15  16
ENDBRANCH  14  15
ENDBRANCH  13  14
ENDBRANCH   1  13
BRANCH  10  19
ATOM     19  C   UNL     1       3.236   3.395  -0.037  0.00  0.00    +0.000 C 
BRANCH  19  20
ATOM     20  C   UNL     1       3.303   4.197  -1.323  0.00  0.00    +0.000 A 
ATOM     21  C   UNL     1       2.217   4.984  -1.718  0.00  0.00    +0.000 A 
ATOM     22  C   UNL     1       2.329   5.817  -2.828  0.00  0.00    +0.000 A 
ATOM     23  C   UNL     1       3.519   5.817  -3.532  0.00  0.00    +0.000 A 
ATOM     24  N   UNL     1       4.562   5.014  -3.231  0.00  0.00    +0.000 NA
ATOM     25  C   UNL     1       4.426   4.213  -2.149  0.00  0.00    +0.000 A 
ENDBRANCH  19  20
ENDBRANCH  10  19
TORSDOF 7
