REMARK  Name = 
REMARK  7 active torsions:
REMARK  status: ('A' for Active; 'I' for Inactive)
REMARK    1  A    between atoms: C_1  and  N_2
REMARK    2  A    between atoms: N_2  and  C_3
REMARK    3  A    between atoms: C_3  and  C_4
REMARK    4  A    between atoms: C_7  and  C_8
REMARK    5  A    between atoms: C_8  and  N_9
REMARK    6  A    between atoms: C_10  and  C_12
REMARK    7  A    between atoms: C_24  and  C_26
REMARK                            x       y       z     vdW  Elec       q    Type
REMARK                         _______ _______ _______ _____ _____    ______ ____
ROOT
ATOM      1  C   UNL     1       2.080  -2.312  -0.599  0.00  0.00    +0.000 A 
ATOM      2  C   UNL     1       2.548  -3.596  -0.309  0.00  0.00    +0.000 A 
ATOM      3  C   UNL     1       1.709  -4.696  -0.489  0.00  0.00    +0.000 A 
ATOM      4  C   UNL     1       0.410  -4.486  -0.947  0.00  0.00    +0.000 A 
ATOM      5  N   UNL     1      -0.034  -3.258  -1.316  0.00  0.00    +0.000 NA
ATOM      6  C   UNL     1       0.803  -2.213  -1.142  0.00  0.00    +0.000 A 
ENDROOT
BRANCH   1   7
ATOM      7  C   UNL     1       2.859  -1.081  -0.223  0.00  0.00    +0.000 C 
BRANCH   7   9
ATOM      8  C   UNL     1       4.007  -1.113  -2.481  0.00  0.00    +0.000 C 
ATOM      9  N   UNL     1       3.799  -0.496  -1.177  0.00  0.00    +0.000 N 
ATOM     10  C   UNL     1       4.584   0.627  -0.866  0.00  0.00    +0.000 C 
ATOM     11  O   UNL     1       5.327   1.139  -1.710  0.00  0.00    +0.000 OA
BRANCH  10  12
ATOM     12  C   UNL     1       4.552   1.168   0.599  0.00  0.00    +0.000 C 
ATOM     13  C   UNL     1       4.775   2.690   0.621  0.00  0.00    +0.000 C 
ATOM     14  C   UNL     1       4.895   3.225   2.048  0.00  0.00    +0.000 C 
ATOM     15  C   UNL     1       5.942   2.444   2.832  0.00  0.00    +0.000 C 
ATOM     16  C   UNL     1       5.679   0.942   2.754  0.00  0.00    +0.000 C 
ATOM     17  N   UNL     1       5.615   0.484   1.369  0.00  0.00    +0.000 NA
ATOM     18  H   UNL     1       5.490  -0.525   1.332  0.00  0.00    +0.000 HD
ENDBRANCH  10  12
ENDBRANCH   7   9
ENDBRANCH   1   7
BRANCH   4  19
ATOM     19  C   UNL     1      -0.581  -5.624  -0.989  0.00  0.00    +0.000 C 
BRANCH  19  20
ATOM     20  N   UNL     1      -0.561  -6.348  -2.235  0.00  0.00    +0.000 N 
ATOM     21  C   UNL     1       0.073  -7.554  -2.368  0.00  0.00    +0.000 C 
ATOM     22  O   UNL     1       0.714  -8.064  -1.452  0.00  0.00    +0.000 OA
ATOM     23  H   UNL     1      -0.953  -5.878  -3.046  0.00  0.00    +0.000 HD
BRANCH  21  24
ATOM     24  C   UNL     1      -0.108  -8.230  -3.651  0.00  0.00    +0.000 A 
ATOM     25  C   UNL     1       0.096  -9.596  -3.824  0.00  0.00    +0.000 A 
ATOM     26  N   UNL     1      -0.179  -9.933  -5.124  0.00  0.00    +0.000 N 
ATOM     27  C   UNL     1      -0.522  -8.808  -5.810  0.00  0.00    +0.000 A 
ATOM     28  N   UNL     1      -0.817  -8.801  -7.130  0.00  0.00    +0.000 NA
ATOM     29  C   UNL     1      -1.087  -7.613  -7.578  0.00  0.00    +0.000 A 
ATOM     30  N   UNL     1      -1.093  -6.461  -6.819  0.00  0.00    +0.000 N 
ATOM     31  C   UNL     1      -0.855  -6.451  -5.460  0.00  0.00    +0.000 A 
ATOM     32  O   UNL     1      -0.969  -5.437  -4.781  0.00  0.00    +0.000 OA
ATOM     33  C   UNL     1      -0.504  -7.746  -4.932  0.00  0.00    +0.000 A 
ATOM     34  H   UNL     1      -0.134 -10.860  -5.527  0.00  0.00    +0.000 HD
ATOM     35  H   UNL     1      -1.336  -5.572  -7.233  0.00  0.00    +0.000 HD
ENDBRANCH  21  24
ENDBRANCH  19  20
ENDBRANCH   4  19
TORSDOF 6
