REMARK  Name = 
REMARK  7 active torsions:
REMARK  status: ('A' for Active; 'I' for Inactive)
REMARK    1  A    between atoms: C_1  and  C_2
REMARK    2  A    between atoms: C_2  and  C_3
REMARK    3  A    between atoms: C_3  and  N_4
REMARK    4  A    between atoms: C_3  and  C_17
REMARK    5  A    between atoms: C_5  and  C_7
REMARK    6  A    between atoms: C_20  and  C_21
REMARK    7  A    between atoms: C_21  and  N_22
REMARK                            x       y       z     vdW  Elec       q    Type
REMARK                         _______ _______ _______ _____ _____    ______ ____
ROOT
ATOM      1  C   UNL     1       3.079  -0.924  -1.093  0.00  0.00    +0.000 C 
ENDROOT
BRANCH   1   2
ATOM      2  C   UNL     1       4.591  -1.183  -0.998  0.00  0.00    +0.000 A 
ATOM      3  N   UNL     1       5.013  -2.161  -0.171  0.00  0.00    +0.000 NA
ATOM      4  C   UNL     1       6.326  -2.478  -0.222  0.00  0.00    +0.000 A 
ATOM      5  C   UNL     1       7.236  -1.859  -1.052  0.00  0.00    +0.000 A 
ATOM      6  C   UNL     1       6.714  -0.841  -1.819  0.00  0.00    +0.000 A 
ATOM      7  N   UNL     1       5.417  -0.475  -1.800  0.00  0.00    +0.000 NA
BRANCH   5   8
ATOM      8  C   UNL     1       8.670  -2.277  -1.142  0.00  0.00    +0.000 C 
BRANCH   8   9
ATOM      9  N   UNL     1       8.817  -3.340  -2.131  0.00  0.00    +0.000 N 
ATOM     10  C   UNL     1      10.147  -3.766  -2.307  0.00  0.00    +0.000 A 
ATOM     11  C   UNL     1      10.400  -4.785  -3.225  0.00  0.00    +0.000 A 
ATOM     12  C   UNL     1      11.707  -5.235  -3.411  0.00  0.00    +0.000 A 
ATOM     13  C   UNL     1      12.731  -4.663  -2.672  0.00  0.00    +0.000 A 
ATOM     14  C   UNL     1      12.398  -3.667  -1.773  0.00  0.00    +0.000 A 
ATOM     15  N   UNL     1      11.137  -3.216  -1.576  0.00  0.00    +0.000 NA
ATOM     16  H   UNL     1       8.437  -3.086  -3.038  0.00  0.00    +0.000 HD
ENDBRANCH   8   9
ENDBRANCH   5   8
ENDBRANCH   1   2
BRANCH   1  17
ATOM     17  N   UNL     1       2.631   0.106  -0.153  0.00  0.00    +0.000 N 
ATOM     18  C   UNL     1       1.439  -0.005   0.518  0.00  0.00    +0.000 C 
ATOM     19  O   UNL     1       0.689  -0.965   0.358  0.00  0.00    +0.000 OA
ATOM     20  H   UNL     1       3.167   0.968  -0.120  0.00  0.00    +0.000 HD
BRANCH  18  21
ATOM     21  C   UNL     1       1.101   1.051   1.481  0.00  0.00    +0.000 A 
ATOM     22  C   UNL     1       0.187   0.783   2.494  0.00  0.00    +0.000 A 
ATOM     23  S   UNL     1      -0.081   2.095   3.546  0.00  0.00    +0.000 S 
ATOM     24  C   UNL     1       0.968   3.091   2.654  0.00  0.00    +0.000 A 
ATOM     25  N   UNL     1       1.166   4.390   3.009  0.00  0.00    +0.000 NA
ATOM     26  C   UNL     1       1.943   5.046   2.215  0.00  0.00    +0.000 A 
ATOM     27  N   UNL     1       2.548   4.518   1.103  0.00  0.00    +0.000 N 
ATOM     28  C   UNL     1       2.430   3.198   0.741  0.00  0.00    +0.000 A 
ATOM     29  O   UNL     1       3.049   2.734  -0.209  0.00  0.00    +0.000 OA
ATOM     30  C   UNL     1       1.534   2.425   1.581  0.00  0.00    +0.000 A 
ATOM     31  H   UNL     1       3.158   5.083   0.533  0.00  0.00    +0.000 HD
ENDBRANCH  18  21
ENDBRANCH   1  17
BRANCH   1  33
ATOM     32  C   UNL     1       1.215  -0.405  -2.809  0.00  0.00    +0.000 C 
ATOM     33  C   UNL     1       2.702  -0.587  -2.553  0.00  0.00    +0.000 C 
ENDBRANCH   1  33
TORSDOF 6
