REMARK  Name = 
REMARK  7 active torsions:
REMARK  status: ('A' for Active; 'I' for Inactive)
REMARK    1  A    between atoms: C_1  and  C_2
REMARK    2  A    between atoms: N_4  and  C_5
REMARK    3  A    between atoms: C_5  and  C_6
REMARK    4  A    between atoms: C_9  and  O_10
REMARK    5  A    between atoms: O_10  and  C_11
REMARK    6  A    between atoms: C_11  and  C_12
REMARK    7  A    between atoms: C_14  and  N_15
REMARK                            x       y       z     vdW  Elec       q    Type
REMARK                         _______ _______ _______ _____ _____    ______ ____
ROOT
ATOM      1  C   UNL     1       5.032  -0.545   2.678  0.00  0.00    +0.000 A 
ATOM      2  C   UNL     1       5.528   0.453   3.514  0.00  0.00    +0.000 A 
ATOM      3  C   UNL     1       6.012   0.101   4.774  0.00  0.00    +0.000 A 
ATOM      4  C   UNL     1       6.008  -1.232   5.168  0.00  0.00    +0.000 A 
ATOM      5  C   UNL     1       5.464  -2.157   4.287  0.00  0.00    +0.000 A 
ATOM      6  N   UNL     1       5.000  -1.849   3.053  0.00  0.00    +0.000 NA
ENDROOT
BRANCH   1   7
ATOM      7  C   UNL     1       4.554  -0.212   1.279  0.00  0.00    +0.000 C 
BRANCH   7  11
ATOM      8  C   UNL     1       6.673  -0.196  -1.903  0.00  0.00    +0.000 C 
ATOM      9  C   UNL     1       5.474  -0.037  -0.997  0.00  0.00    +0.000 C 
ATOM     10  N   UNL     1       4.303   0.195  -1.497  0.00  0.00    +0.000 NA
ATOM     11  N   UNL     1       5.671  -0.140   0.351  0.00  0.00    +0.000 N 
ATOM     12  H   UNL     1       4.345   0.240  -2.520  0.00  0.00    +0.000 HD
ATOM     13  H   UNL     1       6.542  -0.539   0.684  0.00  0.00    +0.000 HD
ENDBRANCH   7  11
ENDBRANCH   1   7
BRANCH   4  14
ATOM     14  O   UNL     1       6.550  -1.504   6.392  0.00  0.00    +0.000 OA
BRANCH  14  15
ATOM     15  C   UNL     1       6.967  -2.860   6.580  0.00  0.00    +0.000 C 
BRANCH  15  16
ATOM     16  C   UNL     1       7.956  -2.950   7.712  0.00  0.00    +0.000 A 
ATOM     17  C   UNL     1       8.987  -3.899   7.651  0.00  0.00    +0.000 A 
ATOM     18  C   UNL     1       9.885  -4.006   8.706  0.00  0.00    +0.000 A 
ATOM     19  N   UNL     1       9.804  -3.254   9.809  0.00  0.00    +0.000 NA
ATOM     20  C   UNL     1       8.792  -2.358   9.859  0.00  0.00    +0.000 A 
ATOM     21 CL   UNL     1       8.733  -1.432  11.302  0.00  0.00    +0.000 Cl
ATOM     22  C   UNL     1       7.853  -2.170   8.860  0.00  0.00    +0.000 A 
BRANCH  18  23
ATOM     23  N   UNL     1      10.886  -4.974   8.672  0.00  0.00    +0.000 N 
ATOM     24  H   UNL     1      11.431  -4.939   7.820  0.00  0.00    +0.000 HD
ATOM     25  H   UNL     1      11.461  -4.846   9.502  0.00  0.00    +0.000 HD
ENDBRANCH  18  23
ENDBRANCH  15  16
ENDBRANCH  14  15
ENDBRANCH   4  14
TORSDOF 6
