REMARK  Name = 
REMARK  8 active torsions:
REMARK  status: ('A' for Active; 'I' for Inactive)
REMARK    1  A    between atoms: C_1  and  C_2
REMARK    2  A    between atoms: C_2  and  C_3
REMARK    3  A    between atoms: C_7  and  O_8
REMARK    4  A    between atoms: O_8  and  C_9
REMARK    5  A    between atoms: C_9  and  C_10
REMARK    6  A    between atoms: C_10  and  C_13
REMARK    7  A    between atoms: C_16  and  C_17
REMARK    8  A    between atoms: C_24  and  C_25
REMARK                            x       y       z     vdW  Elec       q    Type
REMARK                         _______ _______ _______ _____ _____    ______ ____
ROOT
ATOM      1  C   UNL     1       2.908   0.222  -1.543  0.00  0.00    +0.000 A 
ATOM      2  C   UNL     1       2.563  -0.811  -2.436  0.00  0.00    +0.000 A 
ATOM      3  C   UNL     1       2.835  -0.713  -3.800  0.00  0.00    +0.000 A 
ATOM      4  C   UNL     1       3.454   0.424  -4.312  0.00  0.00    +0.000 A 
ATOM      5  C   UNL     1       3.811   1.466  -3.459  0.00  0.00    +0.000 A 
ATOM      6  C   UNL     1       3.556   1.349  -2.085  0.00  0.00    +0.000 A 
ENDROOT
BRANCH   1   8
ATOM      7  C   UNL     1       0.944   0.096  -0.014  0.00  0.00    +0.000 C 
ATOM      8  C   UNL     1       2.484   0.111  -0.067  0.00  0.00    +0.000 C 
ATOM      9  C   UNL     1       3.084  -1.137   0.617  0.00  0.00    +0.000 C 
ATOM     10  O   UNL     1       4.252  -0.731   1.358  0.00  0.00    +0.000 OA
ATOM     11  C   UNL     1       4.410   0.699   1.219  0.00  0.00    +0.000 C 
ATOM     12  C   UNL     1       3.018   1.201   0.867  0.00  0.00    +0.000 C 
BRANCH  11  13
ATOM     13  C   UNL     1       5.015   1.393   2.448  0.00  0.00    +0.000 C 
ATOM     14  F   UNL     1       5.233   0.544   3.474  0.00  0.00    +0.000 F 
ATOM     15  F   UNL     1       6.205   1.961   2.133  0.00  0.00    +0.000 F 
ATOM     16  F   UNL     1       4.219   2.386   2.911  0.00  0.00    +0.000 F 
ENDBRANCH  11  13
ENDBRANCH   1   8
BRANCH   5  17
ATOM     17  O   UNL     1       4.395   2.646  -3.843  0.00  0.00    +0.000 OA
BRANCH  17  18
ATOM     18  C   UNL     1       4.504   2.869  -5.259  0.00  0.00    +0.000 C 
BRANCH  18  19
ATOM     19  C   UNL     1       5.058   4.265  -5.574  0.00  0.00    +0.000 C 
ATOM     20  F   UNL     1       6.312   4.360  -5.032  0.00  0.00    +0.000 F 
ATOM     21  F   UNL     1       5.265   4.329  -6.927  0.00  0.00    +0.000 F 
BRANCH  19  22
ATOM     22  C   UNL     1       4.126   5.361  -5.098  0.00  0.00    +0.000 A 
ATOM     23  C   UNL     1       4.588   6.311  -4.194  0.00  0.00    +0.000 A 
ATOM     24  N   UNL     1       3.797   7.280  -3.668  0.00  0.00    +0.000 NA
ATOM     25  C   UNL     1       2.509   7.281  -4.095  0.00  0.00    +0.000 A 
ATOM     26  C   UNL     1       2.047   6.372  -5.031  0.00  0.00    +0.000 A 
ATOM     27  N   UNL     1       2.837   5.398  -5.552  0.00  0.00    +0.000 NA
BRANCH  25  28
ATOM     28  C   UNL     1       1.623   8.228  -3.494  0.00  0.00    +0.000 C 
ATOM     29  N   UNL     1       0.863   8.966  -3.011  0.00  0.00    +0.000 NA
ENDBRANCH  25  28
ENDBRANCH  19  22
ENDBRANCH  18  19
ENDBRANCH  17  18
ENDBRANCH   5  17
TORSDOF 7
